MODEL 4
REMARK VINA RESULT: -7.598089398      5.787     10.037
REMARK  9 active torsions:
REMARK  status: ('A' for Active; 'I' for Inactive)
REMARK    1  A    between atoms: C2_2  and  C3_3
REMARK    2  A    between atoms: C3_3  and  C4_4
REMARK    3  A    between atoms: C10_11  and  C11_12
REMARK    4  A    between atoms: C11_12  and  C12_13
REMARK    5  A    between atoms: C12_13  and  C13_14
REMARK    6  A    between atoms: C13_14  and  O1_15
REMARK    7  A    between atoms: C13_14  and  C14_17
REMARK    8  A    between atoms: C15_19  and  C16_20
REMARK    9  A    between atoms: C16_20  and  O2_21
ROOT
HETATM    1  C13 UNL     1      39.602  20.217  20.987  1.00  0.00     0.067 C
ENDROOT
BRANCH   1   2
HETATM    2  C12 UNL     1      41.047  20.379  20.608  1.00  0.00     0.071 C
BRANCH   2   3
HETATM    3  C11 UNL     1      41.282  21.176  19.350  1.00  0.00     0.048 C
BRANCH   3   4
HETATM    4  C10 UNL     1      42.472  22.053  19.474  1.00  0.00    -0.024 A
HETATM    5  C9  UNL     1      42.320  23.411  19.551  1.00  0.00     0.012 A
HETATM    6  C8  UNL     1      43.426  24.258  19.668  1.00  0.00     0.025 A
HETATM    7  C7  UNL     1      44.652  23.638  19.699  1.00  0.00     0.043 A
HETATM    8  C6  UNL     1      44.835  22.271  19.623  1.00  0.00    -0.000 A
HETATM    9 CL1  UNL     1      46.079  24.644  19.844  1.00  0.00    -0.084 Cl
HETATM   10  C5  UNL     1      46.013  21.385  19.634  1.00  0.00     0.075 C
HETATM   11  C22 UNL     1      43.718  21.474  19.508  1.00  0.00     0.083 A
HETATM   12  C4  UNL     1      45.497  20.083  19.128  1.00  0.00     0.133 C
HETATM   13  O5  UNL     1      44.116  20.120  19.445  1.00  0.00    -0.344 OA
BRANCH  12  14
HETATM   14  C3  UNL     1      46.165  18.879  19.682  1.00  0.00     0.032 C
BRANCH  14  15
HETATM   15  C2  UNL     1      46.224  17.706  18.752  1.00  0.00    -0.002 C
HETATM   16  C1  UNL     1      46.605  18.261  17.372  1.00  0.00     0.005 C
ENDBRANCH  14  15
ENDBRANCH  12  14
ENDBRANCH   3   4
ENDBRANCH   2   3
ENDBRANCH   1   2
BRANCH   1  17
HETATM   17  O1  UNL     1      38.908  19.792  19.887  1.00  0.00    -0.363 OA
ATOM     18  H1  UNL     1      38.508  18.955  20.087  1.00  0.00     0.217 HD
ENDBRANCH   1  17
BRANCH   1  19
HETATM   19  C14 UNL     1      39.004  21.241  21.850  1.00  0.00     0.058 C
HETATM   20  N1  UNL     1      37.697  21.598  21.813  1.00  0.00    -0.329 N
HETATM   21  C15 UNL     1      36.511  21.014  21.630  1.00  0.00     0.258 C
HETATM   22  C18 UNL     1      37.539  22.854  22.535  1.00  0.00     0.250 C
HETATM   23  O3  UNL     1      35.641  22.187  21.532  1.00  0.00    -0.291 OA
HETATM   24  C17 UNL     1      36.090  22.975  22.589  1.00  0.00     0.294 C
HETATM   25  O4  UNL     1      35.367  23.626  23.385  1.00  0.00    -0.262 OA
HETATM   26  S1  UNL     1      38.297  22.273  24.110  1.00  0.00    -0.118 SA
HETATM   27  C19 UNL     1      39.575  21.246  23.273  1.00  0.00     0.048 C
HETATM   28  C20 UNL     1      39.831  19.952  23.884  1.00  0.00     0.033 C
HETATM   29  C21 UNL     1      40.855  22.081  23.367  1.00  0.00     0.033 C
BRANCH  21  30
HETATM   30  C16 UNL     1      35.793  20.214  22.665  1.00  0.00     0.218 C
BRANCH  30  31
HETATM   31  O2  UNL     1      36.378  19.008  23.015  1.00  0.00    -0.397 OA
ATOM     32  H2  UNL     1      37.255  18.858  22.684  1.00  0.00     0.209 HD
ENDBRANCH  30  31
ENDBRANCH  21  30
ENDBRANCH   1  19
TORSDOF 9
ENDMDL