MODEL 4
REMARK VINA RESULT: -6.448352728      1.117      1.532
REMARK  5 active torsions:
REMARK  status: ('A' for Active; 'I' for Inactive)
REMARK    1  A    between atoms: C4_6  and  C5_7
REMARK    2  A    between atoms: C5_7  and  C6_8
REMARK    3  A    between atoms: C12_17  and  N4_18
REMARK    4  A    between atoms: C15_21  and  C16_22
REMARK    5  A    between atoms: C22_28  and  C24_30
ROOT
HETATM    1  C1  UNL     1      15.149  55.259  27.532  1.00  0.00     0.052 C
HETATM    2  C2  UNL     1      15.000  53.808  27.735  1.00  0.00    -0.017 A
HETATM    3  C3  UNL     1      13.842  53.199  27.188  1.00  0.00     0.098 A
HETATM    4  N1  UNL     1      13.656  51.890  27.268  1.00  0.00    -0.354 N
ATOM      5  H1  UNL     1      12.813  51.479  26.866  1.00  0.00     0.166 HD
HETATM    6  C4  UNL     1      14.549  51.098  27.864  1.00  0.00     0.104 A
HETATM    7  N2  UNL     1      15.682  51.650  28.405  1.00  0.00    -0.241 N
HETATM    8  N3  UNL     1      16.651  51.039  28.995  1.00  0.00    -0.276 N
ATOM      9  H3  UNL     1      16.695  50.032  29.151  1.00  0.00     0.189 HD
HETATM   10  C12 UNL     1      17.620  51.939  29.386  1.00  0.00     0.130 A
HETATM   11  C15 UNL     1      17.175  53.180  28.987  1.00  0.00     0.041 A
HETATM   12  C25 UNL     1      15.904  52.982  28.345  1.00  0.00     0.079 A
ENDROOT
BRANCH  11  13
HETATM   13  C16 UNL     1      17.847  54.464  29.005  1.00  0.00    -0.058 C
HETATM   14  C17 UNL     1      17.003  55.737  29.123  1.00  0.00     0.041 C
HETATM   15  C18 UNL     1      17.938  56.711  29.898  1.00  0.00     0.007 C
HETATM   16  C19 UNL     1      18.007  56.232  31.309  1.00  0.00     0.007 C
HETATM   17  C22 UNL     1      19.273  56.271  29.338  1.00  0.00     0.065 C
HETATM   18  C20 UNL     1      18.803  54.953  31.219  1.00  0.00     0.010 C
HETATM   19  C21 UNL     1      19.078  54.797  29.741  1.00  0.00     0.033 C
HETATM   20  C23 UNL     1      19.332  56.530  27.871  1.00  0.00     0.025 C
BRANCH  17  21
HETATM   21  C24 UNL     1      20.436  56.955  29.955  1.00  0.00     0.396 C
HETATM   22  F1  UNL     1      19.982  57.918  30.900  1.00  0.00    -0.170 F
HETATM   23  F2  UNL     1      20.976  57.778  28.943  1.00  0.00    -0.170 F
HETATM   24  F3  UNL     1      21.473  56.265  30.448  1.00  0.00    -0.170 F
ENDBRANCH  17  21
ENDBRANCH  11  13
BRANCH  10  25
HETATM   25  N4  UNL     1      18.700  51.461  30.118  1.00  0.00    -0.374 N
HETATM   26  C13 UNL     1      19.057  51.619  31.500  1.00  0.00     0.150 C
HETATM   27  C14 UNL     1      19.622  50.527  29.400  1.00  0.00     0.150 C
ENDBRANCH  10  25
BRANCH   6  28
HETATM   28  C5  UNL     1      14.329  49.650  27.897  1.00  0.00     0.083 C
BRANCH  28  29
HETATM   29  C6  UNL     1      12.898  49.247  27.919  1.00  0.00    -0.007 C
HETATM   30  C7  UNL     1      12.487  48.531  26.640  1.00  0.00     0.005 C
HETATM   31  C8  UNL     1      11.166  47.854  26.949  1.00  0.00     0.000 C
HETATM   32  C9  UNL     1      10.131  48.878  27.315  1.00  0.00     0.000 C
HETATM   33  C10 UNL     1      10.561  49.777  28.414  1.00  0.00     0.000 C
HETATM   34  C11 UNL     1      11.955  50.358  28.180  1.00  0.00     0.005 C
ENDBRANCH  28  29
ENDBRANCH   6  28
TORSDOF 5
ENDMDL