MODEL 3
REMARK VINA RESULT: -10.527830144      1.262      1.487
REMARK  6 active torsions:
REMARK  status: ('A' for Active; 'I' for Inactive)
REMARK    1  A    between atoms: C8_8  and  N1_9
REMARK    2  A    between atoms: N1_9  and  C9_10
REMARK    3  A    between atoms: N1_9  and  C18_29
REMARK    4  A    between atoms: C9_10  and  O1_11
REMARK    5  A    between atoms: C9_10  and  C10_13
REMARK    6  A    between atoms: C11_17  and  C12_18
ROOT
HETATM    1  C10 UNL     1      16.290  53.453  27.507  1.00  0.00     0.179 A
HETATM    2  N2  UNL     1      15.521  54.066  26.630  1.00  0.00    -0.239 N
ATOM      3  H2  UNL     1      15.847  54.858  26.077  1.00  0.00     0.196 HD
HETATM    4  O2  UNL     1      14.347  53.598  26.521  1.00  0.00    -0.217 OA
HETATM    5  C11 UNL     1      14.263  52.596  27.364  1.00  0.00     0.184 A
HETATM    6  N3  UNL     1      15.432  52.469  27.993  1.00  0.00    -0.316 N
ATOM      7  H3  UNL     1      15.658  51.773  28.704  1.00  0.00     0.169 HD
ENDROOT
BRANCH   1   8
HETATM    8  C9  UNL     1      17.663  53.597  27.988  1.00  0.00     0.186 C
BRANCH   8   9
HETATM    9  N1  UNL     1      18.104  53.896  29.269  1.00  0.00    -0.349 N
BRANCH   9  10
HETATM   10  C8  UNL     1      18.468  55.216  29.644  1.00  0.00     0.092 C
HETATM   11  C7  UNL     1      19.929  55.593  29.545  1.00  0.00     0.017 C
HETATM   12  C2  UNL     1      19.802  57.017  30.150  1.00  0.00    -0.038 C
HETATM   13  C6  UNL     1      20.842  55.022  30.569  1.00  0.00     0.008 C
HETATM   14  C1  UNL     1      21.115  57.715  30.242  1.00  0.00     0.015 C
HETATM   15  C3  UNL     1      18.794  57.867  29.466  1.00  0.00     0.015 C
HETATM   16  C4  UNL     1      19.286  56.516  31.510  1.00  0.00    -0.004 C
HETATM   17  C5  UNL     1      20.402  55.622  31.915  1.00  0.00     0.006 C
HETATM   18  C21 UNL     1      18.123  55.654  31.037  1.00  0.00     0.031 C
ENDBRANCH   9  10
BRANCH   9  19
HETATM   19  C18 UNL     1      18.130  52.841  30.272  1.00  0.00     0.087 A
HETATM   20  C19 UNL     1      18.215  51.395  29.985  1.00  0.00     0.027 A
HETATM   21  C20 UNL     1      19.389  52.062  30.567  1.00  0.00     0.027 A
ENDBRANCH   9  19
ENDBRANCH   8   9
BRANCH   8  22
HETATM   22  O1  UNL     1      18.580  53.417  27.077  1.00  0.00    -0.343 OA
ATOM     23  H1  UNL     1      19.168  54.144  26.911  1.00  0.00     0.219 HD
ENDBRANCH   8  22
ENDBRANCH   1   8
BRANCH   5  24
HETATM   24  C12 UNL     1      13.058  51.775  27.554  1.00  0.00     0.041 A
HETATM   25  C13 UNL     1      11.826  52.291  27.230  1.00  0.00     0.043 A
HETATM   26  C14 UNL     1      10.707  51.510  27.412  1.00  0.00     0.056 A
HETATM   27 CL1  UNL     1       9.095  52.072  27.032  1.00  0.00    -0.083 Cl
HETATM   28  C15 UNL     1      10.847  50.241  27.910  1.00  0.00     0.057 A
HETATM   29 CL2  UNL     1       9.479  49.185  28.172  1.00  0.00    -0.082 Cl
HETATM   30  C16 UNL     1      12.105  49.731  28.235  1.00  0.00     0.050 A
HETATM   31  C17 UNL     1      13.224  50.507  28.055  1.00  0.00     0.050 A
HETATM   32 CL3  UNL     1      14.824  49.937  28.436  1.00  0.00    -0.083 Cl
ENDBRANCH   5  24
TORSDOF 6
ENDMDL