MODEL 2
REMARK VINA RESULT: -8.556676955      1.037      1.545
REMARK  6 active torsions:
REMARK  status: ('A' for Active; 'I' for Inactive)
REMARK    1  A    between atoms: C3_3  and  C4_4
REMARK    2  A    between atoms: C4_4  and  O2_6
REMARK    3  A    between atoms: O2_6  and  C5_7
REMARK    4  A    between atoms: C11_15  and  C12_16
REMARK    5  A    between atoms: C13_17  and  C14_18
REMARK    6  A    between atoms: C19_25  and  C21_27
ROOT
HETATM    1  C1  UNL     1      18.316  52.278  26.612  1.00  0.00     0.016 C
HETATM    2  C2  UNL     1      18.072  52.504  28.082  1.00  0.00     0.030 C
HETATM    3  C3  UNL     1      16.603  52.910  28.238  1.00  0.00     0.028 C
HETATM    4  C11 UNL     1      15.747  51.925  28.204  1.00  0.00    -0.046 C
HETATM    5  C17 UNL     1      16.252  50.497  28.033  1.00  0.00     0.040 C
HETATM    6  C18 UNL     1      17.336  50.337  29.086  1.00  0.00     0.015 C
HETATM    7  C19 UNL     1      18.425  51.338  28.938  1.00  0.00    -0.024 C
HETATM    8  C20 UNL     1      19.672  50.623  28.473  1.00  0.00     0.017 C
ENDROOT
BRANCH   3   9
HETATM    9  C4  UNL     1      16.283  54.292  28.400  1.00  0.00     0.290 C
HETATM   10  O1  UNL     1      15.145  54.747  28.532  1.00  0.00    -0.260 OA
BRANCH   9  11
HETATM   11  O2  UNL     1      17.308  55.262  28.417  1.00  0.00    -0.309 OA
BRANCH  11  12
HETATM   12  C5  UNL     1      18.045  55.436  29.601  1.00  0.00     0.174 C
HETATM   13  C6  UNL     1      17.168  55.940  30.727  1.00  0.00     0.212 C
HETATM   14  O3  UNL     1      17.699  57.181  31.142  1.00  0.00    -0.318 OA
HETATM   15  C7  UNL     1      18.449  57.671  30.091  1.00  0.00     0.269 C
HETATM   16  O4  UNL     1      18.511  58.894  29.771  1.00  0.00    -0.264 OA
HETATM   17  C8  UNL     1      19.104  56.484  29.491  1.00  0.00     0.069 C
HETATM   18  C9  UNL     1      19.561  56.731  28.080  1.00  0.00     0.028 C
HETATM   19  C10 UNL     1      20.283  56.141  30.406  1.00  0.00     0.028 C
ENDBRANCH  11  12
ENDBRANCH   9  11
ENDBRANCH   3   9
BRANCH   4  20
HETATM   20  C12 UNL     1      14.331  52.116  28.332  1.00  0.00     0.004 C
HETATM   21  C13 UNL     1      13.383  51.293  27.943  1.00  0.00    -0.018 C
BRANCH  21  22
HETATM   22  C14 UNL     1      11.957  51.657  28.159  1.00  0.00     0.050 A
HETATM   23  C15 UNL     1      11.059  51.844  26.996  1.00  0.00     0.054 A
HETATM   24  C16 UNL     1      10.909  50.597  27.786  1.00  0.00     0.121 A
HETATM   25 CL1  UNL     1      11.582  49.076  27.175  1.00  0.00    -0.101 Cl
HETATM   26 CL2  UNL     1       9.479  50.448  28.819  1.00  0.00    -0.101 Cl
ENDBRANCH  21  22
ENDBRANCH   4  20
BRANCH   7  27
HETATM   27  C21 UNL     1      18.750  51.886  30.334  1.00  0.00     0.124 C
HETATM   28 CL3  UNL     1      20.280  52.782  30.163  1.00  0.00    -0.130 Cl
ENDBRANCH   7  27
TORSDOF 6
ENDMDL