MODEL 5
REMARK VINA RESULT: -7.402052975      2.985      7.340
REMARK  6 active torsions:
REMARK  status: ('A' for Active; 'I' for Inactive)
REMARK    1  A    between atoms: O1_2  and  C2_3
REMARK    2  A    between atoms: C2_3  and  C3_4
REMARK    3  A    between atoms: C7_8  and  O2_9
REMARK    4  A    between atoms: C9_11  and  O3_12
REMARK    5  A    between atoms: O3_12  and  C10_13
REMARK    6  A    between atoms: C10_13  and  C11_15
ROOT
HETATM    1  C3  UNL     1      15.705  51.176  27.852  1.00  0.00     0.009 A
HETATM    2  C4  UNL     1      14.315  50.896  28.066  1.00  0.00    -0.040 A
HETATM    3  C5  UNL     1      13.340  51.796  27.755  1.00  0.00    -0.044 A
HETATM    4  C6  UNL     1      13.713  53.005  27.222  1.00  0.00     0.047 A
HETATM    5  C7  UNL     1      15.035  53.291  27.008  1.00  0.00     0.103 A
HETATM    6  C9  UNL     1      16.062  52.370  27.325  1.00  0.00     0.121 A
HETATM    7  C12 UNL     1      11.942  51.402  28.021  1.00  0.00     0.024 C
HETATM    8  C13 UNL     1      10.909  52.145  27.256  1.00  0.00     0.010 C
HETATM    9  C14 UNL     1       9.552  51.788  27.882  1.00  0.00     0.001 C
HETATM   10  C15 UNL     1       9.565  50.333  28.348  1.00  0.00     0.005 C
HETATM   11  C16 UNL     1      10.418  49.540  27.415  1.00  0.00    -0.014 C
HETATM   12  C17 UNL     1      10.164  48.076  27.534  1.00  0.00     0.010 C
HETATM   13  C18 UNL     1      11.851  49.934  27.575  1.00  0.00    -0.002 C
HETATM   14  C19 UNL     1      12.609  49.150  28.585  1.00  0.00     0.010 C
HETATM   15  C20 UNL     1      14.037  49.558  28.646  1.00  0.00     0.040 C
ENDROOT
BRANCH   6  16
HETATM   16  O3  UNL     1      17.301  52.836  27.031  1.00  0.00    -0.272 OA
BRANCH  16  17
HETATM   17  C10 UNL     1      18.392  53.013  27.841  1.00  0.00     0.319 C
HETATM   18  O4  UNL     1      19.462  52.430  27.499  1.00  0.00    -0.260 OA
BRANCH  17  19
HETATM   19  C11 UNL     1      18.287  53.842  29.047  1.00  0.00     0.276 C
HETATM   20 CL1  UNL     1      17.600  55.439  28.661  1.00  0.00    -0.073 Cl
HETATM   21 CL2  UNL     1      19.978  54.151  29.609  1.00  0.00    -0.073 Cl
HETATM   22 CL3  UNL     1      17.456  53.082  30.407  1.00  0.00    -0.073 Cl
ENDBRANCH  17  19
ENDBRANCH  16  17
ENDBRANCH   6  16
BRANCH   1  23
HETATM   23  C2  UNL     1      16.631  50.062  28.078  1.00  0.00     0.209 C
BRANCH  23  24
HETATM   24  O1  UNL     1      17.116  49.943  29.343  1.00  0.00    -0.391 OA
HETATM   25  C1  UNL     1      18.537  49.915  29.317  1.00  0.00     0.201 C
ENDBRANCH  23  24
ENDBRANCH   1  23
BRANCH   5  26
HETATM   26  O2  UNL     1      15.402  54.498  26.471  1.00  0.00    -0.353 OA
HETATM   27  C8  UNL     1      14.673  55.030  25.383  1.00  0.00     0.210 C
ENDBRANCH   5  26
TORSDOF 6
ENDMDL