MODEL 2
REMARK VINA RESULT: -10.988632786      0.459      1.131
REMARK  7 active torsions:
REMARK  status: ('A' for Active; 'I' for Inactive)
REMARK    1  A    between atoms: C3_3  and  O1_4
REMARK    2  A    between atoms: O1_4  and  C4_5
REMARK    3  A    between atoms: C4_5  and  O2_6
REMARK    4  A    between atoms: C4_5  and  C5_8
REMARK    5  A    between atoms: C5_8  and  C6_9
REMARK    6  A    between atoms: C6_9  and  C7_10
REMARK    7  A    between atoms: C12_18  and  N1_19
ROOT
HETATM    1  C1  UNL     1      18.280  50.591  28.750  1.00  0.00     0.017 C
HETATM    2  C2  UNL     1      17.841  51.683  29.318  1.00  0.00    -0.055 C
HETATM    3  C3  UNL     1      16.639  52.364  28.807  1.00  0.00     0.161 C
HETATM    4  C11 UNL     1      16.980  53.805  28.489  1.00  0.00     0.073 C
HETATM    5  C12 UNL     1      17.611  54.519  29.648  1.00  0.00     0.233 C
HETATM    6  C18 UNL     1      18.676  53.768  30.343  1.00  0.00     0.067 C
HETATM    7  C19 UNL     1      18.494  52.278  30.469  1.00  0.00     0.029 C
HETATM    8  C20 UNL     1      20.005  52.150  30.521  1.00  0.00     0.053 C
HETATM    9  C21 UNL     1      19.994  53.490  29.731  1.00  0.00     0.106 C
HETATM   10  C22 UNL     1      21.163  54.298  30.316  1.00  0.00     0.052 C
HETATM   11  F1  UNL     1      20.103  53.178  28.422  1.00  0.00    -0.243 F
ENDROOT
BRANCH   3  12
HETATM   12  O1  UNL     1      16.032  51.708  27.737  1.00  0.00    -0.321 OA
BRANCH  12  13
HETATM   13  C4  UNL     1      14.721  51.304  27.761  1.00  0.00     0.178 C
BRANCH  13  14
HETATM   14  O2  UNL     1      14.511  50.029  27.553  1.00  0.00    -0.341 OA
ATOM     15  H2  UNL     1      13.614  49.781  27.364  1.00  0.00     0.220 HD
ENDBRANCH  13  14
BRANCH  13  16
HETATM   16  C5  UNL     1      13.586  52.131  27.987  1.00  0.00     0.066 C
BRANCH  16  17
HETATM   17  C6  UNL     1      12.468  52.143  27.370  1.00  0.00     0.042 C
BRANCH  17  18
HETATM   18  C7  UNL     1      11.209  51.471  27.630  1.00  0.00     0.079 A
HETATM   19  C8  UNL     1      11.075  50.106  27.899  1.00  0.00     0.065 A
HETATM   20  C9  UNL     1       9.750  49.835  28.093  1.00  0.00     0.082 A
HETATM   21 CL1  UNL     1       9.054  48.287  28.457  1.00  0.00    -0.080 Cl
HETATM   22  C10 UNL     1       9.098  51.017  27.943  1.00  0.00     0.167 A
HETATM   23 CL2  UNL     1       7.367  51.317  28.074  1.00  0.00    -0.055 Cl
HETATM   24  O3  UNL     1       9.979  51.926  27.678  1.00  0.00    -0.297 OA
ENDBRANCH  17  18
ENDBRANCH  16  17
ENDBRANCH  13  16
ENDBRANCH  12  13
ENDBRANCH   3  12
BRANCH   5  25
HETATM   25  N1  UNL     1      17.768  55.914  29.563  1.00  0.00     0.093 N
HETATM   26  C13 UNL     1      18.942  56.314  28.769  1.00  0.00     0.273 C
HETATM   27  C14 UNL     1      19.238  57.784  28.928  1.00  0.00     0.030 C
HETATM   28  C15 UNL     1      19.856  58.004  30.307  1.00  0.00     0.003 C
HETATM   29  C16 UNL     1      19.221  56.967  31.207  1.00  0.00     0.030 C
HETATM   30  C17 UNL     1      17.785  56.722  30.718  1.00  0.00     0.273 C
ENDBRANCH   5  25
TORSDOF 7
ENDMDL