MODEL 5
REMARK VINA RESULT: -9.196299719      1.083      1.474
REMARK  4 active torsions:
REMARK  status: ('A' for Active; 'I' for Inactive)
REMARK    1  A    between atoms: C4_5  and  N1_6
REMARK    2  A    between atoms: C9_14  and  C10_15
REMARK    3  A    between atoms: N3_18  and  C13_19
REMARK    4  A    between atoms: C13_19  and  C14_20
ROOT
HETATM    1 CL1  UNL     1      17.966  50.330  26.257  1.00  0.00    -0.082 Cl
HETATM    2  C1  UNL     1      18.187  51.741  27.264  1.00  0.00     0.061 A
HETATM    3  C2  UNL     1      19.526  52.085  27.503  1.00  0.00     0.030 A
HETATM    4  C3  UNL     1      19.783  53.208  28.230  1.00  0.00     0.051 A
HETATM    5  C4  UNL     1      18.768  53.988  28.720  1.00  0.00     0.113 A
HETATM    6  N2  UNL     1      17.521  53.601  28.459  1.00  0.00    -0.340 N
ATOM      7  H2  UNL     1      16.762  54.177  28.823  1.00  0.00     0.167 HD
HETATM    8  C9  UNL     1      17.184  52.501  27.746  1.00  0.00     0.062 A
ENDROOT
BRANCH   8   9
HETATM    9  C10 UNL     1      15.745  52.191  27.617  1.00  0.00    -0.024 C
HETATM   10  C11 UNL     1      14.815  52.954  27.155  1.00  0.00     0.027 C
HETATM   11  C12 UNL     1      13.399  52.562  27.068  1.00  0.00     0.090 C
HETATM   12  N3  UNL     1      13.030  51.403  27.726  1.00  0.00    -0.368 N
HETATM   13  C15 UNL     1      13.984  50.414  27.980  1.00  0.00     0.068 C
HETATM   14  C16 UNL     1      15.376  50.827  28.117  1.00  0.00     0.085 C
BRANCH  12  15
HETATM   15  C13 UNL     1      11.796  51.374  28.411  1.00  0.00     0.159 C
BRANCH  15  16
HETATM   16  C14 UNL     1      10.689  51.149  27.377  1.00  0.00     0.172 C
HETATM   17 CL2  UNL     1       9.818  52.651  27.046  1.00  0.00    -0.111 Cl
HETATM   18 BR1  UNL     1       9.443  49.818  27.974  1.00  0.00    -0.073 Br
ENDBRANCH  15  16
ENDBRANCH  12  15
ENDBRANCH   8   9
BRANCH   5  19
HETATM   19  N1  UNL     1      19.046  55.158  29.463  1.00  0.00    -0.307 N
HETATM   20  C5  UNL     1      18.426  56.441  29.294  1.00  0.00     0.138 C
HETATM   21  C6  UNL     1      18.035  56.940  30.670  1.00  0.00     0.022 C
HETATM   22  C7  UNL     1      19.148  57.465  31.493  1.00  0.00     0.013 C
HETATM   23  C8  UNL     1      20.494  56.832  31.240  1.00  0.00     0.098 C
HETATM   24  S1  UNL     1      20.281  55.080  30.723  1.00  0.00    -0.052 SA
ENDBRANCH   5  19
TORSDOF 4
ENDMDL