MODEL 3
REMARK VINA RESULT: -7.158846578      0.780      1.193
REMARK  4 active torsions:
REMARK  status: ('A' for Active; 'I' for Inactive)
REMARK    1  A    between atoms: C6_8  and  C7_9
REMARK    2  A    between atoms: N2_19  and  C13_20
REMARK    3  A    between atoms: C13_20  and  C14_21
REMARK    4  A    between atoms: C14_21  and  N3_22
ROOT
HETATM    1  C1  UNL     1      18.595  49.249  28.040  1.00  0.00     0.034 C
HETATM    2  C2  UNL     1      18.624  50.781  27.912  1.00  0.00     0.046 C
HETATM    3 CL1  UNL     1      19.421  51.081  26.323  1.00  0.00    -0.118 Cl
HETATM    4  C3  UNL     1      19.552  51.274  28.957  1.00  0.00     0.106 C
HETATM    5  S1  UNL     1      19.645  53.097  28.711  1.00  0.00    -0.108 SA
HETATM    6  C4  UNL     1      17.953  53.601  28.742  1.00  0.00     0.096 A
HETATM    7  C5  UNL     1      17.035  52.694  28.324  1.00  0.00     0.008 A
HETATM    8  C6  UNL     1      15.807  53.336  28.453  1.00  0.00     0.069 A
HETATM    9  N1  UNL     1      16.067  54.548  28.925  1.00  0.00    -0.296 N
ATOM     10  H1  UNL     1      15.357  55.254  29.124  1.00  0.00     0.187 HD
HETATM   11  N2  UNL     1      17.365  54.725  29.106  1.00  0.00    -0.283 N
HETATM   12  C20 UNL     1      17.272  51.337  27.843  1.00  0.00     0.070 C
ENDROOT
BRANCH   8  13
HETATM   13  C7  UNL     1      14.476  52.841  28.159  1.00  0.00     0.014 A
HETATM   14  C8  UNL     1      13.802  51.983  28.987  1.00  0.00     0.017 A
HETATM   15  C9  UNL     1      12.528  51.512  28.689  1.00  0.00     0.025 A
HETATM   16  C10 UNL     1      11.933  51.924  27.528  1.00  0.00     0.035 A
HETATM   17 CL2  UNL     1      10.331  51.366  27.095  1.00  0.00    -0.084 Cl
HETATM   18  C11 UNL     1      12.611  52.793  26.682  1.00  0.00     0.048 A
HETATM   19  C12 UNL     1      13.880  53.257  26.989  1.00  0.00     0.048 A
HETATM   20 CL3  UNL     1      14.664  54.351  25.867  1.00  0.00    -0.083 Cl
ENDBRANCH   8  13
BRANCH  11  21
HETATM   21  C13 UNL     1      17.859  55.961  29.614  1.00  0.00     0.169 C
BRANCH  21  22
HETATM   22  C14 UNL     1      18.103  56.094  31.040  1.00  0.00     0.138 C
BRANCH  22  23
HETATM   23  N3  UNL     1      19.474  56.368  31.372  1.00  0.00    -0.411 N
HETATM   24  C15 UNL     1      20.398  55.307  31.215  1.00  0.00     0.117 C
HETATM   25  C16 UNL     1      21.486  55.494  32.284  1.00  0.00     0.019 C
HETATM   26  C17 UNL     1      22.044  56.868  32.093  1.00  0.00     0.003 C
HETATM   27  C18 UNL     1      21.518  57.552  30.849  1.00  0.00     0.019 C
HETATM   28  C19 UNL     1      20.001  57.598  30.881  1.00  0.00     0.117 C
ENDBRANCH  22  23
ENDBRANCH  21  22
ENDBRANCH  11  21
TORSDOF 4
ENDMDL