MODEL 5
REMARK VINA RESULT: -4.285335332      1.837      5.067
REMARK  4 active torsions:
REMARK  status: ('A' for Active; 'I' for Inactive)
REMARK    1  A    between atoms: C2_2  and  O1_3
REMARK    2  A    between atoms: O1_3  and  C3_4
REMARK    3  A    between atoms: C3_4  and  C4_6
REMARK    4  A    between atoms: C7_9  and  C8_10
ROOT
HETATM    1  C4  UNL     1       7.172  59.192  37.543  1.00  0.00     0.152 A
HETATM    2  C5  UNL     1       6.940  59.094  36.164  1.00  0.00     0.058 A
HETATM    3  C6  UNL     1       5.879  58.273  36.015  1.00  0.00     0.012 A
HETATM    4  C7  UNL     1       5.267  57.805  34.794  1.00  0.00    -0.006 A
HETATM    5  C17 UNL     1       4.249  56.956  34.952  1.00  0.00     0.037 A
HETATM    6  C18 UNL     1       3.802  56.560  36.226  1.00  0.00     0.037 A
HETATM    7 CL3  UNL     1       2.390  55.483  36.395  1.00  0.00    -0.084 Cl
HETATM    8  C19 UNL     1       4.420  57.031  37.359  1.00  0.00     0.062 A
HETATM    9  C20 UNL     1       5.472  57.883  37.237  1.00  0.00     0.089 A
HETATM   10  O3  UNL     1       6.272  58.457  38.137  1.00  0.00    -0.304 OA
ENDROOT
BRANCH   4  11
HETATM   11  C8  UNL     1       5.775  58.539  33.675  1.00  0.00     0.100 C
HETATM   12  N1  UNL     1       5.510  59.667  33.036  1.00  0.00    -0.365 N
HETATM   13  C9  UNL     1       6.121  59.690  31.687  1.00  0.00     0.144 C
HETATM   14  C15 UNL     1       4.848  60.833  33.318  1.00  0.00     0.113 C
HETATM   15  C10 UNL     1       7.226  60.672  31.656  1.00  0.00     0.101 C
HETATM   16 CL1  UNL     1       8.596  60.188  32.680  1.00  0.00    -0.123 Cl
HETATM   17  C11 UNL     1       6.654  62.002  31.964  1.00  0.00     0.034 C
HETATM   18  C12 UNL     1       5.703  62.078  33.104  1.00  0.00    -0.007 C
HETATM   19  C13 UNL     1       4.752  63.219  32.846  1.00  0.00     0.018 C
HETATM   20  C14 UNL     1       6.463  62.414  34.377  1.00  0.00     0.018 C
HETATM   21  C16 UNL     1       3.628  60.975  32.385  1.00  0.00     0.057 C
HETATM   22 CL2  UNL     1       4.161  60.942  34.953  1.00  0.00    -0.095 Cl
ENDBRANCH   4  11
BRANCH   1  23
HETATM   23  C3  UNL     1       8.296  60.019  38.000  1.00  0.00     0.317 C
HETATM   24  O2  UNL     1       8.974  59.765  39.009  1.00  0.00    -0.257 OA
BRANCH  23  25
HETATM   25  O1  UNL     1       8.595  61.127  37.285  1.00  0.00    -0.316 OA
BRANCH  25  26
HETATM   26  C2  UNL     1       9.656  61.924  37.148  1.00  0.00     0.175 C
HETATM   27  C1  UNL     1       9.850  62.492  35.757  1.00  0.00     0.034 C
ENDBRANCH  25  26
ENDBRANCH  23  25
ENDBRANCH   1  23
TORSDOF 4
ENDMDL