MODEL 4
REMARK VINA RESULT: -10.208929289      1.175      1.365
REMARK  4 active torsions:
REMARK  status: ('A' for Active; 'I' for Inactive)
REMARK    1  A    between atoms: C5_5  and  C6_6
REMARK    2  A    between atoms: C6_6  and  N1_7
REMARK    3  A    between atoms: C13_14  and  O1_15
REMARK    4  A    between atoms: O1_15  and  C14_16
ROOT
HETATM    1  N1  UNL     1      19.637  53.274  29.850  1.00  0.00     0.117 N
HETATM    2  C7  UNL     1      19.417  51.865  29.681  1.00  0.00     0.278 C
HETATM    3  C8  UNL     1      17.909  51.677  29.691  1.00  0.00     0.068 C
HETATM    4  C9  UNL     1      17.260  52.571  28.640  1.00  0.00     0.067 C
HETATM    5  C10 UNL     1      17.531  51.919  27.295  1.00  0.00     0.038 C
HETATM    6  C11 UNL     1      16.886  52.875  26.280  1.00  0.00     0.006 C
HETATM    7  C12 UNL     1      15.417  52.713  26.464  1.00  0.00     0.033 C
HETATM    8  C13 UNL     1      14.928  53.126  27.835  1.00  0.00     0.132 C
HETATM    9  C20 UNL     1      15.804  52.631  28.954  1.00  0.00     0.070 C
HETATM   10  O2  UNL     1      17.767  53.842  28.601  1.00  0.00    -0.351 OA
HETATM   11  C21 UNL     1      19.144  53.948  28.694  1.00  0.00     0.441 C
ENDROOT
BRANCH   8  12
HETATM   12  O1  UNL     1      13.642  52.723  27.950  1.00  0.00    -0.344 OA
BRANCH  12  13
HETATM   13  C14 UNL     1      12.804  51.717  27.902  1.00  0.00     0.092 A
HETATM   14  C15 UNL     1      11.455  52.000  27.565  1.00  0.00     0.064 A
HETATM   15  C16 UNL     1      10.490  51.053  27.480  1.00  0.00     0.058 A
HETATM   16 CL1  UNL     1       8.823  51.398  27.064  1.00  0.00    -0.082 Cl
HETATM   17  C17 UNL     1      10.822  49.747  27.732  1.00  0.00     0.057 A
HETATM   18 CL2  UNL     1       9.625  48.492  27.638  1.00  0.00    -0.082 Cl
HETATM   19  C18 UNL     1      12.119  49.440  28.061  1.00  0.00     0.052 A
HETATM   20  C19 UNL     1      13.119  50.404  28.151  1.00  0.00     0.069 A
HETATM   21 CL3  UNL     1      14.752  49.867  28.585  1.00  0.00    -0.081 Cl
ENDBRANCH  12  13
ENDBRANCH   8  12
BRANCH   1  22
HETATM   22  C6  UNL     1      20.909  53.659  30.330  1.00  0.00     0.339 C
BRANCH  22  23
HETATM   23  C5  UNL     1      20.884  55.081  30.744  1.00  0.00     0.081 A
HETATM   24  C4  UNL     1      21.935  55.813  31.236  1.00  0.00     0.037 A
HETATM   25  C3  UNL     1      21.457  57.077  31.485  1.00  0.00     0.035 A
HETATM   26  C2  UNL     1      20.111  57.066  31.129  1.00  0.00     0.049 A
HETATM   27  C1  UNL     1      19.179  58.213  31.224  1.00  0.00     0.076 C
HETATM   28  O3  UNL     1      19.842  55.872  30.705  1.00  0.00    -0.318 OA
ENDBRANCH  22  23
ENDBRANCH   1  22
TORSDOF 4
ENDMDL