MODEL 4
REMARK VINA RESULT: -4.823032840      2.896      4.199
REMARK  3 active torsions:
REMARK  status: ('A' for Active; 'I' for Inactive)
REMARK    1  A    between atoms: C2_2  and  N1_3
REMARK    2  A    between atoms: C3_5  and  N2_6
REMARK    3  A    between atoms: N2_6  and  C4_8
ROOT
HETATM    1  C4  UNL     1     -28.381  87.450 -10.543  1.00  0.00     0.284 C
HETATM    2  C5  UNL     1     -29.544  87.240  -9.619  1.00  0.00     0.054 C
HETATM    3  C6  UNL     1     -30.690  88.174  -9.867  1.00  0.00     0.005 C
HETATM    4  C7  UNL     1     -30.349  89.007 -11.086  1.00  0.00     0.028 C
HETATM    5  C8  UNL     1     -30.042  88.002 -12.196  1.00  0.00     0.235 C
HETATM    6  N3  UNL     1     -28.728  87.485 -11.933  1.00  0.00    -0.054 N
ATOM      7  H31 UNL     1     -28.617  86.562 -12.353  1.00  0.00     0.279 HD
ATOM      8  H32 UNL     1     -28.028  88.003 -12.464  1.00  0.00     0.279 HD
ENDROOT
BRANCH   1   9
HETATM    9  N2  UNL     1     -27.449  86.353 -10.354  1.00  0.00    -0.359 N
ATOM     10  H2  UNL     1     -26.668  86.452  -9.705  1.00  0.00     0.162 HD
BRANCH   9  11
HETATM   11  C3  UNL     1     -27.627  85.138 -11.072  1.00  0.00     0.172 C
HETATM   12  N1  UNL     1     -28.196  84.156 -10.491  1.00  0.00    -0.387 N
ATOM     13  H1  UNL     1     -28.516  84.242  -9.527  1.00  0.00     0.160 HD
BRANCH  12  14
HETATM   14  C2  UNL     1     -28.378  82.923 -11.214  1.00  0.00     0.116 C
HETATM   15  C1  UNL     1     -29.257  83.165 -12.424  1.00  0.00     0.026 C
ENDBRANCH  12  14
ENDBRANCH   9  11
ENDBRANCH   1   9
TORSDOF 3
ENDMDL