MODEL 3
REMARK VINA RESULT: -5.161556141      1.063      1.942
REMARK  2 active torsions:
REMARK  status: ('A' for Active; 'I' for Inactive)
REMARK    1  A    between atoms: C1_4  and  N2_5
REMARK    2  A    between atoms: N2_5  and  C2_7
ROOT
HETATM    1  C2  UNL     1     -29.900  87.880 -12.019  1.00  0.00     0.085 C
HETATM    2  C3  UNL     1     -28.704  87.992 -12.900  1.00  0.00     0.053 C
HETATM    3  C4  UNL     1     -27.658  86.969 -12.711  1.00  0.00     0.239 C
HETATM    4  N3  UNL     1     -27.437  86.520 -11.381  1.00  0.00    -0.064 N
HETATM    5  C5  UNL     1     -28.230  87.232 -10.403  1.00  0.00     0.239 C
HETATM    6  C6  UNL     1     -29.682  86.977 -10.832  1.00  0.00     0.053 C
HETATM    7  C7  UNL     1     -27.381  85.079 -11.125  1.00  0.00     0.265 A
HETATM    8  C8  UNL     1     -26.183  85.944 -10.995  1.00  0.00     0.265 A
ENDROOT
BRANCH   1   9
HETATM    9  N2  UNL     1     -30.294  89.177 -11.505  1.00  0.00    -0.382 N
ATOM     10  H2  UNL     1     -29.580  89.803 -11.134  1.00  0.00     0.160 HD
BRANCH   9  11
HETATM   11  C1  UNL     1     -31.655  89.600 -11.506  1.00  0.00     0.169 C
HETATM   12  N1  UNL     1     -31.957  90.596 -12.269  1.00  0.00    -0.396 N
ATOM     13  H12 UNL     1     -31.243  91.049 -12.839  1.00  0.00     0.156 HD
ATOM     14  H11 UNL     1     -32.932  90.899 -12.269  1.00  0.00     0.156 HD
ENDBRANCH   9  11
ENDBRANCH   1   9
TORSDOF 2
ENDMDL