MODEL 4
REMARK VINA RESULT: -4.538509765      1.502      2.995
REMARK  1 active torsions:
REMARK  status: ('A' for Active; 'I' for Inactive)
REMARK    1  A    between atoms: C5_8  and  C6_9
ROOT
HETATM    1  C1  UNL     1     -26.906  87.827 -14.908  1.00  0.00     0.016 C
HETATM    2  C2  UNL     1     -27.175  87.006 -14.061  1.00  0.00    -0.053 C
HETATM    3  C3  UNL     1     -27.511  86.005 -13.054  1.00  0.00     0.497 C
HETATM    4  N1  UNL     1     -28.888  85.573 -13.135  1.00  0.00    -0.030 N
ATOM      5  H11 UNL     1     -29.038  84.583 -12.938  1.00  0.00     0.280 HD
ATOM      6  H12 UNL     1     -29.274  85.548 -14.078  1.00  0.00     0.280 HD
HETATM    7  C4  UNL     1     -29.559  86.483 -12.225  1.00  0.00     0.272 C
HETATM    8  C5  UNL     1     -28.580  86.512 -11.068  1.00  0.00     0.256 C
HETATM    9  N2  UNL     1     -27.327  86.575 -11.734  1.00  0.00     0.133 N
HETATM   10  C9  UNL     1     -26.274  85.818 -11.090  1.00  0.00     0.314 C
ENDROOT
BRANCH   8  11
HETATM   11  C6  UNL     1     -28.904  87.678 -10.203  1.00  0.00     0.021 A
HETATM   12  C7  UNL     1     -29.768  88.791 -10.616  1.00  0.00     0.007 A
HETATM   13  C8  UNL     1     -30.311  87.727  -9.680  1.00  0.00     0.007 A
ENDBRANCH   8  11
TORSDOF 1
ENDMDL