MODEL 1
REMARK VINA RESULT: -4.667666601      0.000      0.000
REMARK  2 active torsions:
REMARK  status: ('A' for Active; 'I' for Inactive)
REMARK    1  A    between atoms: N1_2  and  C2_3
REMARK    2  A    between atoms: C2_3  and  C3_4
ROOT
HETATM    1  C1  UNL     1     -29.303  86.853 -10.109  1.00  0.00     0.272 C
HETATM    2  N1  UNL     1     -29.117  86.775 -11.570  1.00  0.00    -0.069 N
HETATM    3  C5  UNL     1     -27.707  87.030 -11.785  1.00  0.00     0.237 C
HETATM    4  C6  UNL     1     -27.043  85.802 -11.191  1.00  0.00     0.029 C
HETATM    5  C7  UNL     1     -28.139  84.760 -11.129  1.00  0.00     0.029 C
HETATM    6  C8  UNL     1     -29.289  85.403 -11.921  1.00  0.00     0.237 C
ENDROOT
BRANCH   2   7
HETATM    7  C2  UNL     1     -29.999  87.709 -12.174  1.00  0.00     0.271 C
BRANCH   7   8
HETATM    8  C3  UNL     1     -30.511  88.810 -11.316  1.00  0.00     0.237 A
HETATM    9  C4  UNL     1     -31.874  89.247 -11.194  1.00  0.00     0.267 A
HETATM   10  N2  UNL     1     -30.944  90.005 -12.136  1.00  0.00    -0.066 N
ATOM     11  H22 UNL     1     -30.640  90.969 -12.270  1.00  0.00     0.277 HD
ATOM     12  H21 UNL     1     -30.938  90.279 -13.119  1.00  0.00     0.277 HD
ENDBRANCH   7   8
ENDBRANCH   2   7
TORSDOF 2
ENDMDL