MODEL 5
REMARK VINA RESULT: -4.398863651      1.569      1.787
REMARK  2 active torsions:
REMARK  status: ('A' for Active; 'I' for Inactive)
REMARK       I    between atoms: C2_4  and  N2_5
REMARK       I    between atoms: C2_4  and  N3_10
REMARK    1  A    between atoms: N2_5  and  C3_7
REMARK    2  A    between atoms: N3_10  and  C6_12
ROOT
HETATM    1  C1  UNL     1     -29.765  83.940 -13.286  1.00  0.00     0.165 C
HETATM    2  N1  UNL     1     -29.340  84.828 -12.248  1.00  0.00    -0.231 N
ATOM      3  H1  UNL     1     -29.109  84.439 -11.334  1.00  0.00     0.177 HD
HETATM    4  C2  UNL     1     -29.236  86.119 -12.423  1.00  0.00     0.670 C
HETATM    5  N2  UNL     1     -29.537  86.737 -13.657  1.00  0.00    -0.222 N
ATOM      6  H2  UNL     1     -30.451  86.585 -14.082  1.00  0.00     0.178 HD
HETATM    7  N3  UNL     1     -28.808  86.936 -11.348  1.00  0.00    -0.222 N
ATOM      8  H3  UNL     1     -27.850  87.286 -11.353  1.00  0.00     0.178 HD
ENDROOT
BRANCH   5   9
HETATM    9  C3  UNL     1     -28.581  87.575 -14.323  1.00  0.00     0.099 A
HETATM   10  C4  UNL     1     -28.168  87.304 -15.724  1.00  0.00     0.028 A
HETATM   11  C5  UNL     1     -27.206  87.103 -14.615  1.00  0.00     0.028 A
ENDBRANCH   5   9
BRANCH   7  12
HETATM   12  C6  UNL     1     -29.662  87.292 -10.252  1.00  0.00     0.099 A
HETATM   13  C7  UNL     1     -29.461  88.708  -9.715  1.00  0.00     0.028 A
HETATM   14  C8  UNL     1     -30.718  88.317 -10.380  1.00  0.00     0.028 A
ENDBRANCH   7  12
TORSDOF 2
ENDMDL