MODEL 2
REMARK VINA RESULT: -4.926994441      0.921      1.312
REMARK  2 active torsions:
REMARK  status: ('A' for Active; 'I' for Inactive)
REMARK    1  A    between atoms: C2_2  and  C3_3
REMARK    2  A    between atoms: C3_3  and  N1_4
ROOT
HETATM    1  N1  UNL     1     -29.095  86.623 -11.497  1.00  0.00     0.089 N
HETATM    2  C4  UNL     1     -29.991  87.468 -12.229  1.00  0.00     0.279 C
HETATM    3  C5  UNL     1     -29.915  88.846 -11.627  1.00  0.00     0.047 C
HETATM    4  C6  UNL     1     -31.314  89.391 -11.488  1.00  0.00     0.239 C
HETATM    5  N2  UNL     1     -31.879  88.791 -10.317  1.00  0.00    -0.074 N
ATOM      6  H21 UNL     1     -32.639  88.147 -10.533  1.00  0.00     0.277 HD
ATOM      7  H22 UNL     1     -32.413  89.453  -9.755  1.00  0.00     0.277 HD
HETATM    8  C7  UNL     1     -30.818  88.167  -9.579  1.00  0.00     0.239 C
HETATM    9  C8  UNL     1     -29.519  88.557 -10.217  1.00  0.00     0.047 C
HETATM   10  C9  UNL     1     -28.629  87.342 -10.349  1.00  0.00     0.279 C
ENDROOT
BRANCH   1  11
HETATM   11  C3  UNL     1     -28.057  86.087 -12.320  1.00  0.00     0.272 C
BRANCH  11  12
HETATM   12  C2  UNL     1     -28.283  86.489 -13.764  1.00  0.00     0.026 C
HETATM   13  C1  UNL     1     -26.986  87.097 -14.263  1.00  0.00     0.007 C
ENDBRANCH  11  12
ENDBRANCH   1  11
TORSDOF 2
ENDMDL