MODEL 3
REMARK VINA RESULT: -4.886828770      1.470      2.153
REMARK  2 active torsions:
REMARK  status: ('A' for Active; 'I' for Inactive)
REMARK    1  A    between atoms: C2_2  and  N1_4
REMARK    2  A    between atoms: N1_4  and  C5_6
ROOT
HETATM    1  C5  UNL     1     -29.031  88.092 -11.627  1.00  0.00     0.247 C
HETATM    2  C6  UNL     1     -28.634  87.366 -10.383  1.00  0.00     0.157 C
HETATM    3  N2  UNL     1     -29.809  87.210  -9.571  1.00  0.00    -0.378 N
ATOM      4  H2  UNL     1     -29.937  86.514  -8.836  1.00  0.00     0.160 HD
HETATM    5  C7  UNL     1     -30.755  88.182  -9.962  1.00  0.00     0.072 C
HETATM    6  N3  UNL     1     -31.788  88.561  -9.308  1.00  0.00    -0.389 N
ATOM      7  H31 UNL     1     -32.472  89.263  -9.590  1.00  0.00     0.157 HD
ATOM      8  H32 UNL     1     -32.069  88.200  -8.396  1.00  0.00     0.157 HD
HETATM    9  C8  UNL     1     -30.350  88.702 -11.278  1.00  0.00     0.113 C
ENDROOT
BRANCH   1  10
HETATM   10  N1  UNL     1     -29.080  87.277 -12.791  1.00  0.00     0.094 N
HETATM   11  C4  UNL     1     -29.269  85.880 -12.558  1.00  0.00     0.310 C
BRANCH  10  12
HETATM   12  C2  UNL     1     -28.051  87.472 -13.745  1.00  0.00     0.215 C
HETATM   13  C1  UNL     1     -26.885  86.541 -13.651  1.00  0.00     0.042 C
HETATM   14  C3  UNL     1     -28.537  87.459 -15.178  1.00  0.00     0.042 C
ENDBRANCH  10  12
ENDBRANCH   1  10
TORSDOF 2
ENDMDL