MODEL 2
REMARK VINA RESULT: -5.058250206      1.729      2.308
REMARK  2 active torsions:
REMARK  status: ('A' for Active; 'I' for Inactive)
REMARK    1  A    between atoms: N2_4  and  C2_6
REMARK    2  A    between atoms: C2_6  and  C3_7
ROOT
HETATM    1  C3  UNL     1     -29.199  87.100 -10.794  1.00  0.00     0.005 C
HETATM    2  C4  UNL     1     -29.690  86.813 -12.200  1.00  0.00     0.006 C
HETATM    3  C5  UNL     1     -29.252  85.485 -12.708  1.00  0.00     0.000 C
HETATM    4  C6  UNL     1     -28.321  84.727 -11.856  1.00  0.00     0.000 C
HETATM    5  C7  UNL     1     -27.391  85.497 -11.008  1.00  0.00     0.000 C
HETATM    6  C8  UNL     1     -27.692  86.944 -10.852  1.00  0.00     0.006 C
ENDROOT
BRANCH   1   7
HETATM    7  C2  UNL     1     -29.608  88.518 -10.437  1.00  0.00     0.143 C
BRANCH   7   8
HETATM    8  N2  UNL     1     -30.844  88.433  -9.729  1.00  0.00    -0.341 N
HETATM    9  N1  UNL     1     -31.890  88.919 -10.175  1.00  0.00    -0.345 N
HETATM   10  C1  UNL     1     -31.988  89.612 -11.427  1.00  0.00     0.167 C
ATOM     11  H1  UNL     1     -32.738  88.821  -9.616  1.00  0.00     0.179 HD
ATOM     12  H2  UNL     1     -30.866  87.956  -8.828  1.00  0.00     0.179 HD
ENDBRANCH   7   8
ENDBRANCH   1   7
TORSDOF 2
ENDMDL