MODEL 4
REMARK VINA RESULT: -5.194882469      2.012      2.890
REMARK  2 active torsions:
REMARK  status: ('A' for Active; 'I' for Inactive)
REMARK    1  A    between atoms: N1_2  and  C2_4
REMARK    2  A    between atoms: N2_7  and  N3_9
ROOT
HETATM    1  C2  UNL     1     -28.357  87.094 -10.812  1.00  0.00     0.082 C
HETATM    2  C3  UNL     1     -29.456  87.014  -9.798  1.00  0.00     0.079 C
HETATM    3  C4  UNL     1     -30.572  87.861 -10.290  1.00  0.00     0.011 C
HETATM    4  N2  UNL     1     -31.581  88.281  -9.651  1.00  0.00    -0.295 N
ATOM      5  H2  UNL     1     -32.229  88.854 -10.190  1.00  0.00     0.187 HD
HETATM    6  C5  UNL     1     -30.308  88.149 -11.727  1.00  0.00     0.031 C
HETATM    7  C6  UNL     1     -30.800  89.532 -12.115  1.00  0.00     0.016 C
HETATM    8  C7  UNL     1     -28.820  88.146 -11.805  1.00  0.00     0.035 C
ENDROOT
BRANCH   4   9
HETATM    9  N3  UNL     1     -31.928  88.079  -8.341  1.00  0.00    -0.249 N
HETATM   10  N4  UNL     1     -32.823  88.722  -7.718  1.00  0.00    -0.331 N
ATOM     11  H42 UNL     1     -33.313  89.444  -8.246  1.00  0.00     0.178 HD
ATOM     12  H41 UNL     1     -33.081  88.572  -6.743  1.00  0.00     0.178 HD
ATOM     13  H3  UNL     1     -31.427  87.353  -7.829  1.00  0.00     0.207 HD
ENDBRANCH   4   9
BRANCH   1  14
HETATM   14  N1  UNL     1     -28.112  85.896 -11.539  1.00  0.00    -0.421 N
HETATM   15  C1  UNL     1     -28.384  84.670 -10.875  1.00  0.00     0.140 C
ATOM     16  H1  UNL     1     -27.757  85.916 -12.494  1.00  0.00     0.153 HD
ENDBRANCH   1  14
TORSDOF 2
ENDMDL