MODEL 4
REMARK VINA RESULT: -5.962530865      1.831      3.388
REMARK  7 active torsions:
REMARK  status: ('A' for Active; 'I' for Inactive)
REMARK    1  A    between atoms: N1_2  and  C2_5
REMARK    2  A    between atoms: C2_5  and  C3_6
REMARK    3  A    between atoms: C3_6  and  C4_7
REMARK    4  A    between atoms: C4_7  and  C5_8
REMARK    5  A    between atoms: C5_8  and  N2_9
REMARK    6  A    between atoms: N2_9  and  C6_11
REMARK    7  A    between atoms: C8_15  and  N4_16
ROOT
HETATM    1  C6  UNL     1       6.472  -0.173   5.526  1.00  0.00     0.692 A
HETATM    2  N3  UNL     1       5.805   0.864   4.988  1.00  0.00    -0.197 N
ATOM      3  H3  UNL     1       6.318   1.550   4.436  1.00  0.00     0.183 HD
HETATM    4  C7  UNL     1       4.478   1.022   5.157  1.00  0.00     0.155 A
HETATM    5  C8  UNL     1       3.754   0.105   5.900  1.00  0.00     0.130 A
HETATM    6  N5  UNL     1       4.442  -0.923   6.428  1.00  0.00    -0.270 N
ATOM      7  H5  UNL     1       3.948  -1.622   6.983  1.00  0.00     0.189 HD
HETATM    8  N6  UNL     1       5.751  -1.049   6.242  1.00  0.00    -0.131 N
ATOM      9  H6  UNL     1       6.229  -1.847   6.662  1.00  0.00     0.205 HD
ENDROOT
BRANCH   1  10
HETATM   10  N2  UNL     1       7.739  -0.269   5.330  1.00  0.00    -0.225 N
ATOM     11  H2  UNL     1       8.143   0.211   4.526  1.00  0.00     0.177 HD
BRANCH  10  12
HETATM   12  C5  UNL     1       8.620  -1.026   6.194  1.00  0.00     0.138 C
BRANCH  12  13
HETATM   13  C4  UNL     1       8.670  -0.474   7.590  1.00  0.00     0.022 C
BRANCH  13  14
HETATM   14  C3  UNL     1       9.569   0.741   7.579  1.00  0.00     0.029 C
BRANCH  14  15
HETATM   15  C2  UNL     1      10.594   0.683   6.486  1.00  0.00     0.231 C
BRANCH  15  16
HETATM   16  N1  UNL     1      11.552   1.773   6.604  1.00  0.00    -0.079 N
HETATM   17  C1  UNL     1      11.168   2.559   7.773  1.00  0.00     0.266 C
ATOM     18  H12 UNL     1      11.629   2.332   5.755  1.00  0.00     0.276 HD
ATOM     19  H11 UNL     1      12.520   1.453   6.638  1.00  0.00     0.276 HD
ENDBRANCH  15  16
ENDBRANCH  14  15
ENDBRANCH  13  14
ENDBRANCH  12  13
ENDBRANCH  10  12
ENDBRANCH   1  10
BRANCH   5  20
HETATM   20  N4  UNL     1       2.472   0.219   6.087  1.00  0.00    -0.383 N
ATOM     21  H42 UNL     1       1.817   0.129   5.310  1.00  0.00     0.157 HD
ATOM     22  H41 UNL     1       2.070   0.402   7.007  1.00  0.00     0.157 HD
ENDBRANCH   5  20
TORSDOF 7
ENDMDL