MODEL 4
REMARK VINA RESULT: -5.956486576      0.660      1.752
REMARK  7 active torsions:
REMARK  status: ('A' for Active; 'I' for Inactive)
REMARK    1  A    between atoms: N1_1  and  C1_5
REMARK    2  A    between atoms: C1_5  and  C2_6
REMARK    3  A    between atoms: C2_6  and  N2_7
REMARK    4  A    between atoms: C2_6  and  C3_11
REMARK    5  A    between atoms: N2_7  and  N3_8
REMARK    6  A    between atoms: C6_14  and  N4_15
REMARK    7  A    between atoms: N4_15  and  C7_17
ROOT
HETATM    1  C3  UNL     1       9.590   0.540   6.237  1.00  0.00    -0.020 A
HETATM    2  C4  UNL     1       8.993   0.176   5.114  1.00  0.00     0.014 A
HETATM    3  C5  UNL     1       7.579  -0.257   5.138  1.00  0.00     0.049 A
HETATM    4  C6  UNL     1       6.911  -0.283   6.266  1.00  0.00     0.106 A
HETATM    5  N5  UNL     1       7.557   0.109   7.463  1.00  0.00    -0.352 N
ATOM      6  H5  UNL     1       7.038   0.089   8.341  1.00  0.00     0.166 HD
HETATM    7  C8  UNL     1       8.808   0.496   7.465  1.00  0.00     0.098 A
ENDROOT
BRANCH   1   8
HETATM    8  C2  UNL     1      10.977   0.963   6.204  1.00  0.00     0.158 C
BRANCH   8   9
HETATM    9  C1  UNL     1      11.959  -0.095   5.807  1.00  0.00     0.257 C
BRANCH   9  10
HETATM   10  N1  UNL     1      13.229   0.560   5.520  1.00  0.00    -0.077 N
ATOM     11  H13 UNL     1      13.299   0.881   4.555  1.00  0.00     0.274 HD
ATOM     12  H12 UNL     1      13.316   1.470   5.973  1.00  0.00     0.274 HD
ATOM     13  H11 UNL     1      13.977  -0.083   5.779  1.00  0.00     0.274 HD
ENDBRANCH   9  10
ENDBRANCH   8   9
BRANCH   8  14
HETATM   14  N2  UNL     1      11.397   1.451   7.526  1.00  0.00    -0.137 NA
BRANCH  14  15
HETATM   15  N3  UNL     1      11.395   2.828   7.592  1.00  0.00    -0.348 N
ATOM     16  H32 UNL     1      10.738   3.411   7.074  1.00  0.00     0.172 HD
ATOM     17  H31 UNL     1      12.123   3.181   8.213  1.00  0.00     0.172 HD
ENDBRANCH  14  15
ENDBRANCH   8  14
ENDBRANCH   1   8
BRANCH   4  18
HETATM   18  N4  UNL     1       5.548  -0.697   6.308  1.00  0.00    -0.320 N
ATOM     19  H4  UNL     1       5.304  -1.600   6.713  1.00  0.00     0.169 HD
BRANCH  18  20
HETATM   20  C7  UNL     1       4.538   0.135   5.793  1.00  0.00     0.354 C
HETATM   21  O1  UNL     1       4.599   1.390   5.810  1.00  0.00    -0.283 OA
ENDBRANCH  18  20
ENDBRANCH   4  18
TORSDOF 7
ENDMDL