MODEL 2
REMARK VINA RESULT: -5.754724700      1.506      6.335
REMARK  5 active torsions:
REMARK  status: ('A' for Active; 'I' for Inactive)
REMARK    1  A    between atoms: C3_3  and  N1_4
REMARK    2  A    between atoms: N1_4  and  C4_6
REMARK    3  A    between atoms: C4_6  and  C5_7
REMARK    4  A    between atoms: C5_7  and  N2_8
REMARK    5  A    between atoms: N2_8  and  C6_10
ROOT
HETATM    1  N1  UNL     1       2.683   0.219   6.099  1.00  0.00    -0.415 N
ATOM      2  H1  UNL     1       2.597   0.794   6.937  1.00  0.00     0.153 HD
ENDROOT
BRANCH   1   3
HETATM    3  C3  UNL     1       1.725  -0.809   5.772  1.00  0.00     0.079 C
HETATM    4  C2  UNL     1       1.407  -0.730   4.319  1.00  0.00     0.052 C
HETATM    5  C1  UNL     1       0.957  -2.052   3.760  1.00  0.00     0.234 C
HETATM    6  N4  UNL     1       2.115  -2.940   3.909  1.00  0.00    -0.075 N
HETATM    7  C10 UNL     1       2.178  -3.271   5.302  1.00  0.00     0.234 C
ATOM      8  H42 UNL     1       2.086  -3.756   3.296  1.00  0.00     0.277 HD
ATOM      9  H41 UNL     1       2.982  -2.545   3.544  1.00  0.00     0.277 HD
HETATM   10  C9  UNL     1       2.263  -2.128   6.229  1.00  0.00     0.052 C
ENDBRANCH   1   3
BRANCH   1  11
HETATM   11  C4  UNL     1       3.748   0.377   5.187  1.00  0.00     0.133 C
BRANCH  11  12
HETATM   12  C5  UNL     1       5.068   0.544   5.952  1.00  0.00     0.133 C
BRANCH  12  13
HETATM   13  N2  UNL     1       5.605  -0.681   6.355  1.00  0.00    -0.412 N
ATOM     14  H2  UNL     1       5.012  -1.378   6.806  1.00  0.00     0.153 HD
BRANCH  13  15
HETATM   15  C6  UNL     1       6.960  -0.948   6.136  1.00  0.00     0.127 C
HETATM   16  C7  UNL     1       7.894  -0.515   7.250  1.00  0.00     0.258 C
HETATM   17  N3  UNL     1       8.752   0.098   6.278  1.00  0.00    -0.071 N
HETATM   18  C8  UNL     1       7.723   0.027   5.279  1.00  0.00     0.258 C
ATOM     19  H32 UNL     1       9.186   0.997   6.488  1.00  0.00     0.277 HD
ATOM     20  H31 UNL     1       9.666  -0.312   6.086  1.00  0.00     0.277 HD
ENDBRANCH  13  15
ENDBRANCH  12  13
ENDBRANCH  11  12
ENDBRANCH   1  11
TORSDOF 5
ENDMDL