MODEL 5
REMARK VINA RESULT: -5.119317252      2.466      6.900
REMARK  7 active torsions:
REMARK  status: ('A' for Active; 'I' for Inactive)
REMARK    1  A    between atoms: C2_2  and  N1_3
REMARK    2  A    between atoms: C2_2  and  N2_7
REMARK    3  A    between atoms: N2_7  and  C3_9
REMARK    4  A    between atoms: C3_9  and  C4_10
REMARK    5  A    between atoms: C4_10  and  C5_11
REMARK    6  A    between atoms: C5_11  and  N3_12
REMARK    7  A    between atoms: C8_15  and  N4_16
ROOT
HETATM    1  C4  UNL     1       2.851   0.099   5.730  1.00  0.00     0.049 C
ENDROOT
BRANCH   1   2
HETATM    2  C3  UNL     1       4.302   0.487   5.745  1.00  0.00     0.117 C
BRANCH   2   3
HETATM    3  N2  UNL     1       5.171  -0.558   6.174  1.00  0.00    -0.396 N
ATOM      4  H2  UNL     1       4.823  -1.462   6.490  1.00  0.00     0.155 HD
BRANCH   3   5
HETATM    5  C2  UNL     1       6.582  -0.245   6.130  1.00  0.00     0.273 C
HETATM    6  C1  UNL     1       7.381  -1.395   6.713  1.00  0.00     0.062 C
BRANCH   5   7
HETATM    7  N1  UNL     1       6.940  -0.168   4.724  1.00  0.00    -0.059 N
ATOM      8  H13 UNL     1       6.353  -0.747   4.124  1.00  0.00     0.276 HD
ATOM      9  H12 UNL     1       6.711   0.730   4.298  1.00  0.00     0.276 HD
ATOM     10  H11 UNL     1       7.931  -0.402   4.667  1.00  0.00     0.276 HD
ENDBRANCH   5   7
ENDBRANCH   3   5
ENDBRANCH   2   3
ENDBRANCH   1   2
BRANCH   1  11
HETATM   11  C5  UNL     1       2.670  -1.401   5.845  1.00  0.00     0.274 C
BRANCH  11  12
HETATM   12  N3  UNL     1       1.638  -1.926   5.009  1.00  0.00     0.090 N
HETATM   13  C6  UNL     1       1.917  -3.188   4.434  1.00  0.00     0.274 C
HETATM   14  C7  UNL     1       0.562  -3.800   4.179  1.00  0.00     0.064 C
HETATM   15  C8  UNL     1      -0.237  -3.330   5.368  1.00  0.00     0.213 C
HETATM   16  C9  UNL     1       0.386  -1.974   5.644  1.00  0.00     0.305 C
BRANCH  15  17
HETATM   17  N4  UNL     1      -0.017  -4.246   6.460  1.00  0.00    -0.073 N
ATOM     18  H43 UNL     1       0.178  -3.767   7.339  1.00  0.00     0.274 HD
ATOM     19  H42 UNL     1      -0.871  -4.725   6.746  1.00  0.00     0.274 HD
ATOM     20  H41 UNL     1       0.724  -4.895   6.195  1.00  0.00     0.274 HD
ENDBRANCH  15  17
ENDBRANCH  11  12
ENDBRANCH   1  11
TORSDOF 7
ENDMDL