MODEL 1
REMARK VINA RESULT: -5.509115460      0.000      0.000
REMARK  7 active torsions:
REMARK  status: ('A' for Active; 'I' for Inactive)
REMARK    1  A    between atoms: N1_1  and  C1_5
REMARK    2  A    between atoms: C1_5  and  C2_6
REMARK    3  A    between atoms: C2_6  and  N2_7
REMARK    4  A    between atoms: N2_7  and  C3_10
REMARK    5  A    between atoms: N3_13  and  C6_14
REMARK    6  A    between atoms: C6_14  and  C7_15
REMARK    7  A    between atoms: C7_15  and  N4_16
ROOT
HETATM    1  C3  UNL     1       7.111   0.491   5.338  1.00  0.00     0.189 C
HETATM    2  C4  UNL     1       7.134   1.143   6.705  1.00  0.00     0.063 C
HETATM    3  C5  UNL     1       7.850   0.263   7.710  1.00  0.00     0.274 C
HETATM    4  N3  UNL     1       9.234   0.117   7.433  1.00  0.00     0.090 N
HETATM    5  C8  UNL     1       9.466   0.241   6.016  1.00  0.00     0.274 C
HETATM    6  C9  UNL     1       8.340  -0.389   5.240  1.00  0.00     0.063 C
ENDROOT
BRANCH   1   7
HETATM    7  N2  UNL     1       5.898  -0.303   5.270  1.00  0.00    -0.069 N
ATOM      8  H22 UNL     1       5.860  -0.974   6.038  1.00  0.00     0.277 HD
ATOM      9  H21 UNL     1       5.932  -0.951   4.483  1.00  0.00     0.277 HD
BRANCH   7  10
HETATM   10  C2  UNL     1       4.700   0.491   5.226  1.00  0.00     0.260 C
BRANCH  10  11
HETATM   11  C1  UNL     1       3.494  -0.286   5.707  1.00  0.00     0.257 C
BRANCH  11  12
HETATM   12  N1  UNL     1       2.601   0.562   6.484  1.00  0.00    -0.078 N
ATOM     13  H13 UNL     1       3.056   1.432   6.762  1.00  0.00     0.274 HD
ATOM     14  H12 UNL     1       1.857   0.954   5.906  1.00  0.00     0.274 HD
ATOM     15  H11 UNL     1       2.226   0.059   7.288  1.00  0.00     0.274 HD
ENDBRANCH  11  12
ENDBRANCH  10  11
ENDBRANCH   7  10
ENDBRANCH   1   7
BRANCH   4  16
HETATM   16  C6  UNL     1      10.070   0.938   8.246  1.00  0.00     0.299 C
BRANCH  16  17
HETATM   17  C7  UNL     1      10.752   2.000   7.424  1.00  0.00     0.259 C
BRANCH  17  18
HETATM   18  N4  UNL     1      10.865   3.220   8.214  1.00  0.00    -0.078 N
ATOM     19  H43 UNL     1      10.437   4.022   7.751  1.00  0.00     0.274 HD
ATOM     20  H42 UNL     1      10.272   3.199   9.044  1.00  0.00     0.274 HD
ATOM     21  H41 UNL     1      11.845   3.384   8.442  1.00  0.00     0.274 HD
ENDBRANCH  17  18
ENDBRANCH  16  17
ENDBRANCH   4  16
TORSDOF 7
ENDMDL