MODEL 1
REMARK VINA RESULT: -5.394621838      0.000      0.000
REMARK  7 active torsions:
REMARK  status: ('A' for Active; 'I' for Inactive)
REMARK    1  A    between atoms: N1_1  and  C1_5
REMARK    2  A    between atoms: C1_5  and  C2_6
REMARK    3  A    between atoms: C2_6  and  C3_7
REMARK    4  A    between atoms: C3_7  and  N2_8
REMARK    5  A    between atoms: C6_14  and  C7_15
REMARK    6  A    between atoms: C7_15  and  C8_16
REMARK    7  A    between atoms: C8_16  and  N4_17
ROOT
HETATM    1  N2  UNL     1       9.374  -0.312   6.063  1.00  0.00     0.092 N
HETATM    2  C4  UNL     1       8.762  -0.801   7.290  1.00  0.00     0.300 C
HETATM    3  C5  UNL     1       7.326  -1.160   7.032  1.00  0.00     0.262 C
HETATM    4  N3  UNL     1       6.641   0.106   6.881  1.00  0.00    -0.068 N
ATOM      5  H31 UNL     1       6.760   0.727   7.681  1.00  0.00     0.277 HD
ATOM      6  H32 UNL     1       5.626   0.024   6.933  1.00  0.00     0.277 HD
HETATM    7  C6  UNL     1       7.110   0.685   5.625  1.00  0.00     0.215 C
HETATM    8  C9  UNL     1       8.434   0.267   5.164  1.00  0.00     0.305 C
ENDROOT
BRANCH   1   9
HETATM    9  C3  UNL     1      10.486   0.565   6.373  1.00  0.00     0.274 C
BRANCH   9  10
HETATM   10  C2  UNL     1      10.235   1.328   7.640  1.00  0.00     0.057 C
BRANCH  10  11
HETATM   11  C1  UNL     1      11.278   2.466   7.673  1.00  0.00     0.231 C
BRANCH  11  12
HETATM   12  N1  UNL     1      10.704   3.544   8.436  1.00  0.00    -0.079 N
ATOM     13  H13 UNL     1       9.902   3.255   8.997  1.00  0.00     0.274 HD
ATOM     14  H12 UNL     1      11.298   3.850   9.206  1.00  0.00     0.274 HD
ATOM     15  H11 UNL     1      10.483   4.291   7.778  1.00  0.00     0.274 HD
ENDBRANCH  11  12
ENDBRANCH  10  11
ENDBRANCH   9  10
ENDBRANCH   1   9
BRANCH   7  16
HETATM   16  C7  UNL     1       6.013   0.346   4.625  1.00  0.00     0.062 C
BRANCH  16  17
HETATM   17  C8  UNL     1       4.636   0.656   5.086  1.00  0.00     0.231 C
BRANCH  17  18
HETATM   18  N4  UNL     1       3.690  -0.419   5.018  1.00  0.00    -0.079 N
ATOM     19  H43 UNL     1       4.073  -1.181   4.458  1.00  0.00     0.274 HD
ATOM     20  H42 UNL     1       3.622  -0.877   5.928  1.00  0.00     0.274 HD
ATOM     21  H41 UNL     1       2.758  -0.178   4.683  1.00  0.00     0.274 HD
ENDBRANCH  17  18
ENDBRANCH  16  17
ENDBRANCH   7  16
TORSDOF 7
ENDMDL