MODEL 2
REMARK VINA RESULT: -5.789786855      3.708      8.570
REMARK  5 active torsions:
REMARK  status: ('A' for Active; 'I' for Inactive)
REMARK    1  A    between atoms: C3_5  and  O1_6
REMARK    2  A    between atoms: O1_6  and  C4_7
REMARK    3  A    between atoms: C4_7  and  C5_8
REMARK    4  A    between atoms: C5_8  and  N2_9
REMARK    5  A    between atoms: N2_9  and  C6_12
ROOT
HETATM    1  C1  UNL     1       0.895  -1.920   2.330  1.00  0.00     0.064 C
HETATM    2  C2  UNL     1       1.203  -2.111   3.608  1.00  0.00     0.114 A
HETATM    3  N1  UNL     1       2.297  -1.456   4.228  1.00  0.00    -0.308 N
ATOM      4  H1  UNL     1       2.886  -0.811   3.700  1.00  0.00     0.171 HD
HETATM    5  C3  UNL     1       2.531  -1.693   5.470  1.00  0.00     0.239 A
HETATM    6  N3  UNL     1       1.748  -2.585   6.271  1.00  0.00    -0.155 N
ATOM      7  H3  UNL     1       1.990  -2.727   7.252  1.00  0.00     0.188 HD
HETATM    8  C8  UNL     1       0.637  -3.275   5.712  1.00  0.00     0.680 A
HETATM    9  N4  UNL     1      -0.083  -4.084   6.416  1.00  0.00    -0.234 N
ATOM     10  H41 UNL     1      -0.879  -4.580   6.015  1.00  0.00     0.174 HD
ATOM     11  H42 UNL     1       0.104  -4.272   7.401  1.00  0.00     0.174 HD
HETATM   12  N5  UNL     1       0.377  -3.015   4.340  1.00  0.00    -0.178 N
ATOM     13  H5  UNL     1      -0.405  -3.478   3.876  1.00  0.00     0.185 HD
ENDROOT
BRANCH   5  14
HETATM   14  O1  UNL     1       3.631  -1.004   6.005  1.00  0.00    -0.320 OA
BRANCH  14  15
HETATM   15  C4  UNL     1       3.803   0.392   5.839  1.00  0.00     0.206 C
BRANCH  15  16
HETATM   16  C5  UNL     1       5.226   0.629   5.447  1.00  0.00     0.259 C
BRANCH  16  17
HETATM   17  N2  UNL     1       6.096   0.947   6.518  1.00  0.00    -0.073 N
ATOM     18  H22 UNL     1       6.226   1.957   6.582  1.00  0.00     0.277 HD
ATOM     19  H21 UNL     1       5.638   0.772   7.412  1.00  0.00     0.277 HD
BRANCH  17  20
HETATM   20  C6  UNL     1       7.373   0.281   6.471  1.00  0.00     0.228 C
HETATM   21  C7  UNL     1       7.263  -1.210   6.507  1.00  0.00     0.034 C
ENDBRANCH  17  20
ENDBRANCH  16  17
ENDBRANCH  15  16
ENDBRANCH  14  15
ENDBRANCH   5  14
TORSDOF 5
ENDMDL