MODEL 5
REMARK VINA RESULT: -5.888216837      1.595      6.797
REMARK  7 active torsions:
REMARK  status: ('A' for Active; 'I' for Inactive)
REMARK    1  A    between atoms: N1_2  and  C2_5
REMARK    2  A    between atoms: C2_5  and  C3_6
REMARK    3  A    between atoms: C3_6  and  N2_7
REMARK    4  A    between atoms: N2_7  and  C4_9
REMARK    5  A    between atoms: C5_12  and  C6_13
REMARK    6  A    between atoms: C6_13  and  C7_14
REMARK    7  A    between atoms: C7_14  and  N4_15
ROOT
HETATM    1  C4  UNL     1       3.099  -0.627   5.886  1.00  0.00     0.694 A
HETATM    2  N3  UNL     1       2.376  -1.737   5.896  1.00  0.00    -0.178 N
ATOM      3  H3  UNL     1       2.736  -2.660   6.142  1.00  0.00     0.185 HD
HETATM    4  C5  UNL     1       1.103  -1.487   5.539  1.00  0.00     0.114 A
HETATM    5  N5  UNL     1       1.036  -0.150   5.294  1.00  0.00    -0.274 N
ATOM      6  H5  UNL     1       0.209   0.371   5.001  1.00  0.00     0.189 HD
HETATM    7  N6  UNL     1       2.251   0.350   5.509  1.00  0.00    -0.131 N
ATOM      8  H6  UNL     1       2.503   1.333   5.404  1.00  0.00     0.205 HD
ENDROOT
BRANCH   1   9
HETATM    9  N2  UNL     1       4.355  -0.441   6.167  1.00  0.00    -0.223 N
ATOM     10  H2  UNL     1       4.853  -1.167   6.682  1.00  0.00     0.177 HD
BRANCH   9  11
HETATM   11  C3  UNL     1       5.070   0.739   5.782  1.00  0.00     0.165 C
BRANCH  11  12
HETATM   12  C2  UNL     1       6.547   0.690   5.961  1.00  0.00     0.252 C
BRANCH  12  13
HETATM   13  N1  UNL     1       7.009   1.057   7.278  1.00  0.00    -0.077 N
HETATM   14  C1  UNL     1       8.310   0.546   7.603  1.00  0.00     0.267 C
ATOM     15  H12 UNL     1       6.330   0.781   7.987  1.00  0.00     0.276 HD
ATOM     16  H11 UNL     1       6.982   2.069   7.399  1.00  0.00     0.276 HD
ENDBRANCH  12  13
ENDBRANCH  11  12
ENDBRANCH   9  11
ENDBRANCH   1   9
BRANCH   4  17
HETATM   17  C6  UNL     1      -0.046  -2.438   5.418  1.00  0.00     0.105 C
BRANCH  17  18
HETATM   18  C7  UNL     1       0.423  -3.863   5.400  1.00  0.00     0.237 C
BRANCH  18  19
HETATM   19  N4  UNL     1       0.003  -4.646   6.517  1.00  0.00    -0.079 N
ATOM     20  H43 UNL     1      -0.066  -4.064   7.351  1.00  0.00     0.274 HD
ATOM     21  H42 UNL     1      -0.974  -4.919   6.410  1.00  0.00     0.274 HD
ATOM     22  H41 UNL     1       0.580  -5.466   6.706  1.00  0.00     0.274 HD
ENDBRANCH  18  19
ENDBRANCH  17  18
ENDBRANCH   4  17
TORSDOF 7
ENDMDL