MODEL 1
REMARK VINA RESULT: -4.690313777      0.000      0.000
REMARK  8 active torsions:
REMARK  status: ('A' for Active; 'I' for Inactive)
REMARK    1  A    between atoms: N1_1  and  C1_5
REMARK    2  A    between atoms: C1_5  and  C2_6
REMARK    3  A    between atoms: C2_6  and  C3_7
REMARK    4  A    between atoms: C3_7  and  C4_8
REMARK    5  A    between atoms: C4_8  and  N2_9
REMARK    6  A    between atoms: C6_11  and  N3_12
REMARK    7  A    between atoms: C8_17  and  C9_18
REMARK    8  A    between atoms: C9_18  and  N4_19
ROOT
HETATM    1  N2  UNL     1      10.178   0.418   6.913  1.00  0.00     0.096 N
HETATM    2  C5  UNL     1       9.697   1.597   7.605  1.00  0.00     0.305 C
HETATM    3  C6  UNL     1      10.772   2.648   7.433  1.00  0.00     0.213 C
HETATM    4  C7  UNL     1      12.039   1.818   7.399  1.00  0.00     0.072 C
HETATM    5  C8  UNL     1      11.567   0.560   6.660  1.00  0.00     0.250 C
ENDROOT
BRANCH   1   6
HETATM    6  C4  UNL     1       9.357   0.093   5.777  1.00  0.00     0.273 C
BRANCH   6   7
HETATM    7  C3  UNL     1       8.703  -1.225   5.994  1.00  0.00     0.032 C
BRANCH   7   8
HETATM    8  C2  UNL     1       7.336  -1.204   6.589  1.00  0.00     0.029 C
BRANCH   8   9
HETATM    9  C1  UNL     1       6.362  -0.222   6.054  1.00  0.00     0.229 C
BRANCH   9  10
HETATM   10  N1  UNL     1       4.981  -0.605   6.129  1.00  0.00    -0.079 N
ATOM     11  H13 UNL     1       4.892  -1.484   6.638  1.00  0.00     0.274 HD
ATOM     12  H12 UNL     1       4.481   0.022   6.758  1.00  0.00     0.274 HD
ATOM     13  H11 UNL     1       4.488  -0.669   5.238  1.00  0.00     0.274 HD
ENDBRANCH   9  10
ENDBRANCH   8   9
ENDBRANCH   7   8
ENDBRANCH   6   7
ENDBRANCH   1   6
BRANCH   5  14
HETATM   14  C9  UNL     1      11.971   0.727   5.235  1.00  0.00     0.265 C
BRANCH  14  15
HETATM   15  N4  UNL     1      13.408   0.456   5.164  1.00  0.00    -0.077 N
ATOM     16  H43 UNL     1      13.970   1.299   5.040  1.00  0.00     0.274 HD
ATOM     17  H42 UNL     1      13.806   0.166   6.057  1.00  0.00     0.274 HD
ATOM     18  H41 UNL     1      13.546  -0.231   4.423  1.00  0.00     0.274 HD
ENDBRANCH  14  15
ENDBRANCH   5  14
BRANCH   3  19
HETATM   19  N3  UNL     1      10.791   3.594   8.530  1.00  0.00    -0.073 N
ATOM     20  H33 UNL     1      10.470   3.162   9.396  1.00  0.00     0.274 HD
ATOM     21  H32 UNL     1      11.747   3.819   8.807  1.00  0.00     0.274 HD
ATOM     22  H31 UNL     1      10.259   4.438   8.318  1.00  0.00     0.274 HD
ENDBRANCH   3  19
TORSDOF 8
ENDMDL