MODEL 4
REMARK VINA RESULT: -5.444710768      9.937     11.345
REMARK  2 active torsions:
REMARK  status: ('A' for Active; 'I' for Inactive)
REMARK    1  A    between atoms: N2_5  and  O1_6
REMARK    2  A    between atoms: C2_8  and  C3_9
ROOT
HETATM    1  N1  UNL     1      13.128  42.431  29.015  1.00  0.00    -0.233 N
ATOM      2  H11 UNL     1      13.187  43.430  29.211  1.00  0.00     0.174 HD
ATOM      3  H12 UNL     1      12.384  42.287  28.332  1.00  0.00     0.174 HD
HETATM    4  C1  UNL     1      13.885  41.509  29.558  1.00  0.00     0.697 C
HETATM    5  N2  UNL     1      13.803  40.114  29.284  1.00  0.00    -0.077 N
HETATM    6  C2  UNL     1      14.566  39.453  30.294  1.00  0.00     0.215 C
HETATM    7  C5  UNL     1      15.635  40.469  30.633  1.00  0.00     0.134 C
HETATM    8  C6  UNL     1      16.154  40.180  31.990  1.00  0.00     0.028 C
HETATM    9  C7  UNL     1      16.425  41.368  32.843  1.00  0.00     0.004 C
HETATM   10  C8  UNL     1      15.298  42.397  32.755  1.00  0.00     0.020 C
HETATM   11  C9  UNL     1      15.320  42.870  31.295  1.00  0.00     0.142 C
HETATM   12  N5  UNL     1      14.922  41.709  30.511  1.00  0.00    -0.209 N
ENDROOT
BRANCH   6  13
HETATM   13  C3  UNL     1      15.157  38.211  29.698  1.00  0.00     0.097 A
HETATM   14  N3  UNL     1      14.715  36.963  29.748  1.00  0.00    -0.294 N
HETATM   15  N4  UNL     1      15.353  36.031  29.180  1.00  0.00    -0.284 N
ATOM     16  H3  UNL     1      13.852  36.752  30.249  1.00  0.00     0.187 HD
HETATM   17  C4  UNL     1      16.482  36.326  28.525  1.00  0.00     0.159 A
ATOM     18  H4  UNL     1      15.012  35.071  29.220  1.00  0.00     0.188 HD
HETATM   19  S1  UNL     1      17.476  35.291  27.715  1.00  0.00    -0.051 SA
HETATM   20  S2  UNL     1      16.587  38.017  28.768  1.00  0.00    -0.042 SA
ENDBRANCH   6  13
BRANCH   5  21
HETATM   21  O1  UNL     1      13.115  39.563  28.243  1.00  0.00    -0.273 OA
ATOM     22  H1  UNL     1      13.331  38.736  27.826  1.00  0.00     0.245 HD
ENDBRANCH   5  21
TORSDOF 2
ENDMDL