MODEL 3
REMARK VINA RESULT: -5.598007642      2.572      3.580
REMARK  8 active torsions:
REMARK  status: ('A' for Active; 'I' for Inactive)
REMARK    1  A    between atoms: C3_3  and  C4_4
REMARK    2  A    between atoms: C4_4  and  C5_5
REMARK    3  A    between atoms: C5_5  and  N1_6
REMARK    4  A    between atoms: N1_6  and  O1_8
REMARK    5  A    between atoms: C6_10  and  N2_11
REMARK    6  A    between atoms: N4_18  and  C8_19
REMARK    7  A    between atoms: C8_19  and  O2_20
REMARK    8  A    between atoms: C8_19  and  C9_22
ROOT
HETATM    1  C1  UNL     1      20.379  44.191  37.915  1.00  0.00     0.070 C
HETATM    2  C2  UNL     1      21.148  43.131  38.566  1.00  0.00     0.032 A
HETATM    3  C3  UNL     1      21.245  43.164  39.955  1.00  0.00     0.039 A
HETATM    4  C6  UNL     1      21.942  42.212  40.640  1.00  0.00     0.114 A
HETATM    5  N3  UNL     1      22.515  41.265  39.911  1.00  0.00    -0.318 N
ATOM      6  H3  UNL     1      23.047  40.531  40.379  1.00  0.00     0.170 HD
HETATM    7  C7  UNL     1      22.411  41.245  38.539  1.00  0.00     0.186 A
HETATM    8  S1  UNL     1      23.202  39.985  37.878  1.00  0.00    -0.040 SA
HETATM    9  N4  UNL     1      21.749  42.140  37.815  1.00  0.00    -0.275 N
ENDROOT
BRANCH   9  10
HETATM   10  C8  UNL     1      21.645  42.124  36.424  1.00  0.00     0.132 C
BRANCH  10  11
HETATM   11  O2  UNL     1      22.687  42.728  35.841  1.00  0.00    -0.348 OA
ATOM     12  H2  UNL     1      23.462  42.178  35.845  1.00  0.00     0.219 HD
ENDBRANCH  10  11
BRANCH  10  13
HETATM   13  C9  UNL     1      20.747  41.651  35.410  1.00  0.00     0.014 C
HETATM   14  C10 UNL     1      21.401  42.188  34.041  1.00  0.00     0.023 C
HETATM   15  C11 UNL     1      20.772  40.162  35.174  1.00  0.00     0.023 C
HETATM   16  C12 UNL     1      19.349  42.177  35.383  1.00  0.00     0.023 C
ENDBRANCH  10  13
ENDBRANCH   9  10
BRANCH   3  17
HETATM   17  C4  UNL     1      20.606  44.214  40.730  1.00  0.00     0.093 C
BRANCH  17  18
HETATM   18  C5  UNL     1      21.398  45.068  41.331  1.00  0.00    -0.019 C
BRANCH  18  19
HETATM   19  N1  UNL     1      22.140  45.701  42.174  1.00  0.00    -0.233 N
ATOM     20  H1  UNL     1      22.371  46.683  42.021  1.00  0.00     0.204 HD
BRANCH  19  21
HETATM   21  O1  UNL     1      22.614  45.044  43.268  1.00  0.00    -0.282 OA
ATOM     22  H1  UNL     1      23.494  44.686  43.251  1.00  0.00     0.245 HD
ENDBRANCH  19  21
ENDBRANCH  18  19
ENDBRANCH  17  18
ENDBRANCH   3  17
BRANCH   4  23
HETATM   23  N2  UNL     1      22.033  42.242  41.943  1.00  0.00    -0.385 N
ATOM     24  H22 UNL     1      21.247  42.500  42.539  1.00  0.00     0.157 HD
ATOM     25  H21 UNL     1      22.904  42.007  42.419  1.00  0.00     0.157 HD
ENDBRANCH   4  23
TORSDOF 8
ENDMDL