MODEL 3
REMARK VINA RESULT: -4.357096304      2.484      2.989
REMARK  2 active torsions:
REMARK  status: ('A' for Active; 'I' for Inactive)
REMARK    1  A    between atoms: C1_2  and  C2_4
REMARK    2  A    between atoms: C7_12  and  C8_13
ROOT
HETATM    1  C2  UNL     1      19.125  40.503  33.664  1.00  0.00     0.247 C
HETATM    2  N1  UNL     1      17.742  40.758  33.905  1.00  0.00    -0.367 N
ATOM      3  H1  UNL     1      17.390  40.601  34.850  1.00  0.00     0.161 HD
HETATM    4  C3  UNL     1      16.793  41.226  32.903  1.00  0.00     0.044 A
HETATM    5  C4  UNL     1      15.860  42.215  33.143  1.00  0.00     0.079 A
HETATM    6  S1  UNL     1      15.024  42.375  31.655  1.00  0.00    -0.111 SA
HETATM    7  C5  UNL     1      15.871  41.194  30.773  1.00  0.00     0.060 A
HETATM    8  C6  UNL     1      16.783  40.705  31.661  1.00  0.00    -0.005 A
HETATM    9  C7  UNL     1      17.791  39.601  31.356  1.00  0.00     0.136 C
HETATM   10  S3  UNL     1      19.390  40.310  31.886  1.00  0.00    -0.117 SA
ENDROOT
BRANCH   9  11
HETATM   11  C8  UNL     1      17.802  39.237  29.947  1.00  0.00     0.042 A
HETATM   12  C9  UNL     1      18.470  39.787  28.846  1.00  0.00     0.095 A
HETATM   13  S2  UNL     1      17.814  38.669  27.762  1.00  0.00    -0.025 SA
HETATM   14  N2  UNL     1      17.171  38.252  29.251  1.00  0.00    -0.328 N
ATOM     15  H2  UNL     1      16.527  37.515  29.537  1.00  0.00     0.174 HD
ENDBRANCH   9  11
BRANCH   1  16
HETATM   16  C1  UNL     1      19.994  41.559  34.213  1.00  0.00     0.207 C
HETATM   17  O1  UNL     1      19.858  42.003  35.372  1.00  0.00    -0.646 OA
HETATM   18  O2  UNL     1      20.997  42.062  33.380  1.00  0.00    -0.646 OA
ENDBRANCH   1  16
TORSDOF 2
ENDMDL