MODEL 1
REMARK VINA RESULT: -6.398277973      0.000      0.000
REMARK  2 active torsions:
REMARK  status: ('A' for Active; 'I' for Inactive)
REMARK    1  A    between atoms: C5_7  and  N2_8
REMARK    2  A    between atoms: N2_8  and  C6_10
ROOT
HETATM    1  C1  UNL     1      17.964  40.462  33.190  1.00  0.00     0.056 C
HETATM    2  C2  UNL     1      19.115  40.978  34.035  1.00  0.00    -0.018 A
HETATM    3  C3  UNL     1      19.129  41.099  35.385  1.00  0.00     0.045 A
HETATM    4  C4  UNL     1      20.280  41.592  35.979  1.00  0.00     0.059 A
HETATM    5  N1  UNL     1      20.600  41.822  37.259  1.00  0.00    -0.335 N
ATOM      6  H1  UNL     1      19.928  41.628  38.002  1.00  0.00     0.168 HD
HETATM    7  C5  UNL     1      21.796  42.303  37.546  1.00  0.00     0.148 A
HETATM    8  S1  UNL     1      22.560  42.467  36.041  1.00  0.00    -0.045 SA
HETATM    9  C11 UNL     1      21.269  41.893  35.077  1.00  0.00     0.076 A
HETATM   10  S2  UNL     1      20.643  41.520  33.528  1.00  0.00    -0.085 SA
ENDROOT
BRANCH   7  11
HETATM   11  N2  UNL     1      22.252  42.578  38.757  1.00  0.00    -0.342 N
ATOM     12  H2  UNL     1      22.915  43.331  38.938  1.00  0.00     0.164 HD
BRANCH  11  13
HETATM   13  C6  UNL     1      21.733  41.725  39.808  1.00  0.00     0.249 C
HETATM   14  C7  UNL     1      22.511  41.922  41.092  1.00  0.00     0.084 C
HETATM   15  C8  UNL     1      21.401  41.905  42.116  1.00  0.00     0.054 C
HETATM   16  C9  UNL     1      21.567  43.068  43.074  1.00  0.00     0.036 C
HETATM   17  C10 UNL     1      21.390  40.575  42.880  1.00  0.00     0.036 C
HETATM   18  N3  UNL     1      20.188  41.966  41.369  1.00  0.00    -0.089 NA
HETATM   19  O1  UNL     1      20.438  42.148  40.080  1.00  0.00    -0.260 OA
ENDBRANCH  11  13
ENDBRANCH   7  11
TORSDOF 2
ENDMDL