MODEL 1
REMARK VINA RESULT: -5.727473285      0.000      0.000
REMARK  2 active torsions:
REMARK  status: ('A' for Active; 'I' for Inactive)
REMARK    1  A    between atoms: C4_6  and  N2_7
REMARK    2  A    between atoms: N3_10  and  C5_11
ROOT
HETATM    1  C1  UNL     1      21.140  42.651  44.373  1.00  0.00     0.089 C
HETATM    2  C2  UNL     1      21.483  42.294  42.958  1.00  0.00     0.079 A
HETATM    3  N1  UNL     1      21.132  42.976  41.849  1.00  0.00    -0.340 N
ATOM      4  H1  UNL     1      20.582  43.834  41.821  1.00  0.00     0.167 HD
HETATM    5  C3  UNL     1      21.636  42.323  40.786  1.00  0.00     0.122 A
HETATM    6  C4  UNL     1      21.599  42.552  39.406  1.00  0.00     0.135 A
HETATM    7  N3  UNL     1      22.186  41.748  38.527  1.00  0.00    -0.303 N
HETATM    8  C11 UNL     1      22.849  40.662  38.997  1.00  0.00     0.181 A
HETATM    9  S1  UNL     1      23.592  39.633  37.996  1.00  0.00    -0.040 SA
HETATM   10  N4  UNL     1      22.912  40.399  40.327  1.00  0.00    -0.317 N
ATOM     11  H4  UNL     1      23.416  39.576  40.656  1.00  0.00     0.170 HD
HETATM   12  C12 UNL     1      22.316  41.215  41.216  1.00  0.00     0.140 A
HETATM   13  N5  UNL     1      22.198  41.232  42.569  1.00  0.00    -0.330 N
ATOM     14  H5  UNL     1      22.597  40.536  43.199  1.00  0.00     0.168 HD
ENDROOT
BRANCH   7  15
HETATM   15  C5  UNL     1      22.146  41.978  37.147  1.00  0.00     0.094 C
HETATM   16  C6  UNL     1      22.622  43.253  36.580  1.00  0.00     0.026 C
HETATM   17  C7  UNL     1      22.915  42.964  35.087  1.00  0.00     0.002 C
HETATM   18  C8  UNL     1      21.544  42.770  34.457  1.00  0.00     0.000 C
HETATM   19  C9  UNL     1      20.835  41.610  35.070  1.00  0.00     0.002 C
HETATM   20  C10 UNL     1      20.736  41.744  36.583  1.00  0.00     0.026 C
ENDBRANCH   7  15
BRANCH   6  21
HETATM   21  N2  UNL     1      20.974  43.573  38.996  1.00  0.00    -0.383 N
ATOM     22  H22 UNL     1      20.256  43.993  39.587  1.00  0.00     0.157 HD
ATOM     23  H21 UNL     1      21.218  43.941  38.077  1.00  0.00     0.157 HD
ENDBRANCH   6  21
TORSDOF 2
ENDMDL