MODEL 5
REMARK VINA RESULT: -5.065856046      2.521      3.001
REMARK  1 active torsions:
REMARK  status: ('A' for Active; 'I' for Inactive)
REMARK    1  A    between atoms: C11_16  and  N3_17
ROOT
HETATM    1  C1  UNL     1      15.377  43.066  30.906  1.00  0.00     0.017 C
HETATM    2  C2  UNL     1      15.300  41.861  30.800  1.00  0.00    -0.088 C
HETATM    3  C3  UNL     1      15.211  40.479  30.679  1.00  0.00     0.085 C
HETATM    4  C4  UNL     1      15.258  39.911  29.454  1.00  0.00     0.043 C
HETATM    5  S1  UNL     1      15.451  41.092  28.097  1.00  0.00    -0.079 SA
HETATM    6  C5  UNL     1      16.969  40.561  27.277  1.00  0.00     0.061 A
HETATM    7  C6  UNL     1      17.464  39.446  26.723  1.00  0.00     0.025 A
HETATM    8  C7  UNL     1      16.981  38.065  26.511  1.00  0.00     0.168 C
HETATM    9  N1  UNL     1      16.645  37.337  27.699  1.00  0.00    -0.382 N
ATOM     10  H1  UNL     1      17.236  36.510  27.787  1.00  0.00     0.160 HD
HETATM   11  C8  UNL     1      15.737  37.416  28.794  1.00  0.00     0.080 A
HETATM   12  C9  UNL     1      15.435  36.107  29.114  1.00  0.00     0.051 A
HETATM   13  C10 UNL     1      16.084  34.982  28.397  1.00  0.00     0.071 C
HETATM   14  N2  UNL     1      14.544  35.964  30.112  1.00  0.00    -0.194 N
ATOM     15  H2  UNL     1      14.293  35.013  30.384  1.00  0.00     0.184 HD
HETATM   16  C11 UNL     1      13.964  36.962  30.770  1.00  0.00     0.676 A
HETATM   17  N4  UNL     1      14.262  38.244  30.453  1.00  0.00    -0.188 N
ATOM     18  H4  UNL     1      13.820  39.015  30.955  1.00  0.00     0.184 HD
HETATM   19  C12 UNL     1      15.145  38.490  29.473  1.00  0.00     0.095 A
HETATM   20  S2  UNL     1      18.614  40.847  26.650  1.00  0.00    -0.083 SA
ENDROOT
BRANCH  16  21
HETATM   21  N3  UNL     1      13.119  36.788  31.714  1.00  0.00    -0.234 N
ATOM     22  H32 UNL     1      13.471  36.351  32.565  1.00  0.00     0.174 HD
ATOM     23  H31 UNL     1      12.138  37.058  31.648  1.00  0.00     0.174 HD
ENDBRANCH  16  21
TORSDOF 1
ENDMDL