MODEL 1
REMARK VINA RESULT: -6.942416401      0.000      0.000
REMARK  2 active torsions:
REMARK  status: ('A' for Active; 'I' for Inactive)
REMARK    1  A    between atoms: N1_1  and  C1_4
REMARK    2  A    between atoms: C2_7  and  C3_8
ROOT
HETATM    1  C1  UNL     1      20.318  44.443  38.799  1.00  0.00     0.677 A
HETATM    2  N2  UNL     1      20.824  43.902  39.889  1.00  0.00    -0.194 N
ATOM      3  H2  UNL     1      20.602  44.358  40.773  1.00  0.00     0.184 HD
HETATM    4  C2  UNL     1      21.600  42.813  39.949  1.00  0.00     0.046 A
HETATM    5  C9  UNL     1      21.933  42.153  38.740  1.00  0.00     0.053 A
HETATM    6  C10 UNL     1      21.409  42.715  37.617  1.00  0.00     0.107 A
HETATM    7  N3  UNL     1      20.616  43.839  37.637  1.00  0.00    -0.185 N
ATOM      8  H3  UNL     1      20.252  44.216  36.763  1.00  0.00     0.185 HD
HETATM    9  S1  UNL     1      21.989  41.694  36.369  1.00  0.00    -0.049 SA
HETATM   10  C11 UNL     1      22.878  40.583  37.304  1.00  0.00     0.121 A
HETATM   11  N4  UNL     1      23.669  39.459  37.314  1.00  0.00    -0.277 N
ATOM     12  H4  UNL     1      23.965  38.909  36.508  1.00  0.00     0.189 HD
HETATM   13  N5  UNL     1      23.967  39.236  38.577  1.00  0.00    -0.241 N
ATOM     14  H5  UNL     1      24.547  38.464  38.906  1.00  0.00     0.208 HD
HETATM   15  N6  UNL     1      23.417  40.141  39.355  1.00  0.00    -0.283 N
ATOM     16  H6  UNL     1      23.502  40.179  40.371  1.00  0.00     0.188 HD
HETATM   17  C12 UNL     1      22.701  41.036  38.574  1.00  0.00     0.099 A
ENDROOT
BRANCH   4  18
HETATM   18  C3  UNL     1      22.090  42.353  41.265  1.00  0.00     0.037 C
HETATM   19  C4  UNL     1      20.928  41.741  42.015  1.00  0.00     0.011 C
HETATM   20  C5  UNL     1      21.303  41.308  43.412  1.00  0.00     0.001 C
HETATM   21  C6  UNL     1      21.641  42.544  44.201  1.00  0.00     0.000 C
HETATM   22  C7  UNL     1      21.666  43.759  43.320  1.00  0.00     0.001 C
HETATM   23  C8  UNL     1      22.584  43.493  42.130  1.00  0.00     0.011 C
ENDBRANCH   4  18
BRANCH   1  24
HETATM   24  N1  UNL     1      19.584  45.484  38.799  1.00  0.00    -0.234 N
ATOM     25  H12 UNL     1      19.223  45.848  39.682  1.00  0.00     0.174 HD
ATOM     26  H11 UNL     1      19.320  45.993  37.955  1.00  0.00     0.174 HD
ENDBRANCH   1  24
TORSDOF 2
ENDMDL