MODEL 5
REMARK VINA RESULT: -5.558018580      2.375      3.348
REMARK  2 active torsions:
REMARK  status: ('A' for Active; 'I' for Inactive)
REMARK    1  A    between atoms: C3_3  and  C4_4
REMARK    2  A    between atoms: C12_20  and  O1_21
ROOT
HETATM    1  C1  UNL     1      20.239  44.287  39.041  1.00  0.00     0.071 C
HETATM    2  C2  UNL     1      21.224  43.190  38.802  1.00  0.00     0.056 A
HETATM    3  C3  UNL     1      22.107  42.616  39.721  1.00  0.00     0.056 A
HETATM    4  N2  UNL     1      22.688  41.626  39.037  1.00  0.00    -0.192 N
ATOM      5  H2  UNL     1      23.391  40.994  39.420  1.00  0.00     0.184 HD
HETATM    6  C10 UNL     1      22.223  41.574  37.772  1.00  0.00     0.691 A
HETATM    7  N3  UNL     1      22.362  40.879  36.633  1.00  0.00    -0.197 N
ATOM      8  H3  UNL     1      23.000  40.097  36.486  1.00  0.00     0.183 HD
HETATM    9  C11 UNL     1      21.524  41.386  35.721  1.00  0.00     0.163 A
HETATM   10  C12 UNL     1      20.880  42.417  36.350  1.00  0.00     0.179 A
HETATM   11  N4  UNL     1      21.300  42.550  37.621  1.00  0.00    -0.127 N
ENDROOT
BRANCH   3  12
HETATM   12  C4  UNL     1      22.402  43.174  41.044  1.00  0.00     0.062 C
HETATM   13  C5  UNL     1      21.790  44.548  41.200  1.00  0.00     0.092 C
HETATM   14  S1  UNL     1      22.030  44.721  43.042  1.00  0.00    -0.116 SA
HETATM   15  C6  UNL     1      21.693  42.961  43.378  1.00  0.00     0.049 C
HETATM   16  N1  UNL     1      21.515  42.380  44.490  1.00  0.00    -0.396 N
HETATM   17  C7  UNL     1      21.604  42.337  42.048  1.00  0.00     0.011 C
ATOM     18  H12 UNL     1      21.576  42.813  45.412  1.00  0.00     0.156 HD
ATOM     19  H11 UNL     1      21.326  41.396  44.679  1.00  0.00     0.156 HD
HETATM   20  C8  UNL     1      20.140  42.249  41.698  1.00  0.00     0.023 C
HETATM   21  C9  UNL     1      22.168  40.963  42.107  1.00  0.00     0.023 C
ENDBRANCH   3  12
BRANCH  10  22
HETATM   22  O1  UNL     1      19.894  43.241  35.771  1.00  0.00    -0.344 OA
ATOM     23  H1  UNL     1      19.765  44.163  35.961  1.00  0.00     0.219 HD
ENDBRANCH  10  22
TORSDOF 2
ENDMDL