MODEL 4
REMARK VINA RESULT: -5.454796490      0.881      3.424
REMARK  1 active torsions:
REMARK  status: ('A' for Active; 'I' for Inactive)
REMARK    1  A    between atoms: C6_8  and  C7_9
ROOT
HETATM    1  C7  UNL     1      15.952  40.554  29.829  1.00  0.00    -0.019 C
HETATM    2  C8  UNL     1      16.963  41.177  28.970  1.00  0.00     0.181 C
HETATM    3  C9  UNL     1      17.095  42.598  29.021  1.00  0.00     0.075 C
HETATM    4  N2  UNL     1      17.218  43.727  29.034  1.00  0.00    -0.196 NA
HETATM    5  C10 UNL     1      16.921  40.675  27.574  1.00  0.00     0.068 C
HETATM    6  N3  UNL     1      17.856  40.800  26.769  1.00  0.00    -0.395 N
ATOM      7  H31 UNL     1      17.828  40.455  25.809  1.00  0.00     0.156 HD
ATOM      8  H32 UNL     1      18.717  41.290  27.011  1.00  0.00     0.156 HD
HETATM    9  S1  UNL     1      15.418  39.820  27.150  1.00  0.00    -0.061 SA
HETATM   10  C11 UNL     1      15.402  38.525  28.444  1.00  0.00     0.068 C
HETATM   11  N4  UNL     1      15.168  37.344  28.199  1.00  0.00    -0.395 N
ATOM     12  H41 UNL     1      15.159  36.623  28.920  1.00  0.00     0.156 HD
ATOM     13  H42 UNL     1      14.955  36.966  27.276  1.00  0.00     0.156 HD
HETATM   14  C12 UNL     1      15.720  39.091  29.822  1.00  0.00     0.181 C
HETATM   15  C13 UNL     1      14.420  38.826  30.563  1.00  0.00     0.075 C
HETATM   16  N5  UNL     1      13.440  38.634  31.148  1.00  0.00    -0.196 NA
ENDROOT
BRANCH   1  17
HETATM   17  C6  UNL     1      15.601  41.242  31.096  1.00  0.00    -0.001 A
HETATM   18  C2  UNL     1      14.577  42.172  31.269  1.00  0.00    -0.034 A
HETATM   19  C1  UNL     1      13.515  42.525  30.321  1.00  0.00     0.050 C
HETATM   20  C3  UNL     1      14.735  42.676  32.537  1.00  0.00     0.095 A
HETATM   21  N1  UNL     1      15.763  42.137  33.155  1.00  0.00    -0.368 N
HETATM   22  C4  UNL     1      16.327  41.244  32.293  1.00  0.00     0.016 A
ATOM     23  H1  UNL     1      16.079  42.349  34.101  1.00  0.00     0.165 HD
HETATM   24  C5  UNL     1      17.593  40.531  32.607  1.00  0.00     0.069 C
ENDBRANCH   1  17
TORSDOF 1
ENDMDL