MODEL 3
REMARK VINA RESULT: -5.871597817      1.975      3.168
REMARK  2 active torsions:
REMARK  status: ('A' for Active; 'I' for Inactive)
REMARK    1  A    between atoms: C4_7  and  C5_8
REMARK    2  A    between atoms: C12_15  and  O1_16
ROOT
HETATM    1  N1  UNL     1      24.025  44.385  32.237  1.00  0.00    -0.191 NA
HETATM    2  C1  UNL     1      23.433  43.991  33.151  1.00  0.00     0.104 C
HETATM    3  C2  UNL     1      22.711  43.446  34.310  1.00  0.00     0.101 A
HETATM    4  C3  UNL     1      21.741  42.481  34.110  1.00  0.00     0.110 A
HETATM    5  N2  UNL     1      21.207  41.987  32.857  1.00  0.00    -0.093 NA
HETATM    6  S1  UNL     1      21.296  42.071  35.720  1.00  0.00    -0.076 SA
HETATM    7  C4  UNL     1      22.323  43.121  36.579  1.00  0.00     0.017 A
HETATM    8  C13 UNL     1      22.996  43.776  35.572  1.00  0.00     0.083 A
HETATM    9  N3  UNL     1      24.030  44.748  35.940  1.00  0.00    -0.100 NA
ENDROOT
BRANCH   7  10
HETATM   10  C5  UNL     1      22.367  43.410  38.071  1.00  0.00     0.056 C
HETATM   11  C6  UNL     1      23.015  42.255  38.751  1.00  0.00     0.012 C
HETATM   12  C7  UNL     1      22.273  41.249  39.485  1.00  0.00     0.001 C
HETATM   13  C8  UNL     1      22.170  41.468  40.971  1.00  0.00     0.000 C
HETATM   14  C9  UNL     1      22.476  42.853  41.430  1.00  0.00     0.000 C
HETATM   15  C10 UNL     1      21.711  43.959  40.772  1.00  0.00     0.002 C
HETATM   16  C11 UNL     1      20.605  43.548  39.894  1.00  0.00     0.032 C
HETATM   17  C12 UNL     1      20.887  43.466  38.433  1.00  0.00     0.127 C
BRANCH  17  18
HETATM   18  O1  UNL     1      20.322  44.484  37.685  1.00  0.00    -0.395 OA
ATOM     19  H1  UNL     1      20.821  45.272  37.860  1.00  0.00     0.210 HD
ENDBRANCH  17  18
ENDBRANCH   7  10
TORSDOF 2
ENDMDL