MODEL 1
REMARK VINA RESULT: -6.264759159      0.000      0.000
REMARK  3 active torsions:
REMARK  status: ('A' for Active; 'I' for Inactive)
REMARK    1  A    between atoms: O1_1  and  C1_3
REMARK    2  A    between atoms: C2_6  and  N2_7
REMARK    3  A    between atoms: C7_13  and  C8_14
ROOT
HETATM    1  C1  UNL     1       0.687   1.301  -6.814  1.00  0.00     0.155 A
HETATM    2  N1  UNL     1       0.400   1.394  -5.556  1.00  0.00    -0.317 N
ATOM      3  H1  UNL     1       0.883   2.082  -4.978  1.00  0.00     0.170 HD
HETATM    4  C2  UNL     1      -0.508   0.610  -5.015  1.00  0.00     0.149 A
HETATM    5  S1  UNL     1      -0.998  -0.335  -6.387  1.00  0.00    -0.054 SA
HETATM    6  C7  UNL     1       0.038   0.371  -7.587  1.00  0.00     0.042 A
ENDROOT
BRANCH   6   7
HETATM    7  C8  UNL     1       0.003   0.155  -9.031  1.00  0.00     0.041 C
HETATM    8  C9  UNL     1       1.344  -0.137  -9.671  1.00  0.00     0.012 C
HETATM    9  C10 UNL     1       0.791  -0.412 -11.111  1.00  0.00     0.024 C
HETATM   10  C11 UNL     1      -0.322  -1.418 -10.793  1.00  0.00     0.109 C
HETATM   11  N3  UNL     1       0.274  -2.714 -10.911  1.00  0.00    -0.136 NA
HETATM   12  C13 UNL     1      -0.611  -1.264  -9.305  1.00  0.00     0.055 C
HETATM   13  N4  UNL     1       0.712  -3.137  -9.669  1.00  0.00    -0.318 N
HETATM   14  C12 UNL     1       0.221  -2.337  -8.747  1.00  0.00     0.083 C
ATOM     15  H4  UNL     1       1.318  -3.939  -9.495  1.00  0.00     0.181 HD
ENDBRANCH   6   7
BRANCH   1  16
HETATM   16  O1  UNL     1       1.682   2.140  -7.434  1.00  0.00    -0.345 OA
ATOM     17  H1  UNL     1       2.159   1.866  -8.209  1.00  0.00     0.219 HD
ENDBRANCH   1  16
BRANCH   4  18
HETATM   18  N2  UNL     1      -1.014   0.556  -3.677  1.00  0.00    -0.361 N
HETATM   19  C3  UNL     1      -0.233   0.085  -2.552  1.00  0.00     0.125 C
HETATM   20  C4  UNL     1      -0.530   1.147  -1.513  1.00  0.00     0.021 C
HETATM   21  C5  UNL     1      -1.910   1.684  -1.885  1.00  0.00     0.021 C
HETATM   22  C6  UNL     1      -2.290   0.883  -3.113  1.00  0.00     0.125 C
ENDBRANCH   4  18
TORSDOF 3
ENDMDL