MODEL 5
REMARK VINA RESULT: -5.683677792      4.000      6.857
REMARK  3 active torsions:
REMARK  status: ('A' for Active; 'I' for Inactive)
REMARK    1  A    between atoms: N1_1  and  C1_4
REMARK    2  A    between atoms: C3_9  and  C4_10
REMARK    3  A    between atoms: C6_12  and  O1_13
ROOT
HETATM    1  C1  UNL     1       0.101   0.105 -11.538  1.00  0.00     0.143 A
HETATM    2  N2  UNL     1       0.400  -0.788 -10.594  1.00  0.00    -0.330 N
ATOM      3  H2  UNL     1       0.649  -1.748 -10.834  1.00  0.00     0.168 HD
HETATM    4  C2  UNL     1       0.362  -0.385  -9.335  1.00  0.00     0.093 A
HETATM    5  S1  UNL     1       0.636  -1.059  -7.763  1.00  0.00    -0.074 SA
HETATM    6  C3  UNL     1       0.308   0.334  -6.803  1.00  0.00    -0.000 A
HETATM    7  C9  UNL     1      -0.002   1.268  -7.753  1.00  0.00     0.037 A
HETATM    8  C10 UNL     1       0.035   0.867  -9.040  1.00  0.00     0.043 A
HETATM    9  S3  UNL     1      -0.231   1.509 -10.615  1.00  0.00    -0.052 SA
ENDROOT
BRANCH   6  10
HETATM   10  C4  UNL     1       0.355   0.474  -5.304  1.00  0.00     0.089 C
HETATM   11  C5  UNL     1      -0.997   0.861  -4.800  1.00  0.00     0.052 C
HETATM   12  C6  UNL     1      -1.296   0.274  -3.435  1.00  0.00     0.120 C
HETATM   13  C7  UNL     1      -0.110   0.348  -2.517  1.00  0.00     0.042 C
HETATM   14  C8  UNL     1       0.864  -0.795  -2.728  1.00  0.00     0.077 C
HETATM   15  S2  UNL     1       0.948  -1.060  -4.540  1.00  0.00    -0.159 SA
BRANCH  12  16
HETATM   16  O1  UNL     1      -2.341   1.036  -2.891  1.00  0.00    -0.396 OA
ATOM     17  H1  UNL     1      -1.939   1.674  -2.313  1.00  0.00     0.210 HD
ENDBRANCH  12  16
ENDBRANCH   6  10
BRANCH   1  18
HETATM   18  N1  UNL     1       0.067  -0.037 -12.843  1.00  0.00    -0.380 N
ATOM     19  H12 UNL     1       0.737  -0.516 -13.445  1.00  0.00     0.158 HD
ATOM     20  H11 UNL     1      -0.625   0.295 -13.514  1.00  0.00     0.158 HD
ENDBRANCH   1  18
TORSDOF 3
ENDMDL