MODEL 5
REMARK VINA RESULT: -6.779019787      3.082      5.912
REMARK  3 active torsions:
REMARK  status: ('A' for Active; 'I' for Inactive)
REMARK    1  A    between atoms: N1_1  and  C1_4
REMARK    2  A    between atoms: C4_7  and  N2_8
REMARK    3  A    between atoms: N3_10  and  C5_12
ROOT
HETATM    1  N2  UNL     1      -0.908   0.767  -5.719  1.00  0.00    -0.301 N
ATOM      2  H2  UNL     1      -1.761   1.135  -5.298  1.00  0.00     0.186 HD
HETATM    3  N3  UNL     1      -0.743   1.032  -6.916  1.00  0.00    -0.331 N
ATOM      4  H3  UNL     1      -1.478   1.590  -7.351  1.00  0.00     0.180 HD
ENDROOT
BRANCH   1   5
HETATM    5  C4  UNL     1      -0.083   0.032  -4.869  1.00  0.00     0.089 A
HETATM    6  C3  UNL     1       0.990   0.644  -4.264  1.00  0.00     0.038 A
HETATM    7  C2  UNL     1       1.838  -0.042  -3.414  1.00  0.00     0.050 A
HETATM    8  C1  UNL     1       1.597  -1.363  -3.172  1.00  0.00     0.100 A
HETATM    9  N5  UNL     1       0.540  -1.969  -3.768  1.00  0.00    -0.329 N
HETATM   10  C12 UNL     1      -0.292  -1.306  -4.599  1.00  0.00     0.146 A
ATOM     11  H5  UNL     1       0.368  -2.956  -3.581  1.00  0.00     0.168 HD
HETATM   12  N4  UNL     1      -1.370  -2.032  -5.171  1.00  0.00    -0.080 NA
BRANCH   8  13
HETATM   13  N1  UNL     1       2.399  -1.985  -2.377  1.00  0.00    -0.385 N
ATOM     14  H12 UNL     1       2.502  -1.736  -1.393  1.00  0.00     0.157 HD
ATOM     15  H11 UNL     1       2.947  -2.756  -2.759  1.00  0.00     0.157 HD
ENDBRANCH   8  13
ENDBRANCH   1   5
BRANCH   3  16
HETATM   16  C5  UNL     1       0.335   0.661  -7.764  1.00  0.00     0.105 C
HETATM   17  C6  UNL     1       1.044   1.913  -8.213  1.00  0.00     0.027 C
HETATM   18  C7  UNL     1       0.318   2.619  -9.333  1.00  0.00     0.003 C
HETATM   19  C8  UNL     1      -0.002   1.709 -10.479  1.00  0.00     0.015 C
HETATM   20  C9  UNL     1      -0.653   0.437 -10.065  1.00  0.00     0.054 C
HETATM   21  S1  UNL     1      -0.039  -0.941 -11.108  1.00  0.00    -0.163 SA
HETATM   22  C11 UNL     1      -0.055  -0.241  -8.894  1.00  0.00     0.033 C
HETATM   23  C10 UNL     1       1.088  -0.790  -9.669  1.00  0.00     0.082 C
ENDBRANCH   3  16
TORSDOF 3
ENDMDL