MODEL 3
REMARK VINA RESULT: -6.173013945      1.365      3.106
REMARK  5 active torsions:
REMARK  status: ('A' for Active; 'I' for Inactive)
REMARK    1  A    between atoms: O1_2  and  C2_3
REMARK       I    between atoms: C2_3  and  N1_5
REMARK    2  A    between atoms: N1_5  and  C3_7
REMARK    3  A    between atoms: C5_10  and  C6_11
REMARK    4  A    between atoms: N3_14  and  C9_15
REMARK    5  A    between atoms: C13_19  and  O3_20
ROOT
HETATM    1  C3  UNL     1       0.084   0.051  -4.705  1.00  0.00     0.115 A
HETATM    2  C4  UNL     1      -0.578  -0.886  -5.476  1.00  0.00     0.104 A
HETATM    3  N2  UNL     1      -1.360  -1.949  -4.939  1.00  0.00    -0.097 NA
HETATM    4  C5  UNL     1      -0.393  -0.585  -6.834  1.00  0.00     0.065 A
HETATM    5  N3  UNL     1       0.354   0.499  -6.906  1.00  0.00    -0.315 N
HETATM    6  C13 UNL     1       0.657   0.902  -5.622  1.00  0.00     0.173 A
ENDROOT
BRANCH   1   7
HETATM    7  N1  UNL     1       0.070   0.036  -3.286  1.00  0.00    -0.297 N
HETATM    8  C2  UNL     1      -0.740   0.717  -2.389  1.00  0.00     0.364 C
HETATM    9  O2  UNL     1      -1.643   1.520  -2.643  1.00  0.00    -0.238 OA
ATOM     10  H1  UNL     1       0.768  -0.573  -2.858  1.00  0.00     0.171 HD
BRANCH   8  11
HETATM   11  O1  UNL     1      -0.524   0.474  -1.018  1.00  0.00    -0.309 OA
HETATM   12  C1  UNL     1      -0.767   1.489  -0.077  1.00  0.00     0.215 C
ENDBRANCH   8  11
ENDBRANCH   1   7
BRANCH   6  13
HETATM   13  O3  UNL     1       1.423   2.004  -5.284  1.00  0.00    -0.344 OA
ATOM     14  H3  UNL     1       2.122   2.352  -5.824  1.00  0.00     0.219 HD
ENDBRANCH   6  13
BRANCH   4  15
HETATM   15  C6  UNL     1      -0.888  -1.553  -7.825  1.00  0.00    -0.059 C
HETATM   16  C7  UNL     1       0.129  -2.226  -8.695  1.00  0.00     0.045 C
HETATM   17  C8  UNL     1      -2.115  -1.131  -8.583  1.00  0.00     0.045 C
ENDBRANCH   4  15
BRANCH   5  18
HETATM   18  C9  UNL     1       0.864   1.108  -8.124  1.00  0.00     0.029 C
HETATM   19  C10 UNL     1       1.949   0.158  -8.715  1.00  0.00     0.038 C
HETATM   20  C11 UNL     1      -0.158   1.515  -9.138  1.00  0.00     0.038 C
HETATM   21  C12 UNL     1       1.673   2.385  -7.837  1.00  0.00     0.038 C
ENDBRANCH   5  18
TORSDOF 5
ENDMDL