MODEL 1
REMARK VINA RESULT: -5.859644405      0.000      0.000
REMARK  1 active torsions:
REMARK  status: ('A' for Active; 'I' for Inactive)
REMARK    1  A    between atoms: C7_17  and  C8_18
ROOT
HETATM    1  N1  UNL     1       1.570   1.886  -8.704  1.00  0.00    -0.388 N
ATOM      2  H11 UNL     1       1.426   1.835  -9.713  1.00  0.00     0.157 HD
ATOM      3  H12 UNL     1       2.387   2.395  -8.366  1.00  0.00     0.157 HD
HETATM    4  C1  UNL     1       0.760   1.331  -7.883  1.00  0.00     0.085 C
HETATM    5  N2  UNL     1       0.962   1.402  -6.480  1.00  0.00    -0.331 N
ATOM      6  H2  UNL     1       1.548   2.138  -6.085  1.00  0.00     0.168 HD
HETATM    7  C2  UNL     1       0.348   0.451  -5.632  1.00  0.00     0.116 A
HETATM    8  N3  UNL     1       0.545   0.527  -4.281  1.00  0.00    -0.319 N
ATOM      9  H3  UNL     1       1.134   1.267  -3.900  1.00  0.00     0.170 HD
HETATM   10  C3  UNL     1      -0.026  -0.358  -3.449  1.00  0.00     0.177 A
HETATM   11  S1  UNL     1       0.240  -0.224  -1.843  1.00  0.00    -0.040 SA
HETATM   12  N4  UNL     1      -0.795  -1.320  -3.977  1.00  0.00    -0.342 N
ATOM     13  H4  UNL     1      -1.224  -1.989  -3.336  1.00  0.00     0.167 HD
HETATM   14  C4  UNL     1      -1.037  -1.466  -5.271  1.00  0.00     0.101 A
HETATM   15  C5  UNL     1      -0.437  -0.536  -6.142  1.00  0.00     0.003 A
HETATM   16  C6  UNL     1      -0.675  -0.658  -7.586  1.00  0.00     0.061 C
HETATM   17  C7  UNL     1      -0.436   0.584  -8.379  1.00  0.00     0.099 C
ENDROOT
BRANCH  17  18
HETATM   18  C8  UNL     1      -0.218   0.265  -9.824  1.00  0.00     0.011 A
HETATM   19  C9  UNL     1       0.144  -0.919 -10.412  1.00  0.00     0.103 A
HETATM   20  N5  UNL     1       0.272  -0.944 -11.695  1.00  0.00    -0.368 N
HETATM   21  C10 UNL     1       0.056   0.154 -12.407  1.00  0.00     0.138 A
ATOM     22  H5  UNL     1       0.540  -1.810 -12.163  1.00  0.00     0.165 HD
HETATM   23  S2  UNL     1      -0.351   1.285 -11.188  1.00  0.00    -0.087 SA
ENDBRANCH  17  18
TORSDOF 1
ENDMDL