MODEL 3
REMARK VINA RESULT: -6.619838160      1.920      3.787
REMARK  3 active torsions:
REMARK  status: ('A' for Active; 'I' for Inactive)
REMARK    1  A    between atoms: C10_12  and  O3_13
REMARK    2  A    between atoms: O3_13  and  O4_14
REMARK    3  A    between atoms: C14_19  and  O5_20
ROOT
HETATM    1  C1  UNL     1       0.918  -1.473  -6.181  1.00  0.00     0.021 C
HETATM    2  C2  UNL     1      -0.268  -0.718  -6.503  1.00  0.00     0.018 C
HETATM    3  C3  UNL     1      -1.367  -1.641  -6.868  1.00  0.00     0.015 C
HETATM    4  C4  UNL     1      -1.398  -2.175  -8.237  1.00  0.00     0.001 C
HETATM    5  C5  UNL     1      -0.220  -2.510  -9.039  1.00  0.00     0.000 C
HETATM    6  C6  UNL     1      -0.175  -1.904 -10.450  1.00  0.00     0.000 C
HETATM    7  C7  UNL     1       0.356  -0.586 -10.689  1.00  0.00     0.003 C
HETATM    8  C8  UNL     1       1.241   0.200  -9.792  1.00  0.00     0.038 C
HETATM    9  C9  UNL     1       0.707   1.590  -9.444  1.00  0.00     0.189 C
HETATM   10  O1  UNL     1      -0.692   1.407  -9.394  1.00  0.00    -0.230 OA
HETATM   11  O2  UNL     1      -0.844   0.420  -8.615  1.00  0.00    -0.196 OA
HETATM   12  C10 UNL     1      -0.452   0.434  -7.379  1.00  0.00     0.242 C
HETATM   13  C11 UNL     1       0.808   1.178  -7.003  1.00  0.00     0.086 C
HETATM   14  C12 UNL     1       0.376   1.412  -5.621  1.00  0.00     0.014 C
HETATM   15  C13 UNL     1      -0.460   0.141  -5.234  1.00  0.00     0.015 C
HETATM   16  C14 UNL     1       1.078   2.100  -8.057  1.00  0.00     0.159 C
ENDROOT
BRANCH  12  17
HETATM   17  O3  UNL     1      -1.568   1.187  -6.852  1.00  0.00    -0.199 OA
BRANCH  17  18
HETATM   18  O4  UNL     1      -2.425   1.511  -7.729  1.00  0.00    -0.247 OA
ATOM     19  H4  UNL     1      -2.333   2.403  -8.044  1.00  0.00     0.253 HD
ENDBRANCH  17  18
ENDBRANCH  12  17
BRANCH  16  20
HETATM   20  O5  UNL     1       2.463   2.404  -8.151  1.00  0.00    -0.392 OA
ATOM     21  H5  UNL     1       2.835   1.668  -8.622  1.00  0.00     0.210 HD
ENDBRANCH  16  20
TORSDOF 3
ENDMDL