MODEL 4
REMARK VINA RESULT: -5.370611308      2.520      5.240
REMARK  2 active torsions:
REMARK  status: ('A' for Active; 'I' for Inactive)
REMARK    1  A    between atoms: N2_3  and  C2_5
REMARK    2  A    between atoms: C10_15  and  C11_16
ROOT
HETATM    1  N1  UNL     1       1.651   2.382  -8.285  1.00  0.00    -0.171 NA
HETATM    2  C1  UNL     1       1.602   2.508  -7.125  1.00  0.00     0.196 C
HETATM    3  N2  UNL     1       1.542   2.663  -5.749  1.00  0.00    -0.126 N
ATOM      4  H2  UNL     1       2.003   3.450  -5.294  1.00  0.00     0.197 HD
ENDROOT
BRANCH   3   5
HETATM    5  C2  UNL     1       0.825   1.705  -4.986  1.00  0.00     0.684 C
HETATM    6  N3  UNL     1       1.066   0.483  -5.156  1.00  0.00    -0.211 N
HETATM    7  C3  UNL     1       0.465  -0.662  -4.496  1.00  0.00     0.176 C
ATOM      8  H3  UNL     1       1.781   0.267  -5.851  1.00  0.00     0.179 HD
HETATM    9  C4  UNL     1       1.296  -1.675  -3.961  1.00  0.00    -0.156 C
HETATM   10  C9  UNL     1      -0.472  -0.224  -3.332  1.00  0.00     0.070 C
HETATM   11  C5  UNL     1       2.115  -2.554  -3.227  1.00  0.00     0.086 C
HETATM   12  C6  UNL     1       1.630  -2.467  -1.738  1.00  0.00     0.038 C
HETATM   13  C7  UNL     1       1.115  -1.103  -1.405  1.00  0.00    -0.029 C
HETATM   14  C8  UNL     1       0.082  -0.352  -1.979  1.00  0.00    -0.021 C
HETATM   15  C10 UNL     1      -1.104   1.071  -3.658  1.00  0.00     0.150 C
HETATM   16  N4  UNL     1      -0.163   2.081  -4.032  1.00  0.00    -0.216 N
ATOM     17  H4  UNL     1      -0.198   3.021  -3.636  1.00  0.00     0.178 HD
BRANCH  15  18
HETATM   18  C11 UNL     1      -2.050   1.512  -2.593  1.00  0.00     0.006 A
HETATM   19  C12 UNL     1      -3.416   1.364  -2.604  1.00  0.00     0.017 A
HETATM   20  C13 UNL     1      -4.095   1.829  -1.552  1.00  0.00     0.008 A
HETATM   21  C14 UNL     1      -3.378   2.418  -0.545  1.00  0.00     0.050 A
HETATM   22  S1  UNL     1      -1.775   2.299  -1.109  1.00  0.00    -0.104 SA
ENDBRANCH  15  18
ENDBRANCH   3   5
TORSDOF 2
ENDMDL