MODEL 3
REMARK VINA RESULT: -6.453110987      1.324      1.855
REMARK  2 active torsions:
REMARK  status: ('A' for Active; 'I' for Inactive)
REMARK    1  A    between atoms: C6_7  and  N2_8
REMARK    2  A    between atoms: C7_9  and  N3_10
ROOT
HETATM    1  C1  UNL     1      -1.365   0.715  -9.179  1.00  0.00     0.311 C
HETATM    2  N1  UNL     1      -0.256  -0.076  -8.726  1.00  0.00     0.102 N
HETATM    3  C2  UNL     1       0.779   0.690  -8.149  1.00  0.00     0.155 C
HETATM    4  C3  UNL     1       0.819   2.093  -8.781  1.00  0.00     0.049 C
HETATM    5  C4  UNL     1       2.169   0.182  -8.323  1.00  0.00     0.049 C
HETATM    6  C5  UNL     1       0.427   0.960  -6.681  1.00  0.00     0.067 C
HETATM    7  C6  UNL     1       0.406  -0.381  -5.996  1.00  0.00     0.115 C
HETATM    8  C9  UNL     1      -0.706  -1.195  -6.556  1.00  0.00     0.067 C
HETATM    9  C10 UNL     1      -0.710  -1.238  -8.065  1.00  0.00     0.155 C
HETATM   10  C11 UNL     1      -2.168  -1.487  -8.451  1.00  0.00     0.049 C
HETATM   11  C12 UNL     1      -0.024  -2.517  -8.572  1.00  0.00     0.049 C
ENDROOT
BRANCH   7  12
HETATM   12  N2  UNL     1       0.400  -0.346  -4.573  1.00  0.00    -0.150 N
HETATM   13  C7  UNL     1      -0.393   0.285  -3.697  1.00  0.00     0.695 A
HETATM   14  N4  UNL     1      -0.019   0.023  -2.412  1.00  0.00    -0.130 N
HETATM   15  N5  UNL     1       1.017  -0.780  -2.490  1.00  0.00    -0.261 N
ATOM     16  H4  UNL     1      -0.456   0.378  -1.562  1.00  0.00     0.205 HD
HETATM   17  C8  UNL     1       1.281  -1.012  -3.762  1.00  0.00     0.208 A
ATOM     18  H5  UNL     1       1.533  -1.162  -1.697  1.00  0.00     0.190 HD
HETATM   19  S1  UNL     1       2.488  -1.960  -4.364  1.00  0.00    -0.038 SA
BRANCH  13  20
HETATM   20  N3  UNL     1      -1.380   1.042  -3.942  1.00  0.00    -0.233 N
ATOM     21  H32 UNL     1      -1.937   0.915  -4.787  1.00  0.00     0.174 HD
ATOM     22  H31 UNL     1      -1.730   1.819  -3.382  1.00  0.00     0.174 HD
ENDBRANCH  13  20
ENDBRANCH   7  12
TORSDOF 2
ENDMDL