MODEL 3
REMARK VINA RESULT: -5.870105619      1.059      1.152
REMARK  3 active torsions:
REMARK  status: ('A' for Active; 'I' for Inactive)
REMARK    1  A    between atoms: C3_4  and  C4_5
REMARK    2  A    between atoms: N1_10  and  O2_11
REMARK    3  A    between atoms: C12_18  and  O3_19
ROOT
HETATM    1  C1  UNL     1      -1.801   0.558  -8.525  1.00  0.00     0.040 C
HETATM    2  C2  UNL     1      -1.180  -0.813  -8.330  1.00  0.00     0.128 C
HETATM    3  O1  UNL     1      -0.692  -0.951  -7.063  1.00  0.00    -0.361 OA
HETATM    4  C3  UNL     1       0.126   0.093  -6.701  1.00  0.00     0.224 C
HETATM    5  N2  UNL     1       1.241   0.323  -7.556  1.00  0.00    -0.370 N
ATOM      6  H2  UNL     1       2.129   0.672  -7.193  1.00  0.00     0.158 HD
HETATM    7  C12 UNL     1       1.064   0.045  -8.938  1.00  0.00     0.221 C
HETATM    8  C13 UNL     1      -0.012  -0.915  -9.287  1.00  0.00     0.059 C
HETATM    9  C14 UNL     1      -0.522  -0.578 -10.672  1.00  0.00     0.017 C
ENDROOT
BRANCH   4  10
HETATM   10  C4  UNL     1       0.612   0.008  -5.288  1.00  0.00     0.060 C
HETATM   11  C5  UNL     1       1.103  -1.381  -4.935  1.00  0.00     0.038 C
HETATM   12  C6  UNL     1       1.075  -1.275  -3.403  1.00  0.00     0.032 C
HETATM   13  C7  UNL     1       2.328  -0.620  -2.886  1.00  0.00     0.034 C
HETATM   14  C8  UNL     1       1.023  -2.693  -2.872  1.00  0.00     0.034 C
HETATM   15  N1  UNL     1      -0.109  -0.542  -3.165  1.00  0.00    -0.182 NA
HETATM   16  C9  UNL     1      -0.328   0.410  -4.235  1.00  0.00     0.040 C
HETATM   17  C10 UNL     1      -1.782   0.376  -4.576  1.00  0.00     0.035 C
HETATM   18  C11 UNL     1      -0.024   1.807  -3.694  1.00  0.00     0.035 C
BRANCH  15  19
HETATM   19  O2  UNL     1      -0.260  -0.036  -1.949  1.00  0.00    -0.312 OA
ATOM     20  H2  UNL     1      -0.867   0.689  -1.863  1.00  0.00     0.237 HD
ENDBRANCH  15  19
ENDBRANCH   4  10
BRANCH   7  21
HETATM   21  O3  UNL     1       2.282  -0.498  -9.415  1.00  0.00    -0.377 OA
ATOM     22  H3  UNL     1       2.223  -0.529 -10.363  1.00  0.00     0.212 HD
ENDBRANCH   7  21
TORSDOF 3
ENDMDL