MODEL 1
REMARK VINA RESULT: -6.120805455      0.000      0.000
REMARK  2 active torsions:
REMARK  status: ('A' for Active; 'I' for Inactive)
REMARK    1  A    between atoms: N1_1  and  C1_4
REMARK    2  A    between atoms: C2_7  and  C3_8
ROOT
HETATM    1  C3  UNL     1      -0.043   0.031  -8.071  1.00  0.00     0.057 A
HETATM    2  S1  UNL     1      -0.744  -1.290  -7.204  1.00  0.00    -0.090 SA
HETATM    3  C4  UNL     1      -0.294  -0.852  -5.627  1.00  0.00    -0.008 A
HETATM    4  C5  UNL     1       0.385   0.305  -5.814  1.00  0.00    -0.019 A
HETATM    5  C6  UNL     1       0.513   0.761  -7.096  1.00  0.00     0.073 A
HETATM    6  N3  UNL     1       1.231   1.999  -7.389  1.00  0.00    -0.100 NA
HETATM    7  C7  UNL     1       0.989   1.077  -4.652  1.00  0.00     0.042 C
HETATM    8  C8  UNL     1       0.114   0.954  -3.442  1.00  0.00     0.005 C
HETATM    9  C9  UNL     1       0.498  -0.248  -2.614  1.00  0.00     0.001 C
HETATM   10  C10 UNL     1       0.530  -1.515  -3.426  1.00  0.00     0.005 C
HETATM   11  C11 UNL     1      -0.621  -1.628  -4.385  1.00  0.00     0.046 C
ENDROOT
BRANCH   1  12
HETATM   12  C2  UNL     1      -0.090   0.239  -9.561  1.00  0.00     0.059 A
HETATM   13  N2  UNL     1      -0.639   1.331 -10.063  1.00  0.00    -0.335 N
HETATM   14  C1  UNL     1      -0.665   1.483 -11.375  1.00  0.00     0.142 A
ATOM     15  H2  UNL     1      -1.034   2.043  -9.449  1.00  0.00     0.168 HD
HETATM   16  S2  UNL     1       0.088   0.084 -11.961  1.00  0.00    -0.064 SA
HETATM   17  C12 UNL     1       0.416  -0.664 -10.447  1.00  0.00     0.084 A
BRANCH  14  18
HETATM   18  N1  UNL     1      -1.170   2.504 -12.045  1.00  0.00    -0.380 N
ATOM     19  H12 UNL     1      -1.218   3.488 -11.781  1.00  0.00     0.158 HD
ATOM     20  H11 UNL     1      -1.608   2.475 -12.965  1.00  0.00     0.158 HD
ENDBRANCH  14  18
ENDBRANCH   1  12
TORSDOF 2
ENDMDL