MODEL 2
REMARK VINA RESULT: -4.092170896      1.072      1.072
REMARK  4 active torsions:
REMARK  status: ('A' for Active; 'I' for Inactive)
REMARK    1  A    between atoms: C1_4  and  C2_5
REMARK    2  A    between atoms: C2_5  and  C3_6
REMARK    3  A    between atoms: C5_8  and  N2_9
REMARK    4  A    between atoms: N2_9  and  C6_11
ROOT
HETATM    1  C3  UNL     1      10.053  14.356   5.352  1.00  0.00     0.015 A
HETATM    2  C4  UNL     1       8.821  15.009   4.715  1.00  0.00     0.032 A
HETATM    3  C5  UNL     1       8.962  13.500   4.831  1.00  0.00     0.088 A
ENDROOT
BRANCH   1   4
HETATM    4  C2  UNL     1      10.175  14.661   6.827  1.00  0.00     0.050 C
BRANCH   4   5
HETATM    5  C1  UNL     1      11.513  15.093   7.229  1.00  0.00     0.053 C
HETATM    6  N1  UNL     1      11.836  15.055   8.462  1.00  0.00    -0.411 N
ATOM      7  H12 UNL     1      11.158  14.725   9.148  1.00  0.00     0.155 HD
ATOM      8  H11 UNL     1      12.769  15.356   8.743  1.00  0.00     0.155 HD
ENDBRANCH   4   5
ENDBRANCH   1   4
BRANCH   3   9
HETATM    9  N2  UNL     1       9.232  12.865   3.551  1.00  0.00    -0.363 N
ATOM     10  H2  UNL     1      10.094  13.077   3.049  1.00  0.00     0.162 HD
BRANCH   9  11
HETATM   11  C6  UNL     1       8.296  11.949   2.999  1.00  0.00     0.348 C
HETATM   12  O1  UNL     1       7.898  10.980   3.696  1.00  0.00    -0.284 OA
ENDBRANCH   9  11
ENDBRANCH   3   9
TORSDOF 4
ENDMDL