MODEL 4
REMARK VINA RESULT: -3.876260749      2.316      3.002
REMARK  4 active torsions:
REMARK  status: ('A' for Active; 'I' for Inactive)
REMARK    1  A    between atoms: N1_2  and  C2_5
REMARK    2  A    between atoms: C2_5  and  N2_6
REMARK    3  A    between atoms: N2_6  and  C3_9
REMARK    4  A    between atoms: C3_9  and  C4_10
ROOT
HETATM    1  N2  UNL     1      14.402  15.678   7.166  1.00  0.00    -0.051 N
ATOM      2  H21 UNL     1      14.326  15.439   8.154  1.00  0.00     0.279 HD
ATOM      3  H22 UNL     1      14.829  14.817   6.826  1.00  0.00     0.279 HD
ENDROOT
BRANCH   1   4
HETATM    4  C2  UNL     1      15.268  16.809   6.963  1.00  0.00     0.462 C
BRANCH   4   5
HETATM    5  N1  UNL     1      15.485  17.657   8.075  1.00  0.00    -0.055 N
HETATM    6  C1  UNL     1      16.952  17.851   8.177  1.00  0.00     0.269 C
ATOM      7  H12 UNL     1      15.063  17.309   8.936  1.00  0.00     0.278 HD
ATOM      8  H11 UNL     1      14.964  18.533   8.023  1.00  0.00     0.278 HD
ENDBRANCH   4   5
ENDBRANCH   1   4
BRANCH   1   9
HETATM    9  C3  UNL     1      13.150  15.884   6.595  1.00  0.00     0.239 C
BRANCH   9  10
HETATM   10  C4  UNL     1      12.080  14.867   6.714  1.00  0.00     0.015 A
HETATM   11  C5  UNL     1      11.209  15.018   7.925  1.00  0.00     0.011 A
HETATM   12  C6  UNL     1      10.640  14.992   6.557  1.00  0.00    -0.013 A
HETATM   13  C7  UNL     1       9.916  13.693   6.185  1.00  0.00     0.010 C
ENDBRANCH   9  10
ENDBRANCH   1   9
TORSDOF 4
ENDMDL