MODEL 4
REMARK VINA RESULT: -3.831209397      0.810      1.073
REMARK  4 active torsions:
REMARK  status: ('A' for Active; 'I' for Inactive)
REMARK    1  A    between atoms: C2_2  and  C3_3
REMARK    2  A    between atoms: C3_3  and  N1_4
REMARK    3  A    between atoms: C4_6  and  N2_7
REMARK    4  A    between atoms: N2_7  and  C5_9
ROOT
HETATM    1  N2  UNL     1      14.573  14.372   7.534  1.00  0.00    -0.358 N
ATOM      2  H2  UNL     1      13.818  14.060   8.144  1.00  0.00     0.162 HD
ENDROOT
BRANCH   1   3
HETATM    3  C4  UNL     1      14.345  15.491   6.686  1.00  0.00     0.173 C
HETATM    4  N1  UNL     1      13.341  15.625   5.905  1.00  0.00    -0.383 N
ATOM      5  H1  UNL     1      13.233  16.454   5.321  1.00  0.00     0.160 HD
BRANCH   4   6
HETATM    6  C3  UNL     1      12.357  14.549   5.883  1.00  0.00     0.147 C
BRANCH   6   7
HETATM    7  C2  UNL     1      11.087  14.975   6.517  1.00  0.00    -0.018 C
HETATM    8  C1  UNL     1      10.923  14.985   7.834  1.00  0.00     0.008 C
ENDBRANCH   6   7
ENDBRANCH   4   6
ENDBRANCH   1   3
BRANCH   1   9
HETATM    9  C5  UNL     1      15.834  13.659   7.566  1.00  0.00     0.310 A
HETATM   10  C6  UNL     1      15.953  12.274   7.173  1.00  0.00     0.289 A
HETATM   11  N3  UNL     1      15.915  12.663   8.649  1.00  0.00    -0.049 N
ATOM     12  H32 UNL     1      16.502  12.509   9.470  1.00  0.00     0.279 HD
ATOM     13  H31 UNL     1      15.358  12.412   9.466  1.00  0.00     0.279 HD
ENDBRANCH   1   9
TORSDOF 4
ENDMDL