MODEL 1
REMARK VINA RESULT: -4.195103043      0.000      0.000
REMARK  4 active torsions:
REMARK  status: ('A' for Active; 'I' for Inactive)
REMARK    1  A    between atoms: C2_2  and  C3_3
REMARK    2  A    between atoms: C3_3  and  C4_4
REMARK    3  A    between atoms: C4_4  and  N1_5
REMARK    4  A    between atoms: N1_5  and  N2_7
ROOT
HETATM    1  N1  UNL     1       8.865  14.044   4.088  1.00  0.00    -0.354 N
ATOM      2  H1  UNL     1       9.137  14.984   3.802  1.00  0.00     0.174 HD
ENDROOT
BRANCH   1   3
HETATM    3  C4  UNL     1       9.235  13.486   5.356  1.00  0.00     0.137 C
BRANCH   3   4
HETATM    4  C3  UNL     1       9.418  14.636   6.345  1.00  0.00     0.047 C
BRANCH   4   5
HETATM    5  C2  UNL     1      10.838  14.671   6.776  1.00  0.00    -0.035 C
HETATM    6  C1  UNL     1      11.200  15.043   7.990  1.00  0.00     0.007 C
ENDBRANCH   4   5
ENDBRANCH   3   4
ENDBRANCH   1   3
BRANCH   1   7
HETATM    7  N2  UNL     1       8.120  13.219   3.291  1.00  0.00    -0.236 NA
HETATM    8  C5  UNL     1       8.855  12.821   2.107  1.00  0.00     0.114 C
HETATM    9  C6  UNL     1       8.531  11.386   2.337  1.00  0.00     0.032 C
HETATM   10  C7  UNL     1       7.946  11.862   3.670  1.00  0.00     0.114 C
ENDBRANCH   1   7
TORSDOF 4
ENDMDL