MODEL 4
REMARK VINA RESULT: -3.838387612      1.829      2.807
REMARK  4 active torsions:
REMARK  status: ('A' for Active; 'I' for Inactive)
REMARK    1  A    between atoms: N1_2  and  C2_4
REMARK    2  A    between atoms: C2_4  and  C3_5
REMARK    3  A    between atoms: C3_5  and  N2_6
REMARK    4  A    between atoms: N2_6  and  C4_8
ROOT
HETATM    1  C4  UNL     1      10.402  14.073   5.880  1.00  0.00     0.118 A
HETATM    2  C5  UNL     1       9.028  14.405   5.757  1.00  0.00     0.068 A
HETATM    3  C6  UNL     1       8.784  14.369   4.410  1.00  0.00     0.111 A
HETATM    4  N3  UNL     1       9.874  14.050   3.730  1.00  0.00    -0.308 N
ATOM      5  H3  UNL     1       9.954  13.958   2.717  1.00  0.00     0.186 HD
HETATM    6  N4  UNL     1      10.862  13.870   4.635  1.00  0.00    -0.282 N
HETATM    7  C7  UNL     1      12.226  13.497   4.290  1.00  0.00     0.179 C
ENDROOT
BRANCH   1   8
HETATM    8  N2  UNL     1      11.048  13.995   7.138  1.00  0.00    -0.374 N
ATOM      9  H2  UNL     1      11.100  13.079   7.585  1.00  0.00     0.161 HD
BRANCH   8  10
HETATM   10  C3  UNL     1      11.634  15.105   7.833  1.00  0.00     0.141 C
BRANCH  10  11
HETATM   11  C2  UNL     1      12.954  15.525   7.166  1.00  0.00     0.137 C
BRANCH  11  12
HETATM   12  N1  UNL     1      13.895  14.501   7.466  1.00  0.00    -0.406 N
HETATM   13  C1  UNL     1      15.082  14.476   7.030  1.00  0.00     0.112 C
ATOM     14  H1  UNL     1      13.593  13.738   8.071  1.00  0.00     0.158 HD
ENDBRANCH  11  12
ENDBRANCH  10  11
ENDBRANCH   8  10
ENDBRANCH   1   8
TORSDOF 4
ENDMDL