MODEL 2
REMARK VINA RESULT: -3.979465024      2.115      2.755
REMARK  5 active torsions:
REMARK  status: ('A' for Active; 'I' for Inactive)
REMARK    1  A    between atoms: C2_2  and  C3_3
REMARK    2  A    between atoms: C3_3  and  N1_4
REMARK    3  A    between atoms: C4_6  and  N2_7
REMARK    4  A    between atoms: N2_7  and  C5_9
REMARK    5  A    between atoms: C7_11  and  N3_12
ROOT
HETATM    1  N2  UNL     1      14.519  15.681   6.781  1.00  0.00    -0.380 N
ATOM      2  H2  UNL     1      15.116  14.879   6.577  1.00  0.00     0.160 HD
ENDROOT
BRANCH   1   3
HETATM    3  C4  UNL     1      13.118  15.514   6.770  1.00  0.00     0.171 C
HETATM    4  N1  UNL     1      12.490  15.149   7.829  1.00  0.00    -0.383 N
ATOM      5  H1  UNL     1      13.012  14.977   8.689  1.00  0.00     0.160 HD
BRANCH   4   6
HETATM    6  C3  UNL     1      11.072  14.980   7.820  1.00  0.00     0.147 C
BRANCH   6   7
HETATM    7  C2  UNL     1      10.517  14.871   6.451  1.00  0.00    -0.018 C
HETATM    8  C1  UNL     1       9.286  14.456   6.214  1.00  0.00     0.008 C
ENDBRANCH   6   7
ENDBRANCH   4   6
ENDBRANCH   1   3
BRANCH   1   9
HETATM    9  C5  UNL     1      15.134  16.959   7.074  1.00  0.00     0.114 A
HETATM   10  C6  UNL     1      16.444  17.218   6.359  1.00  0.00     0.062 A
HETATM   11  C7  UNL     1      16.429  16.993   7.807  1.00  0.00     0.208 A
BRANCH  11  12
HETATM   12  N3  UNL     1      16.704  18.056   8.757  1.00  0.00    -0.073 N
ATOM     13  H33 UNL     1      16.041  18.814   8.591  1.00  0.00     0.274 HD
ATOM     14  H32 UNL     1      16.424  17.738   9.684  1.00  0.00     0.274 HD
ATOM     15  H31 UNL     1      17.640  18.457   8.822  1.00  0.00     0.274 HD
ENDBRANCH  11  12
ENDBRANCH   1   9
TORSDOF 5
ENDMDL