MODEL 3
REMARK VINA RESULT: -4.657424760      1.018      1.545
REMARK  5 active torsions:
REMARK  status: ('A' for Active; 'I' for Inactive)
REMARK    1  A    between atoms: N2_4  and  N3_6
REMARK    2  A    between atoms: C1_8  and  N4_9
REMARK    3  A    between atoms: N4_9  and  C2_11
REMARK    4  A    between atoms: C2_11  and  C3_12
REMARK    5  A    between atoms: C3_12  and  C4_13
ROOT
HETATM    1  N3  UNL     1      15.175  13.675   8.096  1.00  0.00    -0.283 N
ATOM      2  H3  UNL     1      14.223  13.758   8.452  1.00  0.00     0.189 HD
HETATM    3  C1  UNL     1      15.584  14.575   7.297  1.00  0.00     0.194 C
ENDROOT
BRANCH   3   4
HETATM    4  N4  UNL     1      14.692  15.627   6.960  1.00  0.00    -0.385 N
ATOM      5  H4  UNL     1      14.579  16.429   7.579  1.00  0.00     0.160 HD
BRANCH   4   6
HETATM    6  C2  UNL     1      13.955  15.542   5.739  1.00  0.00     0.120 C
BRANCH   6   7
HETATM    7  C3  UNL     1      12.493  15.782   5.885  1.00  0.00     0.024 C
BRANCH   7   8
HETATM    8  C4  UNL     1      11.752  14.676   6.562  1.00  0.00    -0.013 A
HETATM    9  C5  UNL     1      11.256  15.069   7.969  1.00  0.00     0.005 A
HETATM   10  C6  UNL     1      10.317  14.741   6.870  1.00  0.00     0.005 A
ENDBRANCH   7   8
ENDBRANCH   6   7
ENDBRANCH   4   6
ENDBRANCH   3   4
BRANCH   1  11
HETATM   11  N2  UNL     1      15.928  12.584   8.520  1.00  0.00    -0.248 N
HETATM   12  N1  UNL     1      17.132  12.648   8.899  1.00  0.00    -0.331 N
ATOM     13  H12 UNL     1      17.567  13.570   8.887  1.00  0.00     0.178 HD
ATOM     14  H11 UNL     1      17.684  11.848   9.210  1.00  0.00     0.178 HD
ATOM     15  H2  UNL     1      15.477  11.669   8.526  1.00  0.00     0.207 HD
ENDBRANCH   1  11
TORSDOF 5
ENDMDL