MODEL 1
REMARK VINA RESULT: -3.895904337      0.000      0.000
REMARK  5 active torsions:
REMARK  status: ('A' for Active; 'I' for Inactive)
REMARK    1  A    between atoms: C1_4  and  C2_5
REMARK    2  A    between atoms: C4_7  and  N2_8
REMARK    3  A    between atoms: N2_8  and  C5_10
REMARK    4  A    between atoms: C5_10  and  C6_11
REMARK    5  A    between atoms: C6_11  and  N3_12
ROOT
HETATM    1  N2  UNL     1      13.303  14.441   6.674  1.00  0.00    -0.415 N
ATOM      2  H2  UNL     1      13.257  13.432   6.816  1.00  0.00     0.153 HD
ENDROOT
BRANCH   1   3
HETATM    3  C4  UNL     1      12.174  15.290   6.848  1.00  0.00     0.086 A
HETATM    4  C2  UNL     1      10.773  14.971   6.678  1.00  0.00     0.048 A
HETATM    5  C3  UNL     1      11.343  15.031   8.087  1.00  0.00     0.037 A
BRANCH   4   6
HETATM    6  C1  UNL     1      10.240  13.643   6.319  1.00  0.00     0.059 C
HETATM    7  N1  UNL     1       9.146  13.488   5.658  1.00  0.00    -0.411 N
ATOM      8  H12 UNL     1       8.638  14.328   5.379  1.00  0.00     0.155 HD
ATOM      9  H11 UNL     1       8.778  12.570   5.410  1.00  0.00     0.155 HD
ENDBRANCH   4   6
ENDBRANCH   1   3
BRANCH   1  10
HETATM   10  C5  UNL     1      14.503  15.105   6.287  1.00  0.00     0.141 C
BRANCH  10  11
HETATM   11  C6  UNL     1      15.672  14.673   7.155  1.00  0.00     0.248 C
BRANCH  11  12
HETATM   12  N3  UNL     1      15.261  13.663   8.078  1.00  0.00    -0.078 N
ATOM     13  H33 UNL     1      15.509  12.728   7.754  1.00  0.00     0.274 HD
ATOM     14  H32 UNL     1      15.817  13.679   8.932  1.00  0.00     0.274 HD
ATOM     15  H31 UNL     1      14.262  13.745   8.272  1.00  0.00     0.274 HD
ENDBRANCH  11  12
ENDBRANCH  10  11
ENDBRANCH   1  10
TORSDOF 5
ENDMDL