MODEL 2
REMARK VINA RESULT: -5.817688089      3.297      5.766
REMARK  5 active torsions:
REMARK  status: ('A' for Active; 'I' for Inactive)
REMARK    1  A    between atoms: C2_2  and  N1_3
REMARK    2  A    between atoms: N1_3  and  C3_5
REMARK    3  A    between atoms: C3_5  and  N2_7
REMARK    4  A    between atoms: N2_7  and  C4_9
REMARK    5  A    between atoms: N4_15  and  C7_16
ROOT
HETATM    1  C4  UNL     1       0.316  38.604  39.207  1.00  0.00     0.209 C
HETATM    2  C5  UNL     1       1.049  37.342  38.814  1.00  0.00     0.171 C
HETATM    3  N3  UNL     1       2.363  37.838  38.456  1.00  0.00    -0.339 N
ATOM      4  H3  UNL     1       2.999  37.426  37.774  1.00  0.00     0.164 HD
HETATM    5  C6  UNL     1       2.600  39.000  39.227  1.00  0.00     0.320 C
HETATM    6  O1  UNL     1       3.743  39.561  39.328  1.00  0.00    -0.247 OA
HETATM    7  N4  UNL     1       1.389  39.401  39.835  1.00  0.00    -0.303 N
ENDROOT
BRANCH   1   8
HETATM    8  N2  UNL     1      -0.214  39.256  38.069  1.00  0.00    -0.344 N
ATOM      9  H2  UNL     1       0.426  39.331  37.279  1.00  0.00     0.164 HD
BRANCH   8  10
HETATM   10  C3  UNL     1      -1.472  39.811  37.858  1.00  0.00     0.169 C
HETATM   11  S1  UNL     1      -1.584  41.512  37.939  1.00  0.00    -0.041 SA
BRANCH  10  12
HETATM   12  N1  UNL     1      -2.708  39.224  37.579  1.00  0.00    -0.368 N
ATOM     13  H1  UNL     1      -3.479  39.867  37.403  1.00  0.00     0.161 HD
BRANCH  12  14
HETATM   14  C2  UNL     1      -3.021  37.846  37.510  1.00  0.00     0.117 C
HETATM   15  C1  UNL     1      -3.873  37.542  36.240  1.00  0.00     0.026 C
ENDBRANCH  12  14
ENDBRANCH  10  12
ENDBRANCH   8  10
ENDBRANCH   1   8
BRANCH   7  16
HETATM   16  C7  UNL     1       1.290  40.398  40.861  1.00  0.00     0.028 C
HETATM   17  C8  UNL     1       1.600  41.783  40.375  1.00  0.00     0.038 C
HETATM   18  C9  UNL     1       2.222  40.059  41.989  1.00  0.00     0.038 C
HETATM   19  C10 UNL     1      -0.147  40.405  41.352  1.00  0.00     0.038 C
ENDBRANCH   7  16
TORSDOF 5
ENDMDL