MODEL 2
REMARK VINA RESULT: -7.243032911      3.211      6.271
REMARK  4 active torsions:
REMARK  status: ('A' for Active; 'I' for Inactive)
REMARK    1  A    between atoms: C5_5  and  C6_6
REMARK    2  A    between atoms: C6_6  and  O1_7
REMARK       I    between atoms: N1_9  and  C7_10
REMARK       I    between atoms: C7_10  and  N3_14
REMARK    3  A    between atoms: N3_14  and  C8_16
REMARK    4  A    between atoms: C8_16  and  C10_20
ROOT
HETATM    1  C1  UNL     1       1.831  39.381  42.062  1.00  0.00     0.014 C
HETATM    2  C2  UNL     1       1.770  39.400  40.853  1.00  0.00    -0.091 C
HETATM    3  C3  UNL     1       1.689  39.424  39.400  1.00  0.00     0.183 C
HETATM    4  C4  UNL     1       2.358  40.670  38.858  1.00  0.00     0.067 C
HETATM    5  C5  UNL     1       1.010  41.298  39.209  1.00  0.00     0.130 C
HETATM    6  N1  UNL     1       0.416  40.008  38.951  1.00  0.00    -0.196 N
HETATM    7  C7  UNL     1      -0.764  39.409  38.499  1.00  0.00     0.676 C
HETATM    8  N2  UNL     1      -1.800  39.362  39.287  1.00  0.00    -0.234 N
ATOM      9  H21 UNL     1      -2.661  38.925  38.957  1.00  0.00     0.174 HD
ATOM     10  H22 UNL     1      -1.757  39.759  40.226  1.00  0.00     0.174 HD
HETATM   11  N3  UNL     1      -0.823  38.860  37.201  1.00  0.00    -0.181 N
ATOM     12  H3  UNL     1      -0.691  39.460  36.386  1.00  0.00     0.185 HD
ENDROOT
BRANCH   5  13
HETATM   13  C6  UNL     1       0.623  42.399  38.258  1.00  0.00     0.190 C
BRANCH  13  14
HETATM   14  O1  UNL     1       1.061  43.607  38.783  1.00  0.00    -0.399 OA
ATOM     15  H1  UNL     1       1.590  44.046  38.126  1.00  0.00     0.209 HD
ENDBRANCH  13  14
ENDBRANCH   5  13
BRANCH  11  16
HETATM   16  C8  UNL     1      -1.063  37.485  37.032  1.00  0.00     0.097 C
HETATM   17  N4  UNL     1      -0.131  36.663  37.365  1.00  0.00    -0.383 N
HETATM   18  C9  UNL     1      -0.237  35.226  37.249  1.00  0.00     0.147 C
ATOM     19  H4  UNL     1       0.738  37.050  37.733  1.00  0.00     0.160 HD
BRANCH  16  20
HETATM   20  C10 UNL     1      -2.353  37.039  36.492  1.00  0.00     0.058 A
HETATM   21  C11 UNL     1      -3.551  37.899  36.501  1.00  0.00     0.017 A
HETATM   22  C12 UNL     1      -3.445  36.824  37.515  1.00  0.00    -0.007 A
HETATM   23  C13 UNL     1      -4.204  35.545  37.399  1.00  0.00     0.011 C
ENDBRANCH  16  20
ENDBRANCH  11  16
TORSDOF 4
ENDMDL