MODEL 3
REMARK VINA RESULT: -7.039150895      5.342      7.791
REMARK  3 active torsions:
REMARK  status: ('A' for Active; 'I' for Inactive)
REMARK       I    between atoms: C1_2  and  N1_3
REMARK       I    between atoms: C1_2  and  N2_9
REMARK    1  A    between atoms: N1_3  and  C2_5
REMARK    2  A    between atoms: C2_5  and  C3_6
REMARK       I    between atoms: N2_9  and  C6_11
REMARK       I    between atoms: C6_11  and  N3_13
REMARK    3  A    between atoms: C9_16  and  O3_17
ROOT
HETATM    1  O1  UNL     1       3.994  40.114  38.972  1.00  0.00    -0.247 OA
HETATM    2  C1  UNL     1       3.170  39.284  39.501  1.00  0.00     0.327 C
HETATM    3  N1  UNL     1       2.591  39.666  40.691  1.00  0.00    -0.322 N
ATOM      4  H1  UNL     1       1.961  38.977  41.103  1.00  0.00     0.169 HD
HETATM    5  N2  UNL     1       2.952  38.096  38.817  1.00  0.00    -0.261 N
ATOM      6  H2  UNL     1       3.482  38.007  37.950  1.00  0.00     0.175 HD
HETATM    7  C6  UNL     1       2.135  37.000  39.108  1.00  0.00     0.326 C
HETATM    8  O2  UNL     1       1.437  37.006  40.162  1.00  0.00    -0.247 OA
HETATM    9  N3  UNL     1       2.026  35.848  38.286  1.00  0.00    -0.334 N
HETATM   10  C7  UNL     1       1.148  34.731  38.672  1.00  0.00     0.130 C
HETATM   11  C8  UNL     1       1.862  33.462  38.225  1.00  0.00     0.051 C
HETATM   12  C9  UNL     1       3.355  33.686  38.420  1.00  0.00     0.121 C
HETATM   13  C10 UNL     1       3.847  34.643  37.339  1.00  0.00     0.051 C
HETATM   14  C11 UNL     1       2.729  35.658  37.048  1.00  0.00     0.130 C
ENDROOT
BRANCH   3  15
HETATM   15  C2  UNL     1       2.734  40.866  41.433  1.00  0.00     0.070 C
BRANCH  15  16
HETATM   16  C3  UNL     1       2.110  42.120  41.070  1.00  0.00     0.024 A
HETATM   17  C4  UNL     1       1.345  42.435  39.862  1.00  0.00     0.010 A
HETATM   18  C5  UNL     1       2.727  43.075  40.087  1.00  0.00     0.010 A
ENDBRANCH  15  16
ENDBRANCH   3  15
BRANCH  12  19
HETATM   19  O3  UNL     1       3.610  34.276  39.645  1.00  0.00    -0.395 OA
ATOM     20  H3  UNL     1       4.530  34.497  39.731  1.00  0.00     0.210 HD
ENDBRANCH  12  19
TORSDOF 3
ENDMDL