MODEL 3
REMARK VINA RESULT: -5.996649569      2.587      4.141
REMARK  3 active torsions:
REMARK  status: ('A' for Active; 'I' for Inactive)
REMARK    1  A    between atoms: C2_2  and  N1_4
REMARK       I    between atoms: N1_4  and  C4_6
REMARK       I    between atoms: C4_6  and  N4_12
REMARK    2  A    between atoms: N2_7  and  C5_9
REMARK    3  A    between atoms: N4_12  and  S2_14
ROOT
HETATM    1  N1  UNL     1       0.640  37.193  37.754  1.00  0.00    -0.222 N
ATOM      2  H1  UNL     1       1.313  37.196  36.988  1.00  0.00     0.178 HD
HETATM    3  C4  UNL     1       1.134  37.345  39.074  1.00  0.00     0.689 C
HETATM    4  N2  UNL     1       1.390  36.320  39.781  1.00  0.00    -0.168 N
ATOM      5  H2  UNL     1       1.744  36.489  40.723  1.00  0.00     0.186 HD
HETATM    6  N4  UNL     1       1.348  38.642  39.615  1.00  0.00    -0.117 N
ATOM      7  H4  UNL     1       0.845  39.441  39.228  1.00  0.00     0.197 HD
ENDROOT
BRANCH   1   8
HETATM    8  C2  UNL     1      -0.742  37.037  37.428  1.00  0.00     0.091 C
HETATM    9  C1  UNL     1      -0.927  36.054  36.298  1.00  0.00     0.032 C
HETATM   10  C3  UNL     1      -1.427  38.334  37.064  1.00  0.00     0.032 C
ENDBRANCH   1   8
BRANCH   4  11
HETATM   11  C5  UNL     1       1.234  34.985  39.395  1.00  0.00     0.199 C
HETATM   12  N3  UNL     1      -0.077  34.410  39.448  1.00  0.00    -0.069 NA
HETATM   13  S1  UNL     1       2.451  34.022  38.885  1.00  0.00    -0.044 SA
ENDBRANCH   4  11
BRANCH   6  14
HETATM   14  S2  UNL     1       2.447  38.879  40.916  1.00  0.00     0.240 S
HETATM   15  C6  UNL     1       2.746  40.617  41.181  1.00  0.00     0.186 C
HETATM   16  O1  UNL     1       3.785  38.266  40.575  1.00  0.00    -0.206 OA
HETATM   17  O2  UNL     1       1.874  38.322  42.157  1.00  0.00    -0.206 OA
ENDBRANCH   6  14
TORSDOF 3
ENDMDL