MODEL 3
REMARK VINA RESULT: -6.644342090      4.144      5.356
REMARK  4 active torsions:
REMARK  status: ('A' for Active; 'I' for Inactive)
REMARK       I    between atoms: N2_3  and  C2_5
REMARK       I    between atoms: C2_5  and  N5_15
REMARK    1  A    between atoms: N3_6  and  C3_8
REMARK    2  A    between atoms: C3_8  and  C4_10
REMARK    3  A    between atoms: C4_10  and  N4_11
REMARK    4  A    between atoms: N5_15  and  C5_17
ROOT
HETATM    1  N1  UNL     1      -2.817  37.356  37.632  1.00  0.00    -0.171 NA
HETATM    2  C1  UNL     1      -1.769  37.834  37.558  1.00  0.00     0.196 C
HETATM    3  N2  UNL     1      -0.504  38.404  37.457  1.00  0.00    -0.126 N
ATOM      4  H2  UNL     1      -0.216  38.891  36.609  1.00  0.00     0.197 HD
HETATM    5  C2  UNL     1       0.387  38.287  38.581  1.00  0.00     0.688 C
HETATM    6  N3  UNL     1       0.859  39.399  39.027  1.00  0.00    -0.183 N
ATOM      7  H3  UNL     1       0.603  40.286  38.593  1.00  0.00     0.185 HD
HETATM    8  N5  UNL     1       0.720  37.046  39.156  1.00  0.00    -0.221 N
ATOM      9  H5  UNL     1       0.894  36.979  40.158  1.00  0.00     0.178 HD
ENDROOT
BRANCH   6  10
HETATM   10  C3  UNL     1       1.747  39.361  40.138  1.00  0.00     0.119 C
HETATM   11  S1  UNL     1       1.236  39.790  41.616  1.00  0.00    -0.063 SA
BRANCH  10  12
HETATM   12  C4  UNL     1       3.129  38.928  39.931  1.00  0.00     0.299 C
BRANCH  12  13
HETATM   13  N4  UNL     1       3.799  38.681  41.195  1.00  0.00    -0.073 N
ATOM     14  H43 UNL     1       4.791  38.910  41.143  1.00  0.00     0.274 HD
ATOM     15  H42 UNL     1       3.519  39.357  41.906  1.00  0.00     0.274 HD
ATOM     16  H41 UNL     1       3.653  37.723  41.512  1.00  0.00     0.274 HD
ENDBRANCH  12  13
ENDBRANCH  10  12
ENDBRANCH   6  10
BRANCH   8  17
HETATM   17  C5  UNL     1       0.814  35.873  38.330  1.00  0.00     0.099 C
HETATM   18  C6  UNL     1       0.697  34.597  39.130  1.00  0.00     0.026 C
HETATM   19  C7  UNL     1       1.590  33.558  38.444  1.00  0.00     0.002 C
HETATM   20  C8  UNL     1       3.013  33.962  38.773  1.00  0.00     0.000 C
HETATM   21  C9  UNL     1       3.263  35.296  38.137  1.00  0.00     0.002 C
HETATM   22  C10 UNL     1       2.070  35.949  37.528  1.00  0.00     0.026 C
ENDBRANCH   8  17
TORSDOF 4
ENDMDL