MODEL 3
REMARK VINA RESULT: -6.895032433      2.195      3.232
REMARK  3 active torsions:
REMARK  status: ('A' for Active; 'I' for Inactive)
REMARK    1  A    between atoms: C1_2  and  N2_4
REMARK       I    between atoms: N2_4  and  C2_6
REMARK    2  A    between atoms: C2_6  and  C3_8
REMARK    3  A    between atoms: C4_9  and  C5_10
ROOT
HETATM    1  C3  UNL     1       2.111  39.525  39.813  1.00  0.00     0.097 C
HETATM    2  C4  UNL     1       3.043  40.537  40.372  1.00  0.00     0.104 C
HETATM    3  C6  UNL     1       2.333  41.035  41.601  1.00  0.00     0.006 C
HETATM    4  C7  UNL     1       0.933  41.567  41.356  1.00  0.00     0.011 C
HETATM    5  C8  UNL     1       0.412  40.183  41.618  1.00  0.00    -0.004 A
HETATM    6  C9  UNL     1       1.722  39.773  42.122  1.00  0.00     0.000 A
HETATM    7  C10 UNL     1       1.185  39.090  40.955  1.00  0.00     0.009 A
ENDROOT
BRANCH   1   8
HETATM    8  C2  UNL     1       2.860  38.305  39.414  1.00  0.00     0.229 C
HETATM    9  N2  UNL     1       2.613  37.624  38.210  1.00  0.00    -0.306 N
ATOM     10  H2  UNL     1       1.893  37.971  37.577  1.00  0.00     0.170 HD
HETATM   11  O1  UNL     1       3.741  37.881  40.189  1.00  0.00    -0.273 OA
BRANCH   9  12
HETATM   12  C1  UNL     1       3.335  36.479  37.865  1.00  0.00     0.187 C
HETATM   13  N1  UNL     1       4.689  36.590  37.471  1.00  0.00    -0.070 NA
HETATM   14  S1  UNL     1       2.654  35.011  37.907  1.00  0.00    -0.044 SA
ENDBRANCH   9  12
ENDBRANCH   1   8
BRANCH   2  15
HETATM   15  C5  UNL     1       3.407  41.613  39.431  1.00  0.00     0.178 C
HETATM   16  O2  UNL     1       2.805  41.851  38.352  1.00  0.00    -0.648 OA
HETATM   17  O3  UNL     1       4.482  42.449  39.713  1.00  0.00    -0.648 OA
ENDBRANCH   2  15
TORSDOF 3
ENDMDL