MODEL 4
REMARK VINA RESULT: -5.953474740      6.370      7.840
REMARK  5 active torsions:
REMARK  status: ('A' for Active; 'I' for Inactive)
REMARK    1  A    between atoms: C2_2  and  N2_6
REMARK    2  A    between atoms: N3_8  and  C4_9
REMARK    3  A    between atoms: C4_9  and  C5_10
REMARK    4  A    between atoms: C5_10  and  N4_11
REMARK    5  A    between atoms: C5_10  and  C6_15
ROOT
HETATM    1  N2  UNL     1      -2.426  36.665  35.432  1.00  0.00    -0.343 N
HETATM    2  C3  UNL     1      -1.713  35.913  36.481  1.00  0.00     0.363 C
HETATM    3  N3  UNL     1      -2.665  35.658  37.505  1.00  0.00    -0.049 N
HETATM    4  C7  UNL     1      -3.904  35.220  36.845  1.00  0.00     0.241 C
HETATM    5  C8  UNL     1      -4.650  36.411  36.284  1.00  0.00     0.053 C
HETATM    6  C9  UNL     1      -3.571  37.420  35.893  1.00  0.00     0.090 C
HETATM    7  C10 UNL     1      -3.136  38.063  37.213  1.00  0.00     0.053 C
HETATM    8  C11 UNL     1      -2.914  36.944  38.180  1.00  0.00     0.241 C
ENDROOT
BRANCH   3   9
HETATM    9  C4  UNL     1      -2.327  34.687  38.472  1.00  0.00     0.272 C
BRANCH   9  10
HETATM   10  C5  UNL     1      -1.878  35.154  39.802  1.00  0.00     0.219 C
BRANCH  10  11
HETATM   11  N4  UNL     1      -0.450  34.984  40.002  1.00  0.00    -0.073 N
ATOM     12  H43 UNL     1      -0.039  34.431  39.250  1.00  0.00     0.274 HD
ATOM     13  H42 UNL     1       0.047  35.861  39.852  1.00  0.00     0.274 HD
ATOM     14  H41 UNL     1      -0.226  34.587  40.914  1.00  0.00     0.274 HD
ENDBRANCH  10  11
BRANCH  10  15
HETATM   15  C6  UNL     1      -2.560  34.359  40.907  1.00  0.00     0.120 C
HETATM   16  S1  UNL     1      -4.356  34.362  40.720  1.00  0.00    -0.096 SA
ENDBRANCH  10  15
ENDBRANCH   9  10
ENDBRANCH   3   9
BRANCH   1  17
HETATM   17  C2  UNL     1      -1.990  36.623  34.080  1.00  0.00     0.070 C
HETATM   18  C1  UNL     1      -0.905  37.474  33.541  1.00  0.00     0.088 C
HETATM   19  N1  UNL     1      -2.560  35.802  33.259  1.00  0.00    -0.389 N
ATOM     20  H12 UNL     1      -2.247  35.772  32.288  1.00  0.00     0.157 HD
ATOM     21  H11 UNL     1      -3.308  35.216  33.631  1.00  0.00     0.157 HD
ENDBRANCH   1  17
TORSDOF 5
ENDMDL