MODEL 4
REMARK VINA RESULT: -5.802866270      1.696      6.764
REMARK  4 active torsions:
REMARK  status: ('A' for Active; 'I' for Inactive)
REMARK    1  A    between atoms: C2_2  and  N1_3
REMARK    2  A    between atoms: N1_3  and  C3_5
REMARK    3  A    between atoms: C3_5  and  N2_7
REMARK       I    between atoms: C4_9  and  N4_11
REMARK    4  A    between atoms: C6_16  and  C7_17
ROOT
HETATM    1  N2  UNL     1       2.314  38.482  41.083  1.00  0.00    -0.307 N
ATOM      2  H2  UNL     1       2.574  37.919  41.893  1.00  0.00     0.171 HD
HETATM    3  C4  UNL     1       1.752  37.913  40.080  1.00  0.00     0.196 C
HETATM    4  N3  UNL     1       1.402  38.715  38.967  1.00  0.00    -0.063 NA
HETATM    5  N4  UNL     1       1.473  36.525  40.049  1.00  0.00    -0.311 N
ATOM      6  H4  UNL     1       2.234  35.860  40.187  1.00  0.00     0.170 HD
HETATM    7  C5  UNL     1       0.284  36.085  39.851  1.00  0.00     0.145 C
HETATM    8  N5  UNL     1      -0.385  34.837  39.752  1.00  0.00    -0.357 N
ATOM      9  H5  UNL     1      -0.345  33.958  40.268  1.00  0.00     0.162 HD
HETATM   10  C6  UNL     1      -1.135  35.315  38.642  1.00  0.00     0.153 C
HETATM   11  S2  UNL     1      -1.278  36.891  39.564  1.00  0.00    -0.069 SA
ENDROOT
BRANCH   1  12
HETATM   12  C3  UNL     1       2.580  39.861  41.093  1.00  0.00     0.174 C
HETATM   13  S1  UNL     1       1.775  40.830  42.143  1.00  0.00    -0.041 SA
BRANCH  12  14
HETATM   14  N1  UNL     1       3.534  40.400  40.204  1.00  0.00    -0.367 N
ATOM     15  H1  UNL     1       4.261  39.801  39.814  1.00  0.00     0.161 HD
BRANCH  14  16
HETATM   16  C2  UNL     1       3.483  41.790  39.847  1.00  0.00     0.117 C
HETATM   17  C1  UNL     1       4.614  42.089  38.896  1.00  0.00     0.026 C
ENDBRANCH  14  16
ENDBRANCH  12  14
ENDBRANCH   1  12
BRANCH  10  18
HETATM   18  C7  UNL     1      -2.483  34.736  38.398  1.00  0.00     0.032 C
HETATM   19  C8  UNL     1      -3.035  34.998  37.027  1.00  0.00     0.008 C
ENDBRANCH  10  18
TORSDOF 4
ENDMDL