MODEL 3
REMARK VINA RESULT: -6.522162731      1.186      6.929
REMARK  4 active torsions:
REMARK  status: ('A' for Active; 'I' for Inactive)
REMARK    1  A    between atoms: C1_2  and  N1_3
REMARK    2  A    between atoms: C1_2  and  N3_13
REMARK    3  A    between atoms: N1_3  and  C2_5
REMARK    4  A    between atoms: C2_5  and  C3_6
ROOT
HETATM    1  S1  UNL     1       2.973  39.155  40.900  1.00  0.00    -0.041 SA
HETATM    2  C1  UNL     1       2.327  39.470  39.380  1.00  0.00     0.169 C
ENDROOT
BRANCH   2   3
HETATM    3  N1  UNL     1       2.088  38.340  38.599  1.00  0.00    -0.367 N
ATOM      4  H1  UNL     1       2.417  38.419  37.637  1.00  0.00     0.161 HD
BRANCH   3   5
HETATM    5  C2  UNL     1       1.468  37.100  38.903  1.00  0.00     0.126 C
BRANCH   5   6
HETATM    6  C3  UNL     1       2.368  35.906  38.656  1.00  0.00     0.006 C
HETATM    7  C4  UNL     1       1.473  34.700  38.381  1.00  0.00     0.025 C
HETATM    8  C5  UNL     1       2.425  33.520  38.301  1.00  0.00     0.114 C
HETATM    9  N2  UNL     1       3.295  33.696  37.187  1.00  0.00    -0.421 N
HETATM   10  C6  UNL     1       4.073  34.886  37.158  1.00  0.00     0.114 C
ATOM     11  H2  UNL     1       3.358  33.000  36.444  1.00  0.00     0.153 HD
HETATM   12  C7  UNL     1       3.268  36.139  37.471  1.00  0.00     0.025 C
ENDBRANCH   5   6
ENDBRANCH   3   5
ENDBRANCH   2   3
BRANCH   2  13
HETATM   13  N3  UNL     1       2.117  40.836  39.102  1.00  0.00    -0.355 N
HETATM   14  C8  UNL     1       3.199  41.758  38.982  1.00  0.00     0.152 C
HETATM   15  C9  UNL     1       2.821  43.201  38.813  1.00  0.00     0.252 C
HETATM   16  N4  UNL     1       1.432  43.504  38.921  1.00  0.00    -0.072 N
HETATM   17  C10 UNL     1       0.582  42.566  38.251  1.00  0.00     0.252 C
ATOM     18  H42 UNL     1       1.161  43.601  39.899  1.00  0.00     0.277 HD
ATOM     19  H41 UNL     1       1.245  44.453  38.597  1.00  0.00     0.277 HD
HETATM   20  C11 UNL     1       0.720  41.249  38.933  1.00  0.00     0.152 C
ENDBRANCH   2  13
TORSDOF 4
ENDMDL