MODEL 5
REMARK VINA RESULT: -5.662508891      4.196      5.029
REMARK  7 active torsions:
REMARK  status: ('A' for Active; 'I' for Inactive)
REMARK    1  A    between atoms: C2_2  and  C3_3
REMARK    2  A    between atoms: C3_3  and  N1_4
REMARK    3  A    between atoms: N1_4  and  C4_6
REMARK    4  A    between atoms: C4_6  and  N2_8
REMARK    5  A    between atoms: N2_8  and  N3_10
REMARK    6  A    between atoms: N3_10  and  C5_12
REMARK    7  A    between atoms: C5_12  and  N4_14
ROOT
HETATM    1  N2  UNL     1       1.159  36.497  40.079  1.00  0.00    -0.274 N
ATOM      2  H2  UNL     1       1.333  36.795  41.040  1.00  0.00     0.189 HD
ENDROOT
BRANCH   1   3
HETATM    3  C4  UNL     1       0.637  35.201  39.839  1.00  0.00     0.186 C
HETATM    4  S1  UNL     1      -0.962  35.042  39.590  1.00  0.00    -0.040 SA
BRANCH   3   5
HETATM    5  N1  UNL     1       1.468  34.067  39.803  1.00  0.00    -0.363 N
ATOM      6  H1  UNL     1       1.740  33.632  40.685  1.00  0.00     0.162 HD
BRANCH   5   7
HETATM    7  C3  UNL     1       1.950  33.499  38.578  1.00  0.00     0.148 C
BRANCH   7   8
HETATM    8  C2  UNL     1       3.341  33.904  38.290  1.00  0.00    -0.018 C
HETATM    9  C1  UNL     1       3.631  34.745  37.307  1.00  0.00     0.008 C
ENDBRANCH   7   8
ENDBRANCH   5   7
ENDBRANCH   3   5
ENDBRANCH   1   3
BRANCH   1  10
HETATM   10  N3  UNL     1       1.440  37.378  39.026  1.00  0.00    -0.274 N
ATOM     11  H3  UNL     1       2.072  37.081  38.283  1.00  0.00     0.189 HD
BRANCH  10  12
HETATM   12  C5  UNL     1       0.868  38.668  38.969  1.00  0.00     0.188 C
HETATM   13  S2  UNL     1       1.806  39.963  39.249  1.00  0.00    -0.039 SA
BRANCH  12  14
HETATM   14  N4  UNL     1      -0.499  38.826  38.668  1.00  0.00    -0.357 N
HETATM   15  C6  UNL     1      -1.487  39.492  39.492  1.00  0.00     0.125 C
HETATM   16  C7  UNL     1      -2.642  38.485  39.353  1.00  0.00     0.021 C
HETATM   17  C8  UNL     1      -2.666  38.286  37.854  1.00  0.00     0.021 C
HETATM   18  C9  UNL     1      -1.221  38.358  37.472  1.00  0.00     0.125 C
ENDBRANCH  12  14
ENDBRANCH  10  12
ENDBRANCH   1  10
TORSDOF 7
ENDMDL