MODEL 1
REMARK VINA RESULT: -6.941070739      0.000      0.000
REMARK  11 active torsions:
REMARK  status: ('A' for Active; 'I' for Inactive)
REMARK    1  A    between atoms: C2_2  and  C3_3
REMARK    2  A    between atoms: C4_4  and  C5_5
REMARK    3  A    between atoms: C6_6  and  C7_7
REMARK    4  A    between atoms: C8_11  and  C9_12
REMARK    5  A    between atoms: N1_13  and  N2_15
REMARK    6  A    between atoms: C10_16  and  O3_17
REMARK    7  A    between atoms: C12_25  and  O4_26
REMARK    8  A    between atoms: O4_26  and  C13_27
REMARK    9  A    between atoms: C13_27  and  C14_28
REMARK   10  A    between atoms: C15_29  and  C16_30
REMARK   11  A    between atoms: C16_30  and  O5_31
ROOT
HETATM    1  C5  UNL     1      25.080  38.392  24.925  1.00  0.00     0.023 A
HETATM    2  C6  UNL     1      25.708  37.204  24.767  1.00  0.00     0.095 A
HETATM    3  S1  UNL     1      27.168  37.660  23.922  1.00  0.00    -0.078 SA
HETATM    4  C8  UNL     1      26.906  39.328  23.804  1.00  0.00     0.057 A
HETATM    5  C12 UNL     1      25.714  39.500  24.414  1.00  0.00     0.099 A
ENDROOT
BRANCH   4   6
HETATM    6  C9  UNL     1      27.795  40.330  23.175  1.00  0.00     0.129 C
HETATM    7  N1  UNL     1      28.294  41.216  23.953  1.00  0.00    -0.298 N
ATOM      8  H1  UNL     1      28.045  41.168  24.941  1.00  0.00     0.186 HD
BRANCH   7   9
HETATM    9  N2  UNL     1      29.138  42.226  23.562  1.00  0.00    -0.190 N
HETATM   10  C10 UNL     1      28.772  43.505  23.371  1.00  0.00     0.260 A
HETATM   11  N3  UNL     1      29.844  44.206  22.996  1.00  0.00    -0.261 N
HETATM   12  N4  UNL     1      30.862  43.388  22.953  1.00  0.00    -0.271 N
ATOM     13  H3  UNL     1      29.864  45.203  22.781  1.00  0.00     0.190 HD
HETATM   14  C11 UNL     1      30.449  42.153  23.300  1.00  0.00     0.215 A
ATOM     15  H4  UNL     1      31.816  43.644  22.698  1.00  0.00     0.189 HD
HETATM   16  S2  UNL     1      31.344  40.786  23.397  1.00  0.00    -0.037 SA
BRANCH  10  17
HETATM   17  O3  UNL     1      27.512  44.045  23.525  1.00  0.00    -0.330 OA
ATOM     18  H3  UNL     1      27.048  44.202  24.340  1.00  0.00     0.221 HD
ENDBRANCH  10  17
ENDBRANCH   7   9
ENDBRANCH   4   6
BRANCH   5  19
HETATM   19  O4  UNL     1      25.183  40.820  24.491  1.00  0.00    -0.345 OA
BRANCH  19  20
HETATM   20  C13 UNL     1      24.324  41.176  23.409  1.00  0.00     0.203 C
BRANCH  20  21
HETATM   21  C14 UNL     1      22.935  41.386  23.861  1.00  0.00    -0.002 C
HETATM   22  C15 UNL     1      21.891  40.830  23.240  1.00  0.00    -0.003 C
BRANCH  22  23
HETATM   23  C16 UNL     1      20.498  41.053  23.710  1.00  0.00     0.194 C
BRANCH  23  24
HETATM   24  O5  UNL     1      20.379  42.164  24.513  1.00  0.00    -0.392 OA
HETATM   25  C17 UNL     1      19.067  42.362  24.918  1.00  0.00     0.201 C
ENDBRANCH  23  24
ENDBRANCH  22  23
ENDBRANCH  20  21
ENDBRANCH  19  20
ENDBRANCH   5  19
BRANCH   2  26
HETATM   26  C7  UNL     1      25.348  35.811  24.986  1.00  0.00     0.217 C
HETATM   27  O1  UNL     1      25.374  35.038  23.958  1.00  0.00    -0.643 OA
HETATM   28  O2  UNL     1      24.970  35.220  26.169  1.00  0.00    -0.643 OA
ENDBRANCH   2  26
BRANCH   1  29
HETATM   29  C4  UNL     1      23.879  38.572  25.771  1.00  0.00     0.016 C
HETATM   30  C3  UNL     1      23.759  39.241  26.865  1.00  0.00     0.000 C
BRANCH  30  31
HETATM   31  C2  UNL     1      22.462  39.297  27.581  1.00  0.00    -0.010 C
HETATM   32  C1  UNL     1      21.525  40.126  27.205  1.00  0.00     0.011 C
ENDBRANCH  30  31
ENDBRANCH   1  29
TORSDOF 11
ENDMDL