MODEL 1
REMARK VINA RESULT: -7.545908567      0.000      0.000
REMARK  12 active torsions:
REMARK  status: ('A' for Active; 'I' for Inactive)
REMARK    1  A    between atoms: C2_2  and  N2_6
REMARK    2  A    between atoms: C4_13  and  S1_14
REMARK    3  A    between atoms: S1_14  and  C5_15
REMARK    4  A    between atoms: C5_15  and  C6_16
REMARK    5  A    between atoms: C6_16  and  S2_17
REMARK    6  A    between atoms: C6_16  and  C16_31
REMARK    7  A    between atoms: S2_17  and  C7_18
REMARK    8  A    between atoms: C7_18  and  C8_19
REMARK    9  A    between atoms: C8_19  and  O1_20
REMARK   10  A    between atoms: C8_19  and  C9_22
REMARK   11  A    between atoms: C9_22  and  C10_23
REMARK   12  A    between atoms: C10_23  and  C11_25
ROOT
HETATM    1  C6  UNL     1      23.985  34.942  25.125  1.00  0.00     0.126 C
ENDROOT
BRANCH   1   2
HETATM    2  C5  UNL     1      24.584  35.463  23.824  1.00  0.00     0.104 C
BRANCH   2   3
HETATM    3  S1  UNL     1      26.370  35.522  23.847  1.00  0.00    -0.102 SA
BRANCH   3   4
HETATM    4  C4  UNL     1      26.999  37.150  24.211  1.00  0.00     0.130 A
HETATM    5  N4  UNL     1      27.085  37.745  25.388  1.00  0.00    -0.286 N
HETATM    6  N3  UNL     1      27.571  38.914  25.485  1.00  0.00    -0.278 N
ATOM      7  H4  UNL     1      26.759  37.261  26.225  1.00  0.00     0.188 HD
HETATM    8  C3  UNL     1      27.993  39.536  24.387  1.00  0.00     0.167 A
ATOM      9  H3  UNL     1      27.638  39.370  26.395  1.00  0.00     0.189 HD
HETATM   10  N2  UNL     1      28.523  40.729  24.241  1.00  0.00    -0.326 N
HETATM   11  S3  UNL     1      27.656  38.343  23.180  1.00  0.00    -0.026 SA
ATOM     12  H2  UNL     1      28.680  41.363  25.025  1.00  0.00     0.169 HD
BRANCH  10  13
HETATM   13  C2  UNL     1      28.864  41.070  22.880  1.00  0.00     0.072 C
HETATM   14  C1  UNL     1      30.182  40.742  22.282  1.00  0.00     0.088 C
HETATM   15  N1  UNL     1      28.007  41.676  22.131  1.00  0.00    -0.389 N
ATOM     16  H12 UNL     1      28.248  41.917  21.169  1.00  0.00     0.157 HD
ATOM     17  H11 UNL     1      27.101  41.902  22.541  1.00  0.00     0.157 HD
ENDBRANCH  10  13
ENDBRANCH   3   4
ENDBRANCH   2   3
ENDBRANCH   1   2
BRANCH   1  18
HETATM   18  S2  UNL     1      23.839  36.290  26.311  1.00  0.00    -0.153 SA
BRANCH  18  19
HETATM   19  C7  UNL     1      23.020  37.710  25.624  1.00  0.00     0.107 C
BRANCH  19  20
HETATM   20  C8  UNL     1      23.723  39.029  25.751  1.00  0.00     0.134 C
BRANCH  20  21
HETATM   21  O1  UNL     1      24.808  38.789  26.647  1.00  0.00    -0.394 OA
ATOM     22  H1  UNL     1      25.198  39.642  26.799  1.00  0.00     0.210 HD
ENDBRANCH  20  21
BRANCH  20  23
HETATM   23  C9  UNL     1      22.793  39.958  26.548  1.00  0.00     0.118 C
BRANCH  23  24
HETATM   24  C10 UNL     1      22.047  40.873  25.665  1.00  0.00     0.185 C
HETATM   25  O2  UNL     1      22.736  41.468  24.777  1.00  0.00    -0.290 OA
BRANCH  24  26
HETATM   26  C11 UNL     1      20.623  41.120  25.754  1.00  0.00     0.121 A
HETATM   27  C12 UNL     1      19.778  40.512  26.683  1.00  0.00     0.043 A
HETATM   28  C13 UNL     1      18.522  40.979  26.473  1.00  0.00     0.035 A
HETATM   29  C14 UNL     1      18.608  41.865  25.420  1.00  0.00     0.050 A
HETATM   30  C15 UNL     1      17.440  42.612  24.859  1.00  0.00     0.076 C
HETATM   31  O3  UNL     1      19.864  41.899  25.049  1.00  0.00    -0.312 OA
ENDBRANCH  24  26
ENDBRANCH  23  24
ENDBRANCH  20  23
ENDBRANCH  19  20
ENDBRANCH  18  19
ENDBRANCH   1  18
BRANCH   1  32
HETATM   32  C16 UNL     1      22.738  34.215  24.968  1.00  0.00     0.137 C
HETATM   33  C17 UNL     1      22.716  32.765  25.287  1.00  0.00     0.092 C
HETATM   34  O4  UNL     1      21.692  34.729  24.586  1.00  0.00    -0.297 OA
ENDBRANCH   1  32
TORSDOF 12
ENDMDL