MODEL 5
REMARK VINA RESULT: -7.809330359      2.552      3.944
REMARK  13 active torsions:
REMARK  status: ('A' for Active; 'I' for Inactive)
REMARK    1  A    between atoms: O1_1  and  N1_3
REMARK    2  A    between atoms: N1_3  and  N2_5
REMARK    3  A    between atoms: N2_5  and  N3_6
REMARK       I    between atoms: N2_5  and  C10_23
REMARK    4  A    between atoms: N3_6  and  C1_8
REMARK    5  A    between atoms: C3_10  and  O2_11
REMARK    6  A    between atoms: N4_13  and  C4_14
REMARK    7  A    between atoms: C4_14  and  N5_15
REMARK    8  A    between atoms: C9_20  and  O3_21
REMARK    9  A    between atoms: C10_23  and  C11_25
REMARK   10  A    between atoms: C11_25  and  C12_26
REMARK   11  A    between atoms: C12_26  and  C13_28
REMARK   12  A    between atoms: C14_29  and  C15_30
REMARK   13  A    between atoms: C16_31  and  C17_32
ROOT
HETATM    1  N2  UNL     1      23.064  37.122  25.893  1.00  0.00    -0.140 N
HETATM    2  C10 UNL     1      22.867  38.478  26.349  1.00  0.00     0.266 C
HETATM    3  O4  UNL     1      23.796  39.091  26.874  1.00  0.00    -0.269 OA
ENDROOT
BRANCH   1   4
HETATM    4  N1  UNL     1      22.051  36.375  25.308  1.00  0.00    -0.186 N
ATOM      5  H1  UNL     1      21.384  35.907  25.921  1.00  0.00     0.218 HD
BRANCH   4   6
HETATM    6  O1  UNL     1      21.911  36.245  24.085  1.00  0.00    -0.273 OA
ATOM      7  H1  UNL     1      21.153  36.557  23.604  1.00  0.00     0.246 HD
ENDBRANCH   4   6
ENDBRANCH   1   4
BRANCH   1   8
HETATM    8  N3  UNL     1      24.322  36.542  26.034  1.00  0.00    -0.271 N
ATOM      9  H3  UNL     1      24.556  36.086  26.916  1.00  0.00     0.189 HD
BRANCH   8  10
HETATM   10  C1  UNL     1      25.294  36.561  24.993  1.00  0.00     0.105 A
HETATM   11  C2  UNL     1      25.459  35.730  23.912  1.00  0.00     0.091 A
HETATM   12  C3  UNL     1      26.554  36.185  23.218  1.00  0.00     0.151 A
HETATM   13  N4  UNL     1      27.077  37.280  23.842  1.00  0.00    -0.271 N
HETATM   14  C9  UNL     1      26.308  37.506  24.921  1.00  0.00     0.178 A
BRANCH  12  15
HETATM   15  O2  UNL     1      27.040  35.611  22.069  1.00  0.00    -0.346 OA
ATOM     16  H2  UNL     1      26.790  35.871  21.190  1.00  0.00     0.219 HD
ENDBRANCH  12  15
BRANCH  13  17
HETATM   17  C4  UNL     1      28.252  38.021  23.430  1.00  0.00     0.163 C
BRANCH  17  18
HETATM   18  N5  UNL     1      28.212  39.411  23.664  1.00  0.00    -0.279 NA
HETATM   19  C5  UNL     1      27.377  40.148  22.760  1.00  0.00     0.096 C
HETATM   20  C6  UNL     1      28.368  40.539  21.660  1.00  0.00     0.016 C
HETATM   21  C7  UNL     1      29.734  40.487  22.279  1.00  0.00     0.016 C
HETATM   22  C8  UNL     1      29.455  40.107  23.723  1.00  0.00     0.096 C
ENDBRANCH  17  18
ENDBRANCH  13  17
BRANCH  14  23
HETATM   23  O3  UNL     1      26.493  38.548  25.860  1.00  0.00    -0.344 OA
ATOM     24  H3  UNL     1      25.797  39.111  26.176  1.00  0.00     0.219 HD
ENDBRANCH  14  23
ENDBRANCH   8  10
ENDBRANCH   1   8
BRANCH   2  25
HETATM   25  C11 UNL     1      21.544  39.073  26.160  1.00  0.00     0.189 C
BRANCH  25  26
HETATM   26  C12 UNL     1      21.478  39.783  24.848  1.00  0.00     0.158 C
HETATM   27  O5  UNL     1      21.258  39.105  23.836  1.00  0.00    -0.293 OA
BRANCH  26  28
HETATM   28  C13 UNL     1      21.680  41.214  24.884  1.00  0.00     0.050 C
HETATM   29  C14 UNL     1      20.797  42.082  24.508  1.00  0.00     0.003 C
BRANCH  29  30
HETATM   30  C15 UNL     1      19.501  41.829  24.000  1.00  0.00    -0.004 C
HETATM   31  C16 UNL     1      18.433  41.748  24.759  1.00  0.00    -0.022 C
BRANCH  31  32
HETATM   32  C17 UNL     1      18.463  41.909  26.212  1.00  0.00     0.008 C
HETATM   33  C18 UNL     1      17.115  42.554  26.592  1.00  0.00     0.008 C
HETATM   34  C19 UNL     1      16.173  41.410  26.394  1.00  0.00     0.001 C
HETATM   35  C20 UNL     1      16.959  40.152  26.693  1.00  0.00     0.001 C
HETATM   36  C21 UNL     1      18.384  40.563  26.928  1.00  0.00     0.008 C
ENDBRANCH  31  32
ENDBRANCH  29  30
ENDBRANCH  26  28
ENDBRANCH  25  26
ENDBRANCH   2  25
TORSDOF 13
ENDMDL