MODEL 5
REMARK VINA RESULT: -7.314858927      3.608      7.594
REMARK  10 active torsions:
REMARK  status: ('A' for Active; 'I' for Inactive)
REMARK    1  A    between atoms: C2_2  and  C3_3
REMARK    2  A    between atoms: N3_12  and  C8_13
REMARK    3  A    between atoms: C11_18  and  N5_19
REMARK    4  A    between atoms: N5_19  and  C12_21
REMARK    5  A    between atoms: C12_21  and  C13_22
REMARK    6  A    between atoms: C13_22  and  O1_23
REMARK    7  A    between atoms: C13_22  and  C14_25
REMARK    8  A    between atoms: C14_25  and  N6_27
REMARK    9  A    between atoms: N6_27  and  C16_29
REMARK   10  A    between atoms: C16_29  and  N7_30
ROOT
HETATM    1  C3  UNL     1      24.648  38.053  25.960  1.00  0.00     0.078 A
HETATM    2  N1  UNL     1      25.256  39.084  25.345  1.00  0.00    -0.337 N
ATOM      3  H1  UNL     1      25.033  40.068  25.492  1.00  0.00     0.168 HD
HETATM    4  C4  UNL     1      26.229  38.607  24.485  1.00  0.00     0.151 A
HETATM    5  C5  UNL     1      27.141  39.135  23.623  1.00  0.00     0.117 A
HETATM    6  C6  UNL     1      27.931  38.241  22.956  1.00  0.00     0.123 A
HETATM    7  N2  UNL     1      28.811  38.876  22.119  1.00  0.00    -0.344 N
ATOM      8  H2  UNL     1      29.506  38.441  21.512  1.00  0.00     0.167 HD
HETATM    9  C7  UNL     1      28.575  40.161  22.260  1.00  0.00     0.184 A
HETATM   10  N3  UNL     1      27.581  40.351  23.155  1.00  0.00    -0.334 N
HETATM   11  S1  UNL     1      27.367  36.742  23.557  1.00  0.00     0.017 SA
HETATM   12  N4  UNL     1      26.181  37.290  24.605  1.00  0.00    -0.246 N
HETATM   13  C11 UNL     1      25.230  36.901  25.494  1.00  0.00     0.143 A
ENDROOT
BRANCH  13  14
HETATM   14  N5  UNL     1      24.887  35.558  25.889  1.00  0.00    -0.371 N
ATOM     15  H5  UNL     1      25.185  35.163  26.780  1.00  0.00     0.161 HD
BRANCH  14  16
HETATM   16  C12 UNL     1      24.108  34.819  24.961  1.00  0.00     0.155 C
BRANCH  16  17
HETATM   17  C13 UNL     1      22.634  34.716  25.204  1.00  0.00     0.158 C
BRANCH  17  18
HETATM   18  O1  UNL     1      22.356  33.359  24.845  1.00  0.00    -0.392 OA
ATOM     19  H1  UNL     1      21.507  33.428  24.426  1.00  0.00     0.210 HD
ENDBRANCH  17  18
BRANCH  17  20
HETATM   20  C14 UNL     1      21.857  35.611  24.282  1.00  0.00     0.108 C
HETATM   21  C15 UNL     1      22.640  35.997  23.054  1.00  0.00     0.035 C
BRANCH  20  22
HETATM   22  N6  UNL     1      21.408  36.827  24.925  1.00  0.00    -0.379 N
ATOM     23  H6  UNL     1      21.144  36.864  25.909  1.00  0.00     0.160 HD
BRANCH  22  24
HETATM   24  C16 UNL     1      21.363  37.962  24.078  1.00  0.00     0.182 C
BRANCH  24  25
HETATM   25  N7  UNL     1      21.345  39.215  24.746  1.00  0.00    -0.337 N
HETATM   26  C17 UNL     1      20.372  39.430  25.734  1.00  0.00     0.070 C
HETATM   27  C18 UNL     1      19.841  40.827  25.852  1.00  0.00     0.045 C
HETATM   28  C19 UNL     1      19.899  41.532  24.540  1.00  0.00     0.010 C
HETATM   29  C20 UNL     1      21.316  41.569  24.022  1.00  0.00     0.045 C
HETATM   30  C21 UNL     1      22.058  40.289  24.204  1.00  0.00     0.070 C
ENDBRANCH  24  25
ENDBRANCH  22  24
ENDBRANCH  20  22
ENDBRANCH  17  20
ENDBRANCH  16  17
ENDBRANCH  14  16
ENDBRANCH  13  14
BRANCH   1  31
HETATM   31  C2  UNL     1      23.573  38.128  26.934  1.00  0.00     0.023 C
HETATM   32  C1  UNL     1      23.347  39.231  27.611  1.00  0.00     0.013 C
ENDBRANCH   1  31
BRANCH  10  33
HETATM   33  C8  UNL     1      27.088  41.664  23.528  1.00  0.00     0.083 C
HETATM   34  C9  UNL     1      26.025  42.118  22.581  1.00  0.00     0.032 C
HETATM   35  C10 UNL     1      28.242  42.606  23.638  1.00  0.00     0.032 C
ENDBRANCH  10  33
TORSDOF 10
ENDMDL