MODEL 3
REMARK VINA RESULT: -7.790518212      2.466      3.667
REMARK  13 active torsions:
REMARK  status: ('A' for Active; 'I' for Inactive)
REMARK    1  A    between atoms: C2_2  and  C3_3
REMARK    2  A    between atoms: C3_3  and  O1_5
REMARK    3  A    between atoms: C3_3  and  C5_7
REMARK    4  A    between atoms: C5_7  and  O2_9
REMARK    5  A    between atoms: O2_9  and  C7_10
REMARK    6  A    between atoms: C7_10  and  C8_11
REMARK    7  A    between atoms: C8_11  and  C9_12
REMARK    8  A    between atoms: C9_12  and  C10_13
REMARK    9  A    between atoms: C10_13  and  C11_14
REMARK   10  A    between atoms: C11_14  and  N1_15
REMARK   11  A    between atoms: C13_22  and  C14_23
REMARK   12  A    between atoms: C14_23  and  O3_24
REMARK   13  A    between atoms: C20_33  and  N5_34
ROOT
HETATM    1  N1  UNL     1      24.274  37.809  25.750  1.00  0.00    -0.261 N
HETATM    2  N2  UNL     1      24.911  36.656  25.755  1.00  0.00    -0.238 N
ATOM      3  H2  UNL     1      24.464  35.811  26.112  1.00  0.00     0.208 HD
HETATM    4  N3  UNL     1      26.164  36.624  25.277  1.00  0.00    -0.277 N
ATOM      5  H3  UNL     1      26.684  35.746  25.267  1.00  0.00     0.189 HD
HETATM    6  C12 UNL     1      26.745  37.768  24.802  1.00  0.00     0.122 A
HETATM    7  S1  UNL     1      28.273  38.200  24.113  1.00  0.00    -0.052 SA
HETATM    8  C13 UNL     1      27.975  39.861  23.865  1.00  0.00     0.088 A
HETATM    9  N4  UNL     1      26.754  40.000  24.310  1.00  0.00    -0.346 N
ATOM     10  H4  UNL     1      26.307  40.917  24.283  1.00  0.00     0.166 HD
HETATM   11  C19 UNL     1      26.105  38.978  24.785  1.00  0.00     0.114 A
HETATM   12  C20 UNL     1      24.797  38.958  25.296  1.00  0.00     0.147 A
ENDROOT
BRANCH   1  13
HETATM   13  C11 UNL     1      22.898  37.853  26.302  1.00  0.00     0.152 C
BRANCH  13  14
HETATM   14  C10 UNL     1      21.928  37.350  25.246  1.00  0.00     0.022 C
BRANCH  14  15
HETATM   15  C9  UNL     1      21.009  38.492  24.893  1.00  0.00     0.004 C
BRANCH  15  16
HETATM   16  C8  UNL     1      20.711  39.305  26.126  1.00  0.00     0.026 C
BRANCH  16  17
HETATM   17  C7  UNL     1      20.360  40.737  25.761  1.00  0.00     0.168 C
BRANCH  17  18
HETATM   18  O2  UNL     1      21.211  41.092  24.732  1.00  0.00    -0.383 OA
BRANCH  18  19
HETATM   19  C5  UNL     1      20.860  42.295  24.138  1.00  0.00     0.151 C
HETATM   20  C6  UNL     1      19.442  42.625  24.463  1.00  0.00     0.042 C
BRANCH  19  21
HETATM   21  C3  UNL     1      21.104  42.098  22.637  1.00  0.00     0.079 C
HETATM   22  C4  UNL     1      22.533  41.578  22.515  1.00  0.00     0.048 C
BRANCH  21  23
HETATM   23  C2  UNL     1      20.119  41.053  22.166  1.00  0.00     0.035 C
HETATM   24  C1  UNL     1      20.823  39.962  21.369  1.00  0.00     0.008 C
ENDBRANCH  21  23
BRANCH  21  25
HETATM   25  O1  UNL     1      21.049  43.273  21.924  1.00  0.00    -0.388 OA
ATOM     26  H1  UNL     1      20.786  44.024  22.443  1.00  0.00     0.210 HD
ENDBRANCH  21  25
ENDBRANCH  19  21
ENDBRANCH  18  19
ENDBRANCH  17  18
ENDBRANCH  16  17
ENDBRANCH  15  16
ENDBRANCH  14  15
ENDBRANCH  13  14
ENDBRANCH   1  13
BRANCH  12  27
HETATM   27  N5  UNL     1      24.077  40.047  25.317  1.00  0.00    -0.382 N
ATOM     28  H52 UNL     1      23.322  40.155  25.994  1.00  0.00     0.157 HD
ATOM     29  H51 UNL     1      24.282  40.799  24.660  1.00  0.00     0.157 HD
ENDBRANCH  12  27
BRANCH   8  30
HETATM   30  C14 UNL     1      28.837  40.932  23.297  1.00  0.00     0.106 C
HETATM   31  C15 UNL     1      30.243  40.480  23.056  1.00  0.00     0.045 C
HETATM   32  C16 UNL     1      30.549  40.809  21.606  1.00  0.00     0.004 C
HETATM   33  C17 UNL     1      29.477  41.805  21.194  1.00  0.00     0.004 C
HETATM   34  C18 UNL     1      28.280  41.286  21.926  1.00  0.00     0.045 C
BRANCH  30  35
HETATM   35  O3  UNL     1      28.783  42.060  24.094  1.00  0.00    -0.383 OA
ATOM     36  H3  UNL     1      28.069  42.622  23.817  1.00  0.00     0.211 HD
ENDBRANCH  30  35
ENDBRANCH   8  30
TORSDOF 13
ENDMDL