MODEL 4
REMARK VINA RESULT: -8.266852977      1.779      4.276
REMARK  13 active torsions:
REMARK  status: ('A' for Active; 'I' for Inactive)
REMARK    1  A    between atoms: C2_2  and  C3_3
REMARK    2  A    between atoms: C2_2  and  C19_30
REMARK    3  A    between atoms: C3_3  and  C4_4
REMARK    4  A    between atoms: C4_4  and  O1_5
REMARK    5  A    between atoms: C4_4  and  C5_7
REMARK    6  A    between atoms: C6_8  and  C7_9
REMARK    7  A    between atoms: C8_11  and  C9_12
REMARK    8  A    between atoms: C10_13  and  C11_14
REMARK    9  A    between atoms: C14_17  and  N1_18
REMARK   10  A    between atoms: C16_22  and  N2_23
REMARK   11  A    between atoms: C18_27  and  O7_28
REMARK   12  A    between atoms: C19_30  and  O8_31
REMARK   13  A    between atoms: C19_30  and  C20_33
ROOT
HETATM    1  C7  UNL     1      24.337  40.970  23.795  1.00  0.00     0.109 A
HETATM    2  O2  UNL     1      23.483  40.541  24.681  1.00  0.00    -0.308 OA
HETATM    3  C8  UNL     1      22.254  40.792  24.405  1.00  0.00     0.079 A
HETATM    4  C17 UNL     1      22.292  41.480  23.172  1.00  0.00     0.076 A
HETATM    5  C18 UNL     1      23.601  41.590  22.792  1.00  0.00     0.102 A
ENDROOT
BRANCH   3   6
HETATM    6  C9  UNL     1      21.029  40.478  25.139  1.00  0.00     0.038 C
HETATM    7  C10 UNL     1      20.778  39.318  25.632  1.00  0.00     0.017 C
BRANCH   7   8
HETATM    8  C11 UNL     1      21.634  38.151  25.568  1.00  0.00    -0.003 A
HETATM    9  C12 UNL     1      21.272  37.115  24.693  1.00  0.00     0.016 A
HETATM   10  C13 UNL     1      21.970  35.964  24.595  1.00  0.00     0.037 A
HETATM   11  C14 UNL     1      23.092  35.749  25.368  1.00  0.00     0.105 A
HETATM   12  C15 UNL     1      23.455  36.749  26.226  1.00  0.00     0.073 A
HETATM   13  C16 UNL     1      22.735  37.946  26.335  1.00  0.00     0.115 A
BRANCH  11  14
HETATM   14  N1  UNL     1      23.837  34.531  25.266  1.00  0.00    -0.116 N
HETATM   15  O3  UNL     1      23.304  33.441  25.066  1.00  0.00    -0.532 OA
HETATM   16  O4  UNL     1      25.195  34.602  25.398  1.00  0.00    -0.532 OA
ENDBRANCH  11  14
BRANCH  13  17
HETATM   17  N2  UNL     1      23.148  38.882  27.318  1.00  0.00    -0.115 N
HETATM   18  O5  UNL     1      24.368  39.061  27.588  1.00  0.00    -0.532 OA
HETATM   19  O6  UNL     1      22.272  39.649  28.035  1.00  0.00    -0.532 OA
ENDBRANCH  13  17
ENDBRANCH   7   8
ENDBRANCH   3   6
BRANCH   1  20
HETATM   20  C6  UNL     1      25.785  40.830  23.841  1.00  0.00     0.038 C
HETATM   21  C5  UNL     1      26.309  39.625  23.822  1.00  0.00     0.007 C
BRANCH  21  22
HETATM   22  C4  UNL     1      27.759  39.333  23.863  1.00  0.00     0.141 C
BRANCH  22  23
HETATM   23  C3  UNL     1      28.326  39.598  22.487  1.00  0.00     0.043 C
BRANCH  23  24
HETATM   24  C2  UNL     1      29.332  40.724  22.503  1.00  0.00     0.020 C
HETATM   25  C1  UNL     1      30.482  40.325  21.599  1.00  0.00     0.013 C
BRANCH  24  26
HETATM   26  C19 UNL     1      28.746  41.999  21.936  1.00  0.00     0.183 C
BRANCH  26  27
HETATM   27  O8  UNL     1      29.304  42.308  20.701  1.00  0.00    -0.388 OA
ATOM     28  H8  UNL     1      30.250  42.385  20.757  1.00  0.00     0.210 HD
ENDBRANCH  26  27
BRANCH  26  29
HETATM   29  C20 UNL     1      28.897  43.146  22.833  1.00  0.00     0.263 C
HETATM   30  O9  UNL     1      28.712  43.034  24.019  1.00  0.00    -0.304 OA
ENDBRANCH  26  29
ENDBRANCH  24  26
ENDBRANCH  23  24
ENDBRANCH  22  23
BRANCH  22  31
HETATM   31  O1  UNL     1      28.338  40.229  24.790  1.00  0.00    -0.392 OA
ATOM     32  H1  UNL     1      29.275  40.272  24.645  1.00  0.00     0.210 HD
ENDBRANCH  22  31
ENDBRANCH  21  22
ENDBRANCH   1  20
BRANCH   5  33
HETATM   33  O7  UNL     1      24.128  42.195  21.638  1.00  0.00    -0.358 OA
ATOM     34  H7  UNL     1      23.624  42.609  20.948  1.00  0.00     0.217 HD
ENDBRANCH   5  33
TORSDOF 13
ENDMDL