MODEL 2
REMARK VINA RESULT: -7.401218315      4.953      9.204
REMARK  14 active torsions:
REMARK  status: ('A' for Active; 'I' for Inactive)
REMARK    1  A    between atoms: C2_2  and  C3_3
REMARK    2  A    between atoms: C3_3  and  C5_5
REMARK    3  A    between atoms: C6_9  and  N2_10
REMARK    4  A    between atoms: N2_10  and  C7_11
REMARK    5  A    between atoms: C8_13  and  C9_14
REMARK    6  A    between atoms: C9_14  and  N3_16
REMARK    7  A    between atoms: N3_16  and  C11_18
REMARK    8  A    between atoms: C11_18  and  C12_19
REMARK    9  A    between atoms: C11_18  and  C13_22
REMARK   10  A    between atoms: C12_19  and  O3_20
REMARK   11  A    between atoms: C13_22  and  O4_23
REMARK   12  A    between atoms: C13_22  and  O5_25
REMARK   13  A    between atoms: O5_25  and  C14_26
REMARK   14  A    between atoms: C18_31  and  N4_32
ROOT
HETATM    1  C7  UNL     1      20.627  39.647  26.428  1.00  0.00     0.268 A
HETATM    2  O2  UNL     1      20.976  38.647  25.711  1.00  0.00    -0.279 OA
HETATM    3  C8  UNL     1      22.087  38.119  25.704  1.00  0.00     0.085 A
HETATM    4  C17 UNL     1      23.044  38.669  26.574  1.00  0.00     0.089 A
HETATM    5  S1  UNL     1      22.128  39.923  27.276  1.00  0.00    -0.040 SA
ENDROOT
BRANCH   3   6
HETATM    6  C9  UNL     1      22.483  36.963  24.837  1.00  0.00     0.131 C
HETATM    7  C10 UNL     1      21.514  36.858  23.632  1.00  0.00     0.039 C
BRANCH   6   8
HETATM    8  N3  UNL     1      22.409  35.678  25.466  1.00  0.00    -0.401 N
ATOM      9  H3  UNL     1      21.778  35.520  26.251  1.00  0.00     0.154 HD
BRANCH   8  10
HETATM   10  C11 UNL     1      23.224  34.636  24.980  1.00  0.00     0.156 C
BRANCH  10  11
HETATM   11  C12 UNL     1      22.986  33.289  25.690  1.00  0.00     0.193 C
BRANCH  11  12
HETATM   12  O3  UNL     1      22.837  32.279  24.731  1.00  0.00    -0.399 OA
ATOM     13  H3  UNL     1      23.680  32.094  24.335  1.00  0.00     0.209 HD
ENDBRANCH  11  12
ENDBRANCH  10  11
BRANCH  10  14
HETATM   14  C13 UNL     1      24.640  34.932  25.472  1.00  0.00     0.281 C
BRANCH  14  15
HETATM   15  O4  UNL     1      24.780  34.856  26.803  1.00  0.00    -0.369 OA
ATOM     16  H4  UNL     1      25.667  34.672  27.087  1.00  0.00     0.212 HD
ENDBRANCH  14  15
BRANCH  14  17
HETATM   17  O5  UNL     1      25.707  35.223  24.816  1.00  0.00    -0.355 OA
BRANCH  17  18
HETATM   18  C14 UNL     1      26.240  36.052  23.869  1.00  0.00     0.116 C
HETATM   19  C15 UNL     1      27.601  35.638  23.343  1.00  0.00     0.039 C
HETATM   20  C16 UNL     1      26.432  37.419  24.539  1.00  0.00     0.039 C
ENDBRANCH  17  18
ENDBRANCH  14  17
ENDBRANCH  10  14
ENDBRANCH   8  10
ENDBRANCH   6   8
ENDBRANCH   3   6
BRANCH   1  21
HETATM   21  N2  UNL     1      19.550  40.201  26.460  1.00  0.00    -0.351 NA
BRANCH  21  22
HETATM   22  C6  UNL     1      18.406  40.796  26.505  1.00  0.00     0.232 A
HETATM   23  N1  UNL     1      18.022  42.066  26.290  1.00  0.00    -0.231 N
HETATM   24  O1  UNL     1      16.776  42.261  26.460  1.00  0.00    -0.233 OA
ATOM     25  H1  UNL     1      18.669  42.805  26.015  1.00  0.00     0.197 HD
HETATM   26  C5  UNL     1      16.167  41.092  26.809  1.00  0.00     0.132 A
HETATM   27  C18 UNL     1      17.157  40.202  26.847  1.00  0.00     0.125 A
BRANCH  26  28
HETATM   28  C3  UNL     1      14.716  40.995  27.038  1.00  0.00    -0.046 C
HETATM   29  C4  UNL     1      14.210  41.623  28.267  1.00  0.00     0.046 C
BRANCH  28  30
HETATM   30  C2  UNL     1      13.887  41.241  25.815  1.00  0.00     0.032 C
HETATM   31  C1  UNL     1      12.424  41.274  25.865  1.00  0.00     0.010 C
ENDBRANCH  28  30
ENDBRANCH  26  28
BRANCH  27  32
HETATM   32  N4  UNL     1      17.091  38.856  27.312  1.00  0.00    -0.388 N
HETATM   33  C19 UNL     1      16.629  38.655  28.713  1.00  0.00     0.146 C
ATOM     34  H4  UNL     1      17.348  38.069  26.715  1.00  0.00     0.159 HD
ENDBRANCH  27  32
ENDBRANCH  21  22
ENDBRANCH   1  21
TORSDOF 14
ENDMDL