MODEL 1
REMARK VINA RESULT: -7.314513062      0.000      0.000
REMARK  13 active torsions:
REMARK  status: ('A' for Active; 'I' for Inactive)
REMARK    1  A    between atoms: C2_2  and  C3_3
REMARK    2  A    between atoms: C3_3  and  N1_4
REMARK    3  A    between atoms: C4_7  and  C5_8
REMARK    4  A    between atoms: C8_11  and  C9_12
REMARK    5  A    between atoms: C9_12  and  O1_13
REMARK    6  A    between atoms: C9_12  and  C10_15
REMARK    7  A    between atoms: C10_15  and  S1_16
REMARK    8  A    between atoms: S1_16  and  C11_17
REMARK    9  A    between atoms: C12_18  and  C13_19
REMARK   10  A    between atoms: C15_22  and  O3_23
REMARK   11  A    between atoms: C16_25  and  O4_26
REMARK   12  A    between atoms: N3_28  and  C17_29
REMARK   13  A    between atoms: C17_29  and  C18_30
ROOT
HETATM    1  C10 UNL     1      22.361  38.670  25.470  1.00  0.00     0.146 C
ENDROOT
BRANCH   1   2
HETATM    2  C9  UNL     1      21.906  40.003  25.762  1.00  0.00     0.069 C
BRANCH   2   3
HETATM    3  C8  UNL     1      20.759  40.754  25.285  1.00  0.00     0.065 A
HETATM    4  C4  UNL     1      20.469  41.231  24.037  1.00  0.00     0.069 A
HETATM    5  N2  UNL     1      19.252  41.853  24.113  1.00  0.00    -0.296 N
HETATM    6  N1  UNL     1      18.769  41.801  25.309  1.00  0.00    -0.274 N
ATOM      7  H2  UNL     1      18.787  42.302  23.324  1.00  0.00     0.187 HD
HETATM    8  C20 UNL     1      19.652  41.139  26.068  1.00  0.00     0.148 A
HETATM    9  N4  UNL     1      19.536  40.846  27.450  1.00  0.00    -0.080 NA
BRANCH   4  10
HETATM   10  C5  UNL     1      21.249  41.148  22.804  1.00  0.00    -0.042 C
HETATM   11  C6  UNL     1      22.227  41.975  22.504  1.00  0.00     0.021 C
HETATM   12  C7  UNL     1      20.909  40.080  21.834  1.00  0.00     0.049 C
ENDBRANCH   4  10
BRANCH   6  13
HETATM   13  C3  UNL     1      17.516  42.328  25.816  1.00  0.00     0.177 C
BRANCH  13  14
HETATM   14  C2  UNL     1      16.390  41.579  25.203  1.00  0.00    -0.015 C
HETATM   15  C1  UNL     1      15.317  41.203  25.840  1.00  0.00     0.008 C
ENDBRANCH  13  14
ENDBRANCH   6  13
ENDBRANCH   2   3
BRANCH   2  16
HETATM   16  O1  UNL     1      22.661  40.639  26.612  1.00  0.00    -0.363 OA
ATOM     17  H1  UNL     1      22.823  41.551  26.397  1.00  0.00     0.217 HD
ENDBRANCH   2  16
ENDBRANCH   1   2
BRANCH   1  18
HETATM   18  S1  UNL     1      23.888  38.245  26.308  1.00  0.00    -0.104 SA
BRANCH  18  19
HETATM   19  C11 UNL     1      25.095  37.545  25.224  1.00  0.00     0.091 A
HETATM   20  C12 UNL     1      26.084  38.244  24.509  1.00  0.00     0.081 A
HETATM   21  C15 UNL     1      26.861  37.306  23.853  1.00  0.00     0.133 A
HETATM   22  C16 UNL     1      26.328  36.079  24.178  1.00  0.00     0.178 A
HETATM   23  N3  UNL     1      25.267  36.237  25.002  1.00  0.00    -0.316 N
BRANCH  20  24
HETATM   24  C13 UNL     1      26.269  39.688  24.391  1.00  0.00     0.161 C
HETATM   25  C14 UNL     1      25.221  40.676  24.074  1.00  0.00     0.097 C
HETATM   26  O2  UNL     1      27.434  40.188  24.563  1.00  0.00    -0.293 OA
ENDBRANCH  20  24
BRANCH  21  27
HETATM   27  O3  UNL     1      27.940  37.530  23.044  1.00  0.00    -0.356 OA
ATOM     28  H3  UNL     1      28.249  36.994  22.323  1.00  0.00     0.218 HD
ENDBRANCH  21  27
BRANCH  22  29
HETATM   29  O4  UNL     1      26.855  34.885  23.694  1.00  0.00    -0.344 OA
ATOM     30  H4  UNL     1      27.293  34.257  24.256  1.00  0.00     0.219 HD
ENDBRANCH  22  29
BRANCH  23  31
HETATM   31  C17 UNL     1      24.533  35.093  25.509  1.00  0.00     0.158 C
BRANCH  31  32
HETATM   32  C18 UNL     1      23.310  34.778  24.766  1.00  0.00    -0.017 C
HETATM   33  C19 UNL     1      22.678  33.624  24.969  1.00  0.00     0.008 C
ENDBRANCH  31  32
ENDBRANCH  23  31
ENDBRANCH  18  19
ENDBRANCH   1  18
TORSDOF 13
ENDMDL