MODEL 3
REMARK VINA RESULT: -7.088224639      3.928      7.831
REMARK  12 active torsions:
REMARK  status: ('A' for Active; 'I' for Inactive)
REMARK    1  A    between atoms: C2_2  and  C3_3
REMARK    2  A    between atoms: C3_3  and  C4_4
REMARK    3  A    between atoms: C4_4  and  C5_5
REMARK    4  A    between atoms: C5_5  and  O1_6
REMARK    5  A    between atoms: C5_5  and  C6_8
REMARK    6  A    between atoms: C6_8  and  C7_9
REMARK    7  A    between atoms: C7_9  and  S1_10
REMARK    8  A    between atoms: S1_10  and  S2_11
REMARK    9  A    between atoms: S2_11  and  C8_12
REMARK   10  A    between atoms: C11_16  and  N2_17
REMARK   11  A    between atoms: C14_22  and  N4_23
REMARK   12  A    between atoms: C17_33  and  C18_34
ROOT
HETATM    1  C8  UNL     1      22.462  40.112  24.700  1.00  0.00     0.137 C
HETATM    2  C9  UNL     1      21.891  38.818  24.293  1.00  0.00     0.084 C
HETATM    3  N1  UNL     1      21.424  37.803  23.980  1.00  0.00    -0.195 NA
HETATM    4  C10 UNL     1      22.946  40.899  23.489  1.00  0.00     0.093 C
HETATM    5  C11 UNL     1      21.839  41.899  23.234  1.00  0.00     0.233 C
HETATM    6  O2  UNL     1      20.799  41.478  24.018  1.00  0.00    -0.358 OA
HETATM    7  C17 UNL     1      21.350  40.983  25.202  1.00  0.00     0.157 C
ENDROOT
BRANCH   1   8
HETATM    8  S2  UNL     1      23.852  39.909  25.786  1.00  0.00    -0.069 SA
BRANCH   8   9
HETATM    9  S1  UNL     1      25.611  39.808  24.601  1.00  0.00    -0.096 SA
BRANCH   9  10
HETATM   10  C7  UNL     1      26.552  38.436  25.246  1.00  0.00     0.088 C
BRANCH  10  11
HETATM   11  C6  UNL     1      26.806  37.426  24.191  1.00  0.00     0.042 C
BRANCH  11  12
HETATM   12  C5  UNL     1      25.953  36.221  24.153  1.00  0.00     0.118 C
BRANCH  12  13
HETATM   13  C4  UNL     1      24.802  36.158  25.114  1.00  0.00     0.032 C
BRANCH  13  14
HETATM   14  C3  UNL     1      23.843  35.080  24.604  1.00  0.00     0.002 C
BRANCH  14  15
HETATM   15  C2  UNL     1      23.632  34.083  25.735  1.00  0.00    -0.004 C
HETATM   16  C1  UNL     1      22.679  33.001  25.299  1.00  0.00     0.005 C
ENDBRANCH  14  15
ENDBRANCH  13  14
ENDBRANCH  12  13
BRANCH  12  17
HETATM   17  O1  UNL     1      26.647  35.005  24.094  1.00  0.00    -0.396 OA
ATOM     18  H1  UNL     1      27.586  35.133  24.159  1.00  0.00     0.210 HD
ENDBRANCH  12  17
ENDBRANCH  11  12
ENDBRANCH  10  11
ENDBRANCH   9  10
ENDBRANCH   8   9
ENDBRANCH   1   8
BRANCH   7  19
HETATM   19  C18 UNL     1      20.235  40.145  25.834  1.00  0.00     0.030 C
HETATM   20  C19 UNL     1      20.205  40.468  27.312  1.00  0.00     0.007 C
ENDBRANCH   7  19
BRANCH   5  21
HETATM   21  N2  UNL     1      21.509  41.896  21.820  1.00  0.00    -0.300 N
HETATM   22  C12 UNL     1      21.563  42.999  21.052  1.00  0.00     0.188 A
HETATM   23  N3  UNL     1      21.201  42.679  19.777  1.00  0.00    -0.346 N
HETATM   24  C13 UNL     1      20.914  41.380  19.727  1.00  0.00     0.122 A
ATOM     25  H3  UNL     1      21.156  43.328  18.992  1.00  0.00     0.167 HD
HETATM   26  C14 UNL     1      20.501  40.554  18.705  1.00  0.00     0.131 A
HETATM   27  C16 UNL     1      21.115  40.904  21.019  1.00  0.00     0.142 A
HETATM   28  N5  UNL     1      20.293  39.259  18.983  1.00  0.00    -0.337 N
HETATM   29  C15 UNL     1      20.492  38.803  20.255  1.00  0.00     0.183 A
ATOM     30  H5  UNL     1      19.987  38.618  18.251  1.00  0.00     0.168 HD
HETATM   31  N6  UNL     1      20.895  39.615  21.251  1.00  0.00    -0.336 N
ATOM     32  H6  UNL     1      21.033  39.238  22.189  1.00  0.00     0.168 HD
BRANCH  26  33
HETATM   33  N4  UNL     1      20.303  40.945  17.496  1.00  0.00    -0.383 N
ATOM     34  H42 UNL     1      21.123  41.142  16.922  1.00  0.00     0.157 HD
ATOM     35  H41 UNL     1      19.381  41.069  17.078  1.00  0.00     0.157 HD
ENDBRANCH  26  33
ENDBRANCH   5  21
TORSDOF 12
ENDMDL