MODEL 5
REMARK VINA RESULT: -7.154396941      2.700      5.354
REMARK  13 active torsions:
REMARK  status: ('A' for Active; 'I' for Inactive)
REMARK    1  A    between atoms: C2_2  and  C4_4
REMARK    2  A    between atoms: C4_4  and  N2_8
REMARK    3  A    between atoms: N2_8  and  C5_10
REMARK    4  A    between atoms: C5_10  and  C6_11
REMARK    5  A    between atoms: C6_11  and  N3_12
REMARK    6  A    between atoms: N3_12  and  C8_14
REMARK    7  A    between atoms: C8_14  and  C9_15
REMARK    8  A    between atoms: C9_15  and  O1_16
REMARK    9  A    between atoms: O1_16  and  C10_17
REMARK   10  A    between atoms: N4_18  and  C11_20
REMARK   11  A    between atoms: C13_22  and  O2_23
REMARK   12  A    between atoms: C14_25  and  C15_26
REMARK   13  A    between atoms: N8_33  and  C16_34
ROOT
HETATM    1  C11 UNL     1      22.412  40.242  24.713  1.00  0.00     0.078 A
HETATM    2  C12 UNL     1      22.083  41.572  24.721  1.00  0.00     0.075 A
HETATM    3  C13 UNL     1      21.073  41.966  23.916  1.00  0.00     0.089 A
HETATM    4  C14 UNL     1      20.464  40.985  23.157  1.00  0.00     0.087 A
HETATM    5  S1  UNL     1      21.315  39.597  23.599  1.00  0.00    -0.066 SA
ENDROOT
BRANCH   1   6
HETATM    6  N4  UNL     1      23.450  39.600  25.490  1.00  0.00    -0.342 N
HETATM    7  C10 UNL     1      24.411  39.069  24.819  1.00  0.00     0.227 C
ATOM      8  H4  UNL     1      23.421  39.569  26.509  1.00  0.00     0.167 HD
BRANCH   7   9
HETATM    9  O1  UNL     1      25.422  38.442  25.562  1.00  0.00    -0.345 OA
BRANCH   9  10
HETATM   10  C9  UNL     1      26.734  38.943  25.442  1.00  0.00     0.206 C
BRANCH  10  11
HETATM   11  C8  UNL     1      27.656  37.800  25.128  1.00  0.00     0.298 C
BRANCH  11  12
HETATM   12  N3  UNL     1      28.047  37.752  23.747  1.00  0.00     0.087 N
HETATM   13  C7  UNL     1      28.049  39.115  23.186  1.00  0.00     0.310 C
BRANCH  12  14
HETATM   14  C6  UNL     1      27.296  36.857  22.927  1.00  0.00     0.291 C
BRANCH  14  15
HETATM   15  C5  UNL     1      26.783  35.708  23.741  1.00  0.00     0.151 C
BRANCH  15  16
HETATM   16  N2  UNL     1      25.340  35.660  23.819  1.00  0.00    -0.378 N
ATOM     17  H2  UNL     1      24.815  35.995  23.012  1.00  0.00     0.160 HD
BRANCH  16  18
HETATM   18  C4  UNL     1      24.599  35.183  24.926  1.00  0.00     0.074 C
HETATM   19  N1  UNL     1      25.096  35.226  26.089  1.00  0.00    -0.389 N
ATOM     20  H12 UNL     1      24.562  34.882  26.887  1.00  0.00     0.157 HD
ATOM     21  H11 UNL     1      26.031  35.600  26.249  1.00  0.00     0.157 HD
BRANCH  18  22
HETATM   22  C2  UNL     1      23.242  34.640  24.693  1.00  0.00     0.044 C
HETATM   23  C1  UNL     1      22.185  35.684  24.994  1.00  0.00     0.017 C
HETATM   24  C3  UNL     1      23.038  33.436  25.609  1.00  0.00     0.017 C
ENDBRANCH  18  22
ENDBRANCH  16  18
ENDBRANCH  15  16
ENDBRANCH  14  15
ENDBRANCH  12  14
ENDBRANCH  11  12
ENDBRANCH  10  11
ENDBRANCH   9  10
ENDBRANCH   7   9
ENDBRANCH   1   6
BRANCH   3  25
HETATM   25  O2  UNL     1      20.669  43.330  23.864  1.00  0.00    -0.359 OA
ATOM     26  H2  UNL     1      20.017  43.669  24.467  1.00  0.00     0.217 HD
ENDBRANCH   3  25
BRANCH   4  27
HETATM   27  C15 UNL     1      19.338  41.239  22.222  1.00  0.00     0.160 A
HETATM   28  N5  UNL     1      18.135  41.720  22.592  1.00  0.00    -0.267 N
HETATM   29  N6  UNL     1      17.413  41.811  21.512  1.00  0.00    -0.226 N
ATOM     30  H5  UNL     1      17.844  41.966  23.538  1.00  0.00     0.190 HD
HETATM   31  N7  UNL     1      18.123  41.407  20.504  1.00  0.00    -0.224 N
ATOM     32  H6  UNL     1      16.450  42.144  21.465  1.00  0.00     0.210 HD
HETATM   33  N8  UNL     1      19.348  41.038  20.925  1.00  0.00    -0.250 N
ATOM     34  H7  UNL     1      17.802  41.374  19.536  1.00  0.00     0.210 HD
BRANCH  33  35
HETATM   35  C16 UNL     1      20.337  40.548  19.994  1.00  0.00     0.046 C
HETATM   36  C17 UNL     1      19.775  40.839  18.579  1.00  0.00     0.040 C
HETATM   37  C18 UNL     1      20.567  39.077  20.023  1.00  0.00     0.040 C
HETATM   38  C19 UNL     1      21.589  41.361  20.088  1.00  0.00     0.040 C
ENDBRANCH  33  35
ENDBRANCH   4  27
TORSDOF 13
ENDMDL