MODEL 1
REMARK VINA RESULT: -6.037199319      0.000      0.000
REMARK  7 active torsions:
REMARK  status: ('A' for Active; 'I' for Inactive)
REMARK    1  A    between atoms: C2_2  and  C3_3
REMARK    2  A    between atoms: C3_3  and  N1_6
REMARK       I    between atoms: N1_6  and  C6_8
REMARK    3  A    between atoms: C6_8  and  C7_10
REMARK    4  A    between atoms: C7_10  and  N2_11
REMARK    5  A    between atoms: N2_11  and  N3_12
REMARK       I    between atoms: N2_11  and  C16_23
REMARK       I    between atoms: N3_12  and  C8_14
REMARK    6  A    between atoms: C8_14  and  C9_16
REMARK    7  A    between atoms: C16_23  and  C17_25
ROOT
HETATM    1  N2  UNL     1      -4.671 -40.502   2.190  1.00  0.00    -0.249 N
HETATM    2  C16 UNL     1      -4.949 -41.217   1.022  1.00  0.00     0.242 C
HETATM    3  O3  UNL     1      -6.155 -41.217   0.597  1.00  0.00    -0.271 OA
ENDROOT
BRANCH   1   4
HETATM    4  C7  UNL     1      -3.334 -40.429   2.720  1.00  0.00     0.255 C
BRANCH   4   5
HETATM    5  C6  UNL     1      -2.808 -39.036   2.724  1.00  0.00     0.238 C
HETATM    6  N1  UNL     1      -2.266 -38.424   1.566  1.00  0.00    -0.351 N
ATOM      7  H1  UNL     1      -2.237 -38.960   0.697  1.00  0.00     0.163 HD
HETATM    8  O1  UNL     1      -2.857 -38.402   3.802  1.00  0.00    -0.272 OA
BRANCH   6   9
HETATM    9  C3  UNL     1      -1.758 -37.080   1.563  1.00  0.00     0.025 C
HETATM   10  C4  UNL     1      -0.882 -36.790   2.776  1.00  0.00     0.038 C
HETATM   11  C5  UNL     1      -2.926 -36.086   1.552  1.00  0.00     0.038 C
BRANCH   9  12
HETATM   12  C2  UNL     1      -0.922 -36.815   0.356  1.00  0.00     0.026 C
HETATM   13  C1  UNL     1       0.366 -37.606   0.417  1.00  0.00     0.007 C
ENDBRANCH   9  12
ENDBRANCH   6   9
ENDBRANCH   4   5
ENDBRANCH   1   4
BRANCH   1  14
HETATM   14  N3  UNL     1      -5.670 -39.825   2.905  1.00  0.00    -0.264 N
HETATM   15  C8  UNL     1      -6.165 -38.553   2.530  1.00  0.00     0.245 C
HETATM   16  O2  UNL     1      -5.667 -38.008   1.492  1.00  0.00    -0.271 OA
ATOM     17  H3  UNL     1      -6.060 -40.271   3.734  1.00  0.00     0.190 HD
BRANCH  15  18
HETATM   18  C9  UNL     1      -7.220 -37.845   3.286  1.00  0.00     0.042 C
HETATM   19  C10 UNL     1      -8.285 -38.853   3.646  1.00  0.00     0.026 C
HETATM   20  C11 UNL     1      -6.639 -37.212   4.515  1.00  0.00     0.019 C
HETATM   21  C12 UNL     1      -7.301 -35.860   4.569  1.00  0.00     0.002 C
HETATM   22  C13 UNL     1      -7.296 -35.437   3.101  1.00  0.00     0.005 C
HETATM   23  C14 UNL     1      -7.823 -36.722   2.463  1.00  0.00    -0.001 C
HETATM   24  C15 UNL     1      -9.328 -36.692   2.627  1.00  0.00     0.011 C
ENDBRANCH  15  18
ENDBRANCH   1  14
BRANCH   2  25
HETATM   25  C17 UNL     1      -3.971 -41.970   0.243  1.00  0.00     0.080 C
HETATM   26  C18 UNL     1      -3.542 -43.318   0.785  1.00  0.00     0.014 C
HETATM   27  C19 UNL     1      -4.250 -44.010  -0.371  1.00  0.00     0.002 C
HETATM   28  C20 UNL     1      -4.480 -42.649  -0.985  1.00  0.00     0.014 C
ENDBRANCH   2  25
TORSDOF 7
ENDMDL