MODEL 1
REMARK VINA RESULT: -6.643502689      0.000      0.000
REMARK  6 active torsions:
REMARK  status: ('A' for Active; 'I' for Inactive)
REMARK       I    between atoms: N1_7  and  C7_8
REMARK    1  A    between atoms: C7_8  and  C8_10
REMARK    2  A    between atoms: C8_10  and  N2_11
REMARK    3  A    between atoms: C8_10  and  C14_20
REMARK    4  A    between atoms: N2_11  and  C9_14
REMARK    5  A    between atoms: C9_14  and  C10_15
REMARK       I    between atoms: C14_20  and  N3_22
REMARK    6  A    between atoms: N3_22  and  C15_24
ROOT
HETATM    1  C8  UNL     1      -4.823 -37.971   2.692  1.00  0.00     0.368 C
ENDROOT
BRANCH   1   2
HETATM    2  C7  UNL     1      -3.613 -37.241   2.262  1.00  0.00     0.260 C
HETATM    3  N1  UNL     1      -2.315 -37.801   2.342  1.00  0.00    -0.346 N
HETATM    4  C2  UNL     1      -1.121 -37.077   1.949  1.00  0.00     0.083 C
HETATM    5  C6  UNL     1      -2.120 -39.158   2.802  1.00  0.00     0.126 C
HETATM    6  C1  UNL     1      -1.378 -36.370   0.638  1.00  0.00     0.032 C
HETATM    7  C3  UNL     1       0.054 -38.001   1.756  1.00  0.00     0.025 C
HETATM    8  C4  UNL     1       0.298 -38.917   2.907  1.00  0.00     0.004 C
HETATM    9  C5  UNL     1      -0.930 -39.116   3.768  1.00  0.00     0.020 C
HETATM   10  O1  UNL     1      -3.691 -36.052   1.787  1.00  0.00    -0.270 OA
ENDBRANCH   1   2
BRANCH   1  11
HETATM   11  N2  UNL     1      -5.456 -38.704   1.592  1.00  0.00    -0.048 N
ATOM     12  H22 UNL     1      -6.260 -38.202   1.214  1.00  0.00     0.279 HD
ATOM     13  H21 UNL     1      -4.874 -38.710   0.755  1.00  0.00     0.279 HD
BRANCH  11  14
HETATM   14  C9  UNL     1      -5.801 -40.029   2.013  1.00  0.00     0.298 C
BRANCH  14  15
HETATM   15  C10 UNL     1      -5.466 -41.033   0.971  1.00  0.00     0.078 A
HETATM   16  C11 UNL     1      -4.192 -41.500   0.717  1.00  0.00     0.036 A
HETATM   17  C12 UNL     1      -4.273 -42.415  -0.312  1.00  0.00     0.027 A
HETATM   18  C13 UNL     1      -5.605 -42.469  -0.650  1.00  0.00     0.142 A
HETATM   19  O2  UNL     1      -6.250 -41.646   0.127  1.00  0.00    -0.325 OA
ENDBRANCH  14  15
ENDBRANCH  11  14
ENDBRANCH   1  11
BRANCH   1  20
HETATM   20  C14 UNL     1      -5.893 -37.084   3.232  1.00  0.00     0.258 C
HETATM   21  O3  UNL     1      -6.254 -37.341   4.436  1.00  0.00    -0.271 OA
HETATM   22  N3  UNL     1      -6.515 -36.024   2.533  1.00  0.00    -0.354 N
ATOM     23  H3  UNL     1      -6.250 -35.803   1.572  1.00  0.00     0.162 HD
BRANCH  22  24
HETATM   24  C15 UNL     1      -7.541 -35.260   3.218  1.00  0.00     0.084 C
HETATM   25  C16 UNL     1      -8.936 -35.719   2.764  1.00  0.00     0.025 C
HETATM   26  C17 UNL     1      -9.873 -35.048   3.776  1.00  0.00     0.002 C
HETATM   27  C18 UNL     1      -9.851 -33.566   3.595  1.00  0.00     0.000 C
HETATM   28  C19 UNL     1      -8.544 -32.948   3.308  1.00  0.00     0.002 C
HETATM   29  C20 UNL     1      -7.432 -33.817   2.883  1.00  0.00     0.025 C
ENDBRANCH  22  24
ENDBRANCH   1  20
TORSDOF 6
ENDMDL