MODEL 2
REMARK VINA RESULT: -6.456098828      1.251      1.372
REMARK  6 active torsions:
REMARK  status: ('A' for Active; 'I' for Inactive)
REMARK       I    between atoms: C2_2  and  N1_4
REMARK    1  A    between atoms: N1_4  and  C3_6
REMARK    2  A    between atoms: C6_9  and  C7_10
REMARK    3  A    between atoms: C7_10  and  C8_11
REMARK    4  A    between atoms: C8_11  and  C9_12
REMARK    5  A    between atoms: C9_12  and  C10_13
REMARK    6  A    between atoms: C10_13  and  N2_14
ROOT
HETATM    1  C7  UNL     1      -6.957 -36.206   3.531  1.00  0.00     0.005 C
ENDROOT
BRANCH   1   2
HETATM    2  C6  UNL     1      -6.306 -37.035   2.512  1.00  0.00    -0.011 C
HETATM    3  C5  UNL     1      -5.231 -36.445   1.703  1.00  0.00     0.007 C
HETATM    4  C4  UNL     1      -4.015 -37.360   1.558  1.00  0.00     0.025 C
HETATM    5  C3  UNL     1      -3.535 -37.697   2.925  1.00  0.00     0.084 C
HETATM    6  C18 UNL     1      -4.579 -38.390   3.765  1.00  0.00     0.029 C
HETATM    7  C16 UNL     1      -5.934 -38.391   3.114  1.00  0.00    -0.013 C
HETATM    8  C17 UNL     1      -6.135 -39.526   2.137  1.00  0.00     0.010 C
BRANCH   5   9
HETATM    9  N1  UNL     1      -2.317 -38.486   2.840  1.00  0.00    -0.357 N
HETATM   10  C2  UNL     1      -1.036 -37.945   3.078  1.00  0.00     0.213 C
HETATM   11  C1  UNL     1       0.167 -38.808   2.973  1.00  0.00     0.117 C
HETATM   12  O1  UNL     1      -0.902 -36.750   3.375  1.00  0.00    -0.274 OA
ATOM     13  H1  UNL     1      -2.392 -39.474   2.597  1.00  0.00     0.162 HD
ENDBRANCH   5   9
ENDBRANCH   1   2
BRANCH   1  14
HETATM   14  C8  UNL     1      -8.013 -35.263   3.115  1.00  0.00     0.002 C
BRANCH  14  15
HETATM   15  C9  UNL     1      -7.663 -33.944   2.580  1.00  0.00     0.015 C
BRANCH  15  16
HETATM   16  C10 UNL     1      -7.333 -32.870   3.569  1.00  0.00     0.106 C
BRANCH  16  17
HETATM   17  N2  UNL     1      -8.362 -32.208   4.211  1.00  0.00    -0.216 NA
HETATM   18  C11 UNL     1      -8.632 -32.320   5.596  1.00  0.00     0.109 C
HETATM   19  C12 UNL     1      -7.409 -32.055   6.459  1.00  0.00     0.047 C
HETATM   20  C13 UNL     1      -6.924 -30.650   6.173  1.00  0.00     0.040 A
HETATM   21  C14 UNL     1      -6.094 -30.063   7.278  1.00  0.00     0.034 A
HETATM   22  C15 UNL     1      -5.501 -30.363   5.959  1.00  0.00     0.034 A
HETATM   23  N3  UNL     1      -7.893 -29.806   5.544  1.00  0.00    -0.318 N
HETATM   24  S1  UNL     1      -8.243 -30.435   3.931  1.00  0.00     0.193 S
ATOM     25  H3  UNL     1      -8.315 -28.975   5.961  1.00  0.00     0.172 HD
HETATM   26  O2  UNL     1      -7.095 -30.170   2.976  1.00  0.00    -0.218 OA
ENDBRANCH  16  17
ENDBRANCH  15  16
ENDBRANCH  14  15
ENDBRANCH   1  14
TORSDOF 6
ENDMDL