MODEL 4
REMARK VINA RESULT: -5.641447571      1.068      1.296
REMARK  7 active torsions:
REMARK  status: ('A' for Active; 'I' for Inactive)
REMARK    1  A    between atoms: C4_4  and  C5_5
REMARK    2  A    between atoms: C5_5  and  N1_6
REMARK    3  A    between atoms: N1_6  and  S1_8
REMARK    4  A    between atoms: S1_8  and  N2_10
REMARK    5  A    between atoms: S1_8  and  N3_15
REMARK    6  A    between atoms: N2_10  and  C6_12
REMARK    7  A    between atoms: N3_15  and  C8_17
ROOT
HETATM    1  S1  UNL     1      -6.986 -36.439   2.650  1.00  0.00     0.192 S
HETATM    2  O1  UNL     1      -8.291 -37.135   2.509  1.00  0.00    -0.206 OA
ENDROOT
BRANCH   1   3
HETATM    3  N1  UNL     1      -7.111 -34.792   2.132  1.00  0.00    -0.316 N
ATOM      4  H1  UNL     1      -6.607 -34.398   1.338  1.00  0.00     0.172 HD
BRANCH   3   5
HETATM    5  C5  UNL     1      -8.029 -34.045   2.977  1.00  0.00     0.159 C
BRANCH   5   6
HETATM    6  C4  UNL     1      -7.364 -32.731   3.263  1.00  0.00    -0.005 C
HETATM    7  C2  UNL     1      -7.143 -32.306   4.490  1.00  0.00    -0.090 C
HETATM    8  C1  UNL     1      -7.565 -33.156   5.631  1.00  0.00     0.042 C
HETATM    9  C3  UNL     1      -6.487 -31.010   4.773  1.00  0.00     0.042 C
ENDBRANCH   5   6
ENDBRANCH   3   5
ENDBRANCH   1   3
BRANCH   1  10
HETATM   10  N2  UNL     1      -6.650 -36.409   4.186  1.00  0.00    -0.302 N
ATOM     11  H2  UNL     1      -6.036 -35.686   4.561  1.00  0.00     0.173 HD
BRANCH  10  12
HETATM   12  C6  UNL     1      -7.215 -37.414   5.069  1.00  0.00     0.185 C
HETATM   13  C7  UNL     1      -6.113 -37.857   6.007  1.00  0.00     0.050 C
HETATM   14 CL1  UNL     1      -8.494 -36.689   6.075  1.00  0.00    -0.102 Cl
ENDBRANCH  10  12
ENDBRANCH   1  10
BRANCH   1  15
HETATM   15  N3  UNL     1      -5.705 -37.178   1.806  1.00  0.00    -0.313 N
ATOM     16  H3  UNL     1      -5.848 -37.793   1.006  1.00  0.00     0.172 HD
BRANCH  15  17
HETATM   17  C8  UNL     1      -4.399 -36.854   2.326  1.00  0.00     0.121 C
HETATM   18  C9  UNL     1      -3.540 -36.415   1.168  1.00  0.00     0.029 C
HETATM   19  C10 UNL     1      -2.071 -36.405   1.502  1.00  0.00     0.038 C
HETATM   20  C11 UNL     1      -1.729 -37.824   1.974  1.00  0.00     0.223 C
HETATM   21  C12 UNL     1      -0.258 -37.857   2.230  1.00  0.00     0.036 C
HETATM   22  N4  UNL     1      -2.433 -38.010   3.212  1.00  0.00     0.095 N
HETATM   23  C13 UNL     1       0.213 -39.125   2.883  1.00  0.00     0.004 C
HETATM   24  C14 UNL     1      -0.956 -39.968   3.339  1.00  0.00     0.030 C
HETATM   25  C15 UNL     1      -1.954 -39.076   4.017  1.00  0.00     0.273 C
HETATM   26  C16 UNL     1      -3.869 -38.036   3.060  1.00  0.00     0.298 C
ENDBRANCH  15  17
ENDBRANCH   1  15
TORSDOF 7
ENDMDL