MODEL 1
REMARK VINA RESULT: -6.847274697      0.000      0.000
REMARK  6 active torsions:
REMARK  status: ('A' for Active; 'I' for Inactive)
REMARK    1  A    between atoms: N2_9  and  C6_11
REMARK    2  A    between atoms: C6_11  and  C7_12
REMARK    3  A    between atoms: C6_11  and  C12_18
REMARK    4  A    between atoms: C7_12  and  C8_13
REMARK       I    between atoms: C12_18  and  N3_20
REMARK    5  A    between atoms: N3_20  and  C13_22
REMARK    6  A    between atoms: C13_22  and  C14_23
ROOT
HETATM    1  C6  UNL     1      -4.607 -38.595   1.821  1.00  0.00     0.177 C
ENDROOT
BRANCH   1   2
HETATM    2  N2  UNL     1      -5.394 -38.115   2.903  1.00  0.00    -0.362 N
HETATM    3  C5  UNL     1      -6.160 -37.095   2.933  1.00  0.00     0.108 A
HETATM    4  N1  UNL     1      -6.374 -36.250   1.919  1.00  0.00    -0.350 N
HETATM    5  C19 UNL     1      -6.827 -36.834   4.122  1.00  0.00    -0.011 A
HETATM    6  C4  UNL     1      -7.195 -35.200   2.033  1.00  0.00     0.114 A
ATOM      7  H1  UNL     1      -5.898 -36.413   1.031  1.00  0.00     0.166 HD
HETATM    8  C3  UNL     1      -7.874 -34.924   3.225  1.00  0.00     0.056 A
HETATM    9  C2  UNL     1      -7.682 -35.770   4.300  1.00  0.00    -0.029 A
HETATM   10 CL1  UNL     1      -8.944 -33.569   3.404  1.00  0.00    -0.082 Cl
HETATM   11  C1  UNL     1      -8.372 -35.545   5.608  1.00  0.00     0.050 C
HETATM   12  C20 UNL     1      -6.617 -37.743   5.272  1.00  0.00     0.052 C
ATOM     13  H2  UNL     1      -5.340 -38.656   3.766  1.00  0.00     0.162 HD
ENDBRANCH   1   2
BRANCH   1  14
HETATM   14  C7  UNL     1      -3.125 -38.615   2.136  1.00  0.00     0.066 C
BRANCH  14  15
HETATM   15  C8  UNL     1      -2.647 -37.294   2.687  1.00  0.00     0.123 C
HETATM   16  C9  UNL     1      -1.136 -37.248   2.624  1.00  0.00     0.034 C
HETATM   17  C10 UNL     1      -0.799 -36.420   1.406  1.00  0.00     0.029 C
HETATM   18  C11 UNL     1      -2.172 -36.158   0.821  1.00  0.00     0.168 C
HETATM   19  O1  UNL     1      -3.021 -36.216   1.915  1.00  0.00    -0.386 OA
ENDBRANCH  14  15
ENDBRANCH   1  14
BRANCH   1  20
HETATM   20  C12 UNL     1      -4.984 -39.990   1.522  1.00  0.00     0.240 C
HETATM   21  O2  UNL     1      -6.171 -40.343   1.683  1.00  0.00    -0.271 OA
HETATM   22  N3  UNL     1      -4.020 -40.904   1.065  1.00  0.00    -0.359 N
ATOM     23  H3  UNL     1      -3.052 -40.608   0.936  1.00  0.00     0.162 HD
BRANCH  22  24
HETATM   24  C13 UNL     1      -4.413 -42.283   0.776  1.00  0.00     0.127 C
BRANCH  24  25
HETATM   25  C14 UNL     1      -4.515 -42.416  -0.723  1.00  0.00     0.003 C
HETATM   26  C15 UNL     1      -3.806 -43.723  -1.091  1.00  0.00     0.006 C
HETATM   27  C16 UNL     1      -4.390 -44.056  -2.444  1.00  0.00     0.000 C
HETATM   28  C17 UNL     1      -5.677 -43.259  -2.571  1.00  0.00     0.000 C
HETATM   29  C18 UNL     1      -5.922 -42.697  -1.171  1.00  0.00     0.006 C
ENDBRANCH  24  25
ENDBRANCH  22  24
ENDBRANCH   1  20
TORSDOF 6
ENDMDL