MODEL 3
REMARK VINA RESULT: -6.431842586      4.434      6.421
REMARK  6 active torsions:
REMARK  status: ('A' for Active; 'I' for Inactive)
REMARK    1  A    between atoms: C2_2  and  C4_4
REMARK    2  A    between atoms: C4_4  and  C5_5
REMARK    3  A    between atoms: C5_5  and  N1_6
REMARK    4  A    between atoms: C5_5  and  C16_20
REMARK       I    between atoms: N1_6  and  C6_8
REMARK    5  A    between atoms: C6_8  and  C7_10
REMARK    6  A    between atoms: C11_15  and  C12_16
REMARK       I    between atoms: C16_20  and  N2_22
ROOT
HETATM    1  C5  UNL     1      -7.178 -36.829   3.341  1.00  0.00     0.177 C
ENDROOT
BRANCH   1   2
HETATM    2  C4  UNL     1      -7.982 -38.070   3.273  1.00  0.00     0.038 C
BRANCH   2   3
HETATM    3  C2  UNL     1      -7.462 -39.282   3.943  1.00  0.00    -0.020 C
HETATM    4  C1  UNL     1      -7.167 -40.345   2.863  1.00  0.00     0.009 C
HETATM    5  C3  UNL     1      -8.479 -39.948   4.843  1.00  0.00     0.009 C
ENDBRANCH   2   3
ENDBRANCH   1   2
BRANCH   1   6
HETATM    6  N1  UNL     1      -5.748 -37.099   3.410  1.00  0.00    -0.344 N
HETATM    7  C6  UNL     1      -4.921 -37.289   2.308  1.00  0.00     0.252 C
HETATM    8  O1  UNL     1      -5.413 -37.227   1.157  1.00  0.00    -0.268 OA
ATOM      9  H1  UNL     1      -5.322 -37.154   4.335  1.00  0.00     0.163 HD
BRANCH   7  10
HETATM   10  C7  UNL     1      -3.507 -37.556   2.456  1.00  0.00     0.034 A
HETATM   11  C8  UNL     1      -2.594 -36.777   1.735  1.00  0.00     0.041 A
HETATM   12  C9  UNL     1      -1.239 -36.987   1.835  1.00  0.00     0.035 A
HETATM   13 CL1  UNL     1      -0.157 -35.976   0.905  1.00  0.00    -0.084 Cl
HETATM   14  C10 UNL     1      -0.762 -37.998   2.674  1.00  0.00     0.031 A
HETATM   15  C11 UNL     1      -1.630 -38.787   3.400  1.00  0.00    -0.052 A
HETATM   16  C15 UNL     1      -2.981 -38.538   3.267  1.00  0.00     0.024 A
BRANCH  15  17
HETATM   17  C12 UNL     1      -1.121 -39.872   4.299  1.00  0.00     0.010 C
HETATM   18  C13 UNL     1       0.122 -40.516   3.701  1.00  0.00     0.015 C
HETATM   19  C14 UNL     1      -2.166 -40.923   4.566  1.00  0.00     0.015 C
ENDBRANCH  15  17
ENDBRANCH   7  10
ENDBRANCH   1   6
BRANCH   1  20
HETATM   20  C16 UNL     1      -7.517 -35.842   4.360  1.00  0.00     0.242 C
HETATM   21  O2  UNL     1      -7.689 -36.264   5.553  1.00  0.00    -0.271 OA
HETATM   22  N2  UNL     1      -7.677 -34.450   4.176  1.00  0.00    -0.347 N
HETATM   23  C17 UNL     1      -7.515 -33.741   2.924  1.00  0.00     0.153 C
HETATM   24  C20 UNL     1      -8.036 -33.570   5.309  1.00  0.00     0.153 C
HETATM   25  C18 UNL     1      -7.229 -32.291   3.259  1.00  0.00     0.252 C
HETATM   26  N3  UNL     1      -6.336 -32.150   4.375  1.00  0.00    -0.072 N
HETATM   27  C19 UNL     1      -6.804 -32.743   5.587  1.00  0.00     0.252 C
ATOM     28  H32 UNL     1      -5.412 -32.510   4.137  1.00  0.00     0.277 HD
ATOM     29  H31 UNL     1      -6.108 -31.168   4.525  1.00  0.00     0.277 HD
ENDBRANCH   1  20
TORSDOF 6
ENDMDL