MODEL 5
REMARK VINA RESULT: -5.724740388      1.335      1.578
REMARK  6 active torsions:
REMARK  status: ('A' for Active; 'I' for Inactive)
REMARK    1  A    between atoms: C6_7  and  C7_8
REMARK    2  A    between atoms: C7_8  and  N1_9
REMARK    3  A    between atoms: C7_8  and  C11_17
REMARK    4  A    between atoms: N1_9  and  S1_11
REMARK    5  A    between atoms: S1_11  and  C8_14
REMARK       I    between atoms: C11_17  and  N2_19
REMARK    6  A    between atoms: N2_19  and  C12_21
ROOT
HETATM    1  C7  UNL     1      -5.392 -37.821   2.386  1.00  0.00     0.219 C
ENDROOT
BRANCH   1   2
HETATM    2  C6  UNL     1      -4.037 -37.346   2.033  1.00  0.00    -0.004 A
HETATM    3  C5  UNL     1      -3.777 -36.479   1.009  1.00  0.00     0.043 A
HETATM    4  C4  UNL     1      -2.517 -36.018   0.724  1.00  0.00     0.025 A
HETATM    5 CL1  UNL     1      -5.087 -35.937  -0.027  1.00  0.00    -0.084 Cl
HETATM    6  C3  UNL     1      -1.463 -36.462   1.517  1.00  0.00     0.008 A
HETATM    7  C2  UNL     1      -1.717 -37.340   2.555  1.00  0.00    -0.061 A
HETATM    8  C1  UNL     1      -0.537 -37.775   3.363  1.00  0.00     0.048 C
HETATM    9  C17 UNL     1      -2.975 -37.786   2.825  1.00  0.00     0.018 A
ENDBRANCH   1   2
BRANCH   1  10
HETATM   10  N1  UNL     1      -5.769 -37.272   3.672  1.00  0.00    -0.301 N
ATOM     11  H1  UNL     1      -5.157 -37.343   4.484  1.00  0.00     0.173 HD
BRANCH  10  12
HETATM   12  S1  UNL     1      -7.271 -36.510   3.761  1.00  0.00     0.231 S
HETATM   13  O1  UNL     1      -7.313 -35.161   3.084  1.00  0.00    -0.206 OA
HETATM   14  O2  UNL     1      -8.349 -37.348   3.089  1.00  0.00    -0.206 OA
BRANCH  12  15
HETATM   15  C8  UNL     1      -7.771 -36.361   5.477  1.00  0.00     0.121 C
HETATM   16  C9  UNL     1      -6.861 -37.229   6.341  1.00  0.00     0.027 C
HETATM   17  C10 UNL     1      -7.637 -34.960   5.977  1.00  0.00     0.027 C
ENDBRANCH  12  15
ENDBRANCH  10  12
ENDBRANCH   1  10
BRANCH   1  18
HETATM   18  C11 UNL     1      -5.413 -39.299   2.410  1.00  0.00     0.246 C
HETATM   19  O3  UNL     1      -5.686 -39.849   3.514  1.00  0.00    -0.271 OA
HETATM   20  N2  UNL     1      -5.157 -40.059   1.291  1.00  0.00    -0.354 N
ATOM     21  H2  UNL     1      -4.926 -39.556   0.435  1.00  0.00     0.162 HD
BRANCH  20  22
HETATM   22  C12 UNL     1      -5.184 -41.511   1.212  1.00  0.00     0.084 C
HETATM   23  C13 UNL     1      -3.971 -42.057   0.523  1.00  0.00     0.025 C
HETATM   24  C14 UNL     1      -4.398 -42.577  -0.839  1.00  0.00     0.002 C
HETATM   25  C15 UNL     1      -5.868 -42.796  -0.762  1.00  0.00     0.002 C
HETATM   26  C16 UNL     1      -6.348 -41.912   0.334  1.00  0.00     0.025 C
ENDBRANCH  20  22
ENDBRANCH   1  18
TORSDOF 6
ENDMDL