MODEL 2
REMARK VINA RESULT: -5.831632940      0.950      1.156
REMARK  8 active torsions:
REMARK  status: ('A' for Active; 'I' for Inactive)
REMARK    1  A    between atoms: C2_2  and  C4_4
REMARK    2  A    between atoms: C4_4  and  C5_5
REMARK    3  A    between atoms: C5_5  and  O1_6
REMARK    4  A    between atoms: C5_5  and  C6_8
REMARK    5  A    between atoms: C5_5  and  N3_21
REMARK    6  A    between atoms: C10_13  and  C11_14
REMARK    7  A    between atoms: C11_14  and  N1_15
REMARK    8  A    between atoms: N1_15  and  C13_17
ROOT
HETATM    1  C6  UNL     1      -5.627 -37.084   2.753  1.00  0.00     0.009 A
HETATM    2  C7  UNL     1      -6.110 -37.539   3.959  1.00  0.00     0.036 A
HETATM    3  C8  UNL     1      -7.120 -36.868   4.596  1.00  0.00     0.035 A
HETATM    4 CL1  UNL     1      -7.767 -37.414   6.145  1.00  0.00    -0.084 Cl
HETATM    5  C9  UNL     1      -7.700 -35.720   4.069  1.00  0.00     0.032 A
HETATM    6  C10 UNL     1      -7.239 -35.251   2.877  1.00  0.00    -0.038 A
HETATM    7  C14 UNL     1      -6.201 -35.957   2.242  1.00  0.00     0.021 A
ENDROOT
BRANCH   1   8
HETATM    8  C5  UNL     1      -4.522 -37.808   2.043  1.00  0.00     0.287 C
BRANCH   8   9
HETATM    9  C4  UNL     1      -4.527 -39.277   2.340  1.00  0.00     0.081 C
BRANCH   9  10
HETATM   10  C2  UNL     1      -5.203 -40.121   1.311  1.00  0.00    -0.018 C
HETATM   11  C1  UNL     1      -6.412 -40.768   1.992  1.00  0.00     0.009 C
HETATM   12  C3  UNL     1      -4.283 -41.291   0.945  1.00  0.00     0.009 C
ENDBRANCH   9  10
ENDBRANCH   8   9
BRANCH   8  13
HETATM   13  O1  UNL     1      -4.587 -37.514   0.712  1.00  0.00    -0.359 OA
ATOM     14  H1  UNL     1      -4.456 -36.594   0.515  1.00  0.00     0.213 HD
ENDBRANCH   8  13
BRANCH   8  15
HETATM   15  N3  UNL     1      -3.268 -37.271   2.556  1.00  0.00     0.128 N
HETATM   16  C15 UNL     1      -2.385 -36.786   1.556  1.00  0.00     0.277 C
HETATM   17  C16 UNL     1      -1.067 -36.645   2.308  1.00  0.00     0.032 C
HETATM   18  C17 UNL     1      -1.045 -37.882   3.158  1.00  0.00     0.032 C
HETATM   19  C18 UNL     1      -2.493 -38.269   3.243  1.00  0.00     0.277 C
ENDBRANCH   8  15
ENDBRANCH   1   8
BRANCH   6  20
HETATM   20  C11 UNL     1      -7.772 -34.038   2.225  1.00  0.00     0.162 C
BRANCH  20  21
HETATM   21  N1  UNL     1      -7.906 -32.871   3.046  1.00  0.00    -0.361 N
HETATM   22  C12 UNL     1      -6.750 -32.298   3.682  1.00  0.00     0.152 C
BRANCH  21  23
HETATM   23  C13 UNL     1      -9.162 -32.249   3.240  1.00  0.00     0.183 C
HETATM   24  N2  UNL     1      -9.498 -31.099   2.494  1.00  0.00    -0.070 NA
HETATM   25  S1  UNL     1     -10.215 -32.845   4.311  1.00  0.00    -0.044 SA
ENDBRANCH  21  23
ENDBRANCH  20  21
ENDBRANCH   6  20
TORSDOF 8
ENDMDL