MODEL 5
REMARK VINA RESULT: -6.107944814      2.379      4.121
REMARK  6 active torsions:
REMARK  status: ('A' for Active; 'I' for Inactive)
REMARK       I    between atoms: C1_2  and  N1_3
REMARK       I    between atoms: C1_2  and  N3_17
REMARK    1  A    between atoms: N1_3  and  C2_5
REMARK    2  A    between atoms: C2_5  and  C3_6
REMARK       I    between atoms: C3_6  and  N2_8
REMARK    3  A    between atoms: C7_12  and  C8_13
REMARK    4  A    between atoms: C8_13  and  C9_14
REMARK    5  A    between atoms: C9_14  and  C10_15
REMARK    6  A    between atoms: N3_17  and  C11_19
ROOT
HETATM    1  O1  UNL     1      -6.473 -35.382   2.112  1.00  0.00    -0.247 OA
HETATM    2  C1  UNL     1      -6.568 -35.935   3.258  1.00  0.00     0.317 C
HETATM    3  N1  UNL     1      -5.899 -37.164   3.433  1.00  0.00    -0.334 N
ATOM      4  H1  UNL     1      -5.957 -37.632   4.338  1.00  0.00     0.164 HD
HETATM    5  N3  UNL     1      -7.313 -35.341   4.307  1.00  0.00    -0.334 N
ATOM      6  H3  UNL     1      -7.345 -35.837   5.198  1.00  0.00     0.165 HD
ENDROOT
BRANCH   3   7
HETATM    7  C2  UNL     1      -5.145 -37.777   2.389  1.00  0.00     0.227 C
BRANCH   7   8
HETATM    8  C3  UNL     1      -3.717 -37.960   2.753  1.00  0.00     0.237 C
HETATM    9  O2  UNL     1      -3.447 -38.919   3.510  1.00  0.00    -0.272 OA
HETATM   10  N2  UNL     1      -2.763 -37.074   2.243  1.00  0.00    -0.346 N
HETATM   11  C4  UNL     1      -3.017 -35.950   1.359  1.00  0.00     0.126 C
HETATM   12  C7  UNL     1      -1.300 -36.994   2.417  1.00  0.00     0.087 C
HETATM   13  C5  UNL     1      -1.961 -36.186   0.289  1.00  0.00     0.022 C
HETATM   14  C6  UNL     1      -0.874 -37.038   0.983  1.00  0.00     0.027 C
BRANCH  12  15
HETATM   15  C8  UNL     1      -0.799 -38.031   3.327  1.00  0.00     0.026 C
BRANCH  15  16
HETATM   16  C9  UNL     1       0.279 -38.917   2.874  1.00  0.00     0.017 C
BRANCH  16  17
HETATM   17  C10 UNL     1       0.344 -40.316   3.346  1.00  0.00     0.115 C
HETATM   18 CL1  UNL     1      -0.672 -40.619   4.776  1.00  0.00    -0.130 Cl
ENDBRANCH  16  17
ENDBRANCH  15  16
ENDBRANCH  12  15
ENDBRANCH   7   8
ENDBRANCH   3   7
BRANCH   5  19
HETATM   19  C11 UNL     1      -8.023 -34.107   4.221  1.00  0.00     0.035 C
HETATM   20  C12 UNL     1      -8.198 -33.491   5.576  1.00  0.00     0.035 C
HETATM   21  C13 UNL     1      -8.960 -32.184   5.514  1.00  0.00    -0.012 C
HETATM   22  C14 UNL     1     -10.313 -32.463   4.920  1.00  0.00     0.009 C
HETATM   23  C18 UNL     1      -8.151 -31.206   4.720  1.00  0.00     0.009 C
HETATM   24  C15 UNL     1     -10.093 -32.966   3.510  1.00  0.00    -0.012 C
HETATM   25  C16 UNL     1      -9.366 -31.913   2.723  1.00  0.00     0.009 C
HETATM   26  C20 UNL     1      -9.390 -34.281   3.564  1.00  0.00     0.035 C
HETATM   27  C17 UNL     1      -7.973 -31.788   3.324  1.00  0.00    -0.012 C
HETATM   28  C19 UNL     1      -7.274 -33.109   3.363  1.00  0.00     0.035 C
ENDBRANCH   5  19
TORSDOF 6
ENDMDL