MODEL 2
REMARK VINA RESULT: -5.683784273      3.307      7.077
REMARK  11 active torsions:
REMARK  status: ('A' for Active; 'I' for Inactive)
REMARK    1  A    between atoms: C2_2  and  N1_3
REMARK    2  A    between atoms: N1_3  and  C3_4
REMARK    3  A    between atoms: N1_3  and  C5_6
REMARK    4  A    between atoms: C5_6  and  O1_7
REMARK    5  A    between atoms: C5_6  and  N2_9
REMARK    6  A    between atoms: C6_10  and  C7_11
REMARK    7  A    between atoms: C7_11  and  C8_12
REMARK    8  A    between atoms: C11_17  and  C12_18
REMARK    9  A    between atoms: C12_18  and  O4_19
REMARK   10  A    between atoms: C12_18  and  N3_21
REMARK   11  A    between atoms: N3_21  and  C13_23
ROOT
HETATM    1  N2  UNL     1      -5.921 -37.933   3.055  1.00  0.00    -0.330 N
HETATM    2  C6  UNL     1      -6.218 -38.512   4.294  1.00  0.00     0.098 C
HETATM    3  C9  UNL     1      -7.749 -38.678   4.307  1.00  0.00     0.028 C
HETATM    4  C10 UNL     1      -8.210 -37.570   3.442  1.00  0.00     0.036 C
HETATM    5  C11 UNL     1      -7.108 -37.246   2.512  1.00  0.00     0.162 C
ENDROOT
BRANCH   5   6
HETATM    6  C12 UNL     1      -6.970 -35.821   2.297  1.00  0.00     0.135 C
BRANCH   6   7
HETATM    7  O4  UNL     1      -6.908 -35.486   1.035  1.00  0.00    -0.348 OA
ATOM      8  H4  UNL     1      -7.583 -34.871   0.771  1.00  0.00     0.219 HD
ENDBRANCH   6   7
BRANCH   6   9
HETATM    9  N3  UNL     1      -6.890 -34.758   3.192  1.00  0.00    -0.368 N
ATOM     10  H3  UNL     1      -6.233 -34.834   3.970  1.00  0.00     0.161 HD
BRANCH   9  11
HETATM   11  C13 UNL     1      -7.689 -33.546   3.084  1.00  0.00     0.083 C
HETATM   12  C14 UNL     1      -8.962 -33.678   3.881  1.00  0.00     0.025 C
HETATM   13  C15 UNL     1      -9.923 -32.583   3.454  1.00  0.00     0.002 C
HETATM   14  C16 UNL     1      -9.183 -31.337   3.070  1.00  0.00     0.004 C
HETATM   15  C17 UNL     1      -7.865 -31.196   3.792  1.00  0.00    -0.017 C
HETATM   16  C18 UNL     1      -8.140 -30.945   5.259  1.00  0.00     0.010 C
HETATM   17  C19 UNL     1      -6.934 -32.344   3.572  1.00  0.00     0.029 C
ENDBRANCH   9  11
ENDBRANCH   6   9
ENDBRANCH   5   6
BRANCH   1  18
HETATM   18  C5  UNL     1      -4.752 -37.981   2.253  1.00  0.00     0.218 C
BRANCH  18  19
HETATM   19  N1  UNL     1      -3.453 -37.530   2.445  1.00  0.00    -0.348 N
BRANCH  19  20
HETATM   20  C2  UNL     1      -2.459 -38.009   3.359  1.00  0.00     0.122 C
HETATM   21  C1  UNL     1      -2.651 -39.510   3.577  1.00  0.00     0.026 C
ENDBRANCH  19  20
BRANCH  19  22
HETATM   22  C3  UNL     1      -3.044 -36.388   1.574  1.00  0.00     0.122 C
HETATM   23  C4  UNL     1      -1.587 -36.429   1.276  1.00  0.00     0.026 C
ENDBRANCH  19  22
ENDBRANCH  18  19
BRANCH  18  24
HETATM   24  O1  UNL     1      -4.910 -38.576   1.080  1.00  0.00    -0.332 OA
ATOM     25  H1  UNL     1      -5.813 -38.560   0.786  1.00  0.00     0.220 HD
ENDBRANCH  18  24
ENDBRANCH   1  18
BRANCH   2  26
HETATM   26  C7  UNL     1      -5.855 -37.926   5.586  1.00  0.00     0.138 C
BRANCH  26  27
HETATM   27  C8  UNL     1      -5.292 -38.704   6.660  1.00  0.00     0.174 C
HETATM   28  O2  UNL     1      -4.662 -39.773   6.526  1.00  0.00    -0.648 OA
HETATM   29  O3  UNL     1      -5.445 -38.259   7.988  1.00  0.00    -0.648 OA
ENDBRANCH  26  27
ENDBRANCH   2  26
TORSDOF 11
ENDMDL