MODEL 4
REMARK VINA RESULT: -6.511882281      1.506      3.301
REMARK  10 active torsions:
REMARK  status: ('A' for Active; 'I' for Inactive)
REMARK    1  A    between atoms: C4_5  and  N2_7
REMARK    2  A    between atoms: N2_7  and  N3_9
REMARK    3  A    between atoms: C7_11  and  C8_12
REMARK    4  A    between atoms: C8_12  and  N4_13
REMARK    5  A    between atoms: C8_12  and  C10_19
REMARK    6  A    between atoms: C10_19  and  C11_20
REMARK    7  A    between atoms: C11_20  and  C12_21
REMARK    8  A    between atoms: C12_21  and  C13_22
REMARK    9  A    between atoms: C13_22  and  N6_23
REMARK   10  A    between atoms: C13_22  and  N7_27
ROOT
HETATM    1  C8  UNL     1      49.380  32.090  41.822  1.00  0.00     0.243 C
HETATM    2  C9  UNL     1      49.966  33.200  41.094  1.00  0.00     0.104 C
HETATM    3  N5  UNL     1      50.427  34.100  40.527  1.00  0.00    -0.194 NA
ENDROOT
BRANCH   1   4
HETATM    4  C7  UNL     1      50.291  30.900  41.746  1.00  0.00     0.128 C
HETATM    5  N3  UNL     1      50.169  29.902  41.009  1.00  0.00    -0.330 N
ATOM      6  H3  UNL     1      50.900  29.198  41.111  1.00  0.00     0.179 HD
BRANCH   5   7
HETATM    7  N2  UNL     1      49.206  29.608  40.083  1.00  0.00    -0.224 NA
HETATM    8  C6  UNL     1      48.643  28.301  40.432  1.00  0.00     0.137 C
BRANCH   7   9
HETATM    9  C4  UNL     1      49.753  29.449  38.744  1.00  0.00     0.074 C
HETATM   10  C3  UNL     1      48.620  29.701  37.771  1.00  0.00     0.060 C
HETATM   11  C2  UNL     1      48.872  31.085  37.226  1.00  0.00     0.276 C
HETATM   12  N1  UNL     1      49.957  31.643  37.995  1.00  0.00     0.104 N
HETATM   13  C1  UNL     1      50.671  32.569  37.143  1.00  0.00     0.311 C
HETATM   14  C14 UNL     1      50.734  30.510  38.378  1.00  0.00     0.352 C
HETATM   15  C15 UNL     1      51.470  30.041  37.183  1.00  0.00     0.097 C
HETATM   16  N8  UNL     1      52.030  29.672  36.238  1.00  0.00    -0.195 NA
HETATM   17  C5  UNL     1      50.280  28.059  38.499  1.00  0.00     0.037 C
ENDBRANCH   7   9
ENDBRANCH   5   7
ENDBRANCH   1   4
BRANCH   1  18
HETATM   18  N4  UNL     1      48.074  31.723  41.297  1.00  0.00    -0.052 N
ATOM     19  H43 UNL     1      47.348  32.387  41.565  1.00  0.00     0.276 HD
ATOM     20  H42 UNL     1      48.014  31.845  40.287  1.00  0.00     0.276 HD
ATOM     21  H41 UNL     1      47.853  30.770  41.587  1.00  0.00     0.276 HD
ENDBRANCH   1  18
BRANCH   1  22
HETATM   22  C10 UNL     1      49.180  32.522  43.245  1.00  0.00     0.060 C
BRANCH  22  23
HETATM   23  C11 UNL     1      49.886  31.649  44.214  1.00  0.00     0.008 C
BRANCH  23  24
HETATM   24  C12 UNL     1      49.524  31.683  45.642  1.00  0.00     0.062 C
BRANCH  24  25
HETATM   25  C13 UNL     1      50.632  30.930  46.413  1.00  0.00     0.378 C
BRANCH  25  26
HETATM   26  N6  UNL     1      51.086  31.702  47.544  1.00  0.00    -0.051 N
ATOM     27  H63 UNL     1      50.661  31.380  48.414  1.00  0.00     0.276 HD
ATOM     28  H62 UNL     1      52.061  31.506  47.767  1.00  0.00     0.276 HD
ATOM     29  H61 UNL     1      50.927  32.698  47.392  1.00  0.00     0.276 HD
ENDBRANCH  25  26
BRANCH  25  30
HETATM   30  N7  UNL     1      51.745  30.799  45.491  1.00  0.00    -0.051 N
ATOM     31  H73 UNL     1      51.531  31.120  44.547  1.00  0.00     0.276 HD
ATOM     32  H72 UNL     1      52.504  31.454  45.676  1.00  0.00     0.276 HD
ATOM     33  H71 UNL     1      52.033  29.822  45.533  1.00  0.00     0.276 HD
ENDBRANCH  25  30
ENDBRANCH  24  25
ENDBRANCH  23  24
ENDBRANCH  22  23
ENDBRANCH   1  22
TORSDOF 10
ENDMDL