MODEL 5
REMARK VINA RESULT: -6.600144476      2.110      2.484
REMARK  13 active torsions:
REMARK  status: ('A' for Active; 'I' for Inactive)
REMARK    1  A    between atoms: C5_5  and  C6_6
REMARK    2  A    between atoms: C6_6  and  S1_7
REMARK    3  A    between atoms: S1_7  and  C7_8
REMARK    4  A    between atoms: C7_8  and  N1_9
REMARK    5  A    between atoms: N1_9  and  O1_10
REMARK    6  A    between atoms: N1_9  and  C8_12
REMARK    7  A    between atoms: C8_12  and  C9_13
REMARK    8  A    between atoms: C9_13  and  N2_14
REMARK    9  A    between atoms: C10_18  and  O2_19
REMARK   10  A    between atoms: C11_21  and  O3_22
REMARK   11  A    between atoms: C12_24  and  O4_25
REMARK   12  A    between atoms: C12_24  and  C13_27
REMARK   13  A    between atoms: N3_28  and  N4_30
ROOT
HETATM    1  C1  UNL     1      48.931  33.112  36.562  1.00  0.00     0.046 C
HETATM    2  C2  UNL     1      49.405  32.949  37.986  1.00  0.00    -0.046 C
HETATM    3  C3  UNL     1      48.505  32.436  38.804  1.00  0.00    -0.020 C
HETATM    4  C4  UNL     1      48.524  32.110  40.232  1.00  0.00     0.035 C
HETATM    5  C5  UNL     1      49.784  31.362  40.670  1.00  0.00     0.030 C
HETATM    6  C10 UNL     1      50.995  32.215  40.554  1.00  0.00     0.155 C
HETATM    7  C11 UNL     1      51.523  32.358  39.154  1.00  0.00     0.191 C
HETATM    8  C12 UNL     1      50.776  33.359  38.310  1.00  0.00     0.142 C
ENDROOT
BRANCH   5   9
HETATM    9  C6  UNL     1      49.536  31.041  42.127  1.00  0.00     0.083 C
BRANCH   9  10
HETATM   10  S1  UNL     1      49.147  32.480  43.108  1.00  0.00    -0.146 SA
BRANCH  10  11
HETATM   11  C7  UNL     1      48.347  31.922  44.653  1.00  0.00     0.228 C
BRANCH  11  12
HETATM   12  N1  UNL     1      49.352  31.483  45.554  1.00  0.00    -0.265 N
BRANCH  12  13
HETATM   13  O1  UNL     1      50.523  31.652  45.239  1.00  0.00    -0.287 OA
ATOM     14  H1  UNL     1      51.188  31.527  45.905  1.00  0.00     0.244 HD
ENDBRANCH  12  13
BRANCH  12  15
HETATM   15  C8  UNL     1      49.129  30.858  46.797  1.00  0.00     0.117 C
BRANCH  15  16
HETATM   16  C9  UNL     1      47.811  30.162  46.879  1.00  0.00     0.276 C
BRANCH  16  17
HETATM   17  N2  UNL     1      47.492  29.730  48.184  1.00  0.00    -0.075 N
ATOM     18  H23 UNL     1      46.581  30.087  48.471  1.00  0.00     0.274 HD
ATOM     19  H22 UNL     1      47.292  28.731  48.197  1.00  0.00     0.274 HD
ATOM     20  H21 UNL     1      48.207  29.966  48.871  1.00  0.00     0.274 HD
ENDBRANCH  16  17
ENDBRANCH  15  16
ENDBRANCH  12  15
ENDBRANCH  11  12
ENDBRANCH  10  11
ENDBRANCH   9  10
ENDBRANCH   5   9
BRANCH   6  21
HETATM   21  O2  UNL     1      52.025  31.687  41.316  1.00  0.00    -0.392 OA
ATOM     22  H2  UNL     1      52.863  32.001  40.996  1.00  0.00     0.210 HD
ENDBRANCH   6  21
BRANCH   7  23
HETATM   23  O3  UNL     1      51.687  31.169  38.484  1.00  0.00    -0.389 OA
ATOM     24  H3  UNL     1      52.593  30.922  38.339  1.00  0.00     0.210 HD
ENDBRANCH   7  23
BRANCH   8  25
HETATM   25  O4  UNL     1      51.475  33.383  37.075  1.00  0.00    -0.377 OA
ATOM     26  H4  UNL     1      51.752  32.488  36.918  1.00  0.00     0.211 HD
ENDBRANCH   8  25
BRANCH   8  27
HETATM   27  C13 UNL     1      50.878  34.737  38.834  1.00  0.00     0.124 C
HETATM   28  N3  UNL     1      49.878  35.476  39.158  1.00  0.00    -0.319 N
ATOM     29  H3  UNL     1      48.940  35.092  39.048  1.00  0.00     0.185 HD
BRANCH  28  30
HETATM   30  N4  UNL     1      50.003  36.774  39.651  1.00  0.00    -0.346 N
ATOM     31  H42 UNL     1      50.048  36.883  40.664  1.00  0.00     0.176 HD
ATOM     32  H41 UNL     1      50.050  37.603  39.058  1.00  0.00     0.176 HD
ENDBRANCH  28  30
ENDBRANCH   8  27
TORSDOF 13
ENDMDL