MODEL 5
REMARK VINA RESULT: -6.928774027      1.925      2.894
REMARK  8 active torsions:
REMARK  status: ('A' for Active; 'I' for Inactive)
REMARK    1  A    between atoms: C2_2  and  N1_3
REMARK    2  A    between atoms: N1_3  and  C3_4
REMARK    3  A    between atoms: N1_3  and  C5_6
REMARK    4  A    between atoms: C9_10  and  N2_11
REMARK    5  A    between atoms: N2_11  and  C10_13
REMARK    6  A    between atoms: C10_13  and  C11_14
REMARK    7  A    between atoms: C11_14  and  N3_15
REMARK    8  A    between atoms: C13_22  and  N7_23
ROOT
HETATM    1  C5  UNL     1      47.985  31.705  42.280  1.00  0.00     0.326 A
HETATM    2  C6  UNL     1      48.256  32.990  41.678  1.00  0.00     0.085 A
HETATM    3  C7  UNL     1      48.545  32.904  40.231  1.00  0.00    -0.004 A
HETATM    4  C8  UNL     1      48.562  31.788  39.524  1.00  0.00     0.049 A
HETATM    5  C9  UNL     1      48.841  31.784  38.164  1.00  0.00     0.130 A
HETATM    6  N6  UNL     1      48.849  30.612  37.476  1.00  0.00    -0.176 N
ATOM      7  H6  UNL     1      49.055  30.617  36.478  1.00  0.00     0.186 HD
HETATM    8  C13 UNL     1      48.587  29.447  38.093  1.00  0.00     0.680 A
HETATM    9  N8  UNL     1      48.322  29.488  39.398  1.00  0.00    -0.176 N
ATOM     10  H8  UNL     1      48.124  28.602  39.863  1.00  0.00     0.186 HD
HETATM   11  C15 UNL     1      48.294  30.610  40.159  1.00  0.00     0.132 A
HETATM   12  N9  UNL     1      48.039  30.597  41.392  1.00  0.00    -0.345 N
ATOM     13  H9  UNL     1      47.848  29.683  41.803  1.00  0.00     0.163 HD
ENDROOT
BRANCH   5  14
HETATM   14  N2  UNL     1      49.082  32.898  37.606  1.00  0.00    -0.373 N
ATOM     15  H2  UNL     1      48.772  33.726  38.114  1.00  0.00     0.161 HD
BRANCH  14  16
HETATM   16  C10 UNL     1      49.730  33.140  36.362  1.00  0.00     0.141 C
BRANCH  16  17
HETATM   17  C11 UNL     1      48.906  34.027  35.444  1.00  0.00     0.141 C
BRANCH  17  18
HETATM   18  N3  UNL     1      47.840  33.309  34.813  1.00  0.00    -0.365 N
HETATM   19  C12 UNL     1      47.279  33.561  33.704  1.00  0.00     0.197 C
HETATM   20  N4  UNL     1      47.599  34.634  32.837  1.00  0.00    -0.067 NA
HETATM   21  N5  UNL     1      46.229  32.683  33.282  1.00  0.00    -0.067 NA
ATOM     22  H3  UNL     1      47.490  32.494  35.317  1.00  0.00     0.161 HD
ENDBRANCH  17  18
ENDBRANCH  16  17
ENDBRANCH  14  16
ENDBRANCH   5  14
BRANCH   8  23
HETATM   23  N7  UNL     1      48.598  28.345  37.416  1.00  0.00    -0.230 N
HETATM   24  C14 UNL     1      49.413  27.209  37.783  1.00  0.00     0.165 C
ATOM     25  H7  UNL     1      48.006  28.275  36.588  1.00  0.00     0.177 HD
ENDBRANCH   8  23
BRANCH   1  26
HETATM   26  N1  UNL     1      48.676  31.316  43.503  1.00  0.00     0.110 N
BRANCH  26  27
HETATM   27  C2  UNL     1      48.164  31.765  44.731  1.00  0.00     0.270 C
HETATM   28  C1  UNL     1      48.923  31.324  45.940  1.00  0.00     0.037 C
ENDBRANCH  26  27
BRANCH  26  29
HETATM   29  C3  UNL     1      50.010  31.981  43.300  1.00  0.00     0.270 C
HETATM   30  C4  UNL     1      51.058  30.987  42.925  1.00  0.00     0.037 C
ENDBRANCH  26  29
ENDBRANCH   1  26
TORSDOF 8
ENDMDL