MODEL 1
REMARK VINA RESULT: -6.197173894      0.000      0.000
REMARK  8 active torsions:
REMARK  status: ('A' for Active; 'I' for Inactive)
REMARK    1  A    between atoms: C2_2  and  C3_3
REMARK    2  A    between atoms: C4_4  and  C5_5
REMARK    3  A    between atoms: C5_5  and  N1_6
REMARK    4  A    between atoms: C9_12  and  N3_13
REMARK    5  A    between atoms: N3_13  and  S1_15
REMARK    6  A    between atoms: S1_15  and  N4_18
REMARK    7  A    between atoms: C12_21  and  O3_22
REMARK    8  A    between atoms: C13_24  and  O4_25
ROOT
HETATM    1  C3  UNL     1      49.503  32.414  38.160  1.00  0.00     0.063 C
HETATM    2  C4  UNL     1      50.544  31.353  38.433  1.00  0.00     0.115 C
HETATM    3  N2  UNL     1      50.821  31.313  39.833  1.00  0.00    -0.392 N
ATOM      4  H2  UNL     1      50.961  30.424  40.315  1.00  0.00     0.155 HD
HETATM    5  C9  UNL     1      50.894  32.526  40.527  1.00  0.00     0.220 C
HETATM    6  C12 UNL     1      50.903  33.780  39.733  1.00  0.00     0.190 C
HETATM    7  C13 UNL     1      50.132  33.734  38.451  1.00  0.00     0.160 C
ENDROOT
BRANCH   5   8
HETATM    8  N3  UNL     1      49.823  32.574  41.512  1.00  0.00    -0.283 N
ATOM      9  H3  UNL     1      49.185  33.363  41.608  1.00  0.00     0.175 HD
BRANCH   8  10
HETATM   10  S1  UNL     1      49.741  31.176  42.491  1.00  0.00     0.299 S
HETATM   11  O1  UNL     1      49.076  30.027  41.829  1.00  0.00    -0.188 OA
HETATM   12  O2  UNL     1      51.165  30.754  42.803  1.00  0.00    -0.188 OA
BRANCH  10  13
HETATM   13  N4  UNL     1      48.945  31.487  43.999  1.00  0.00    -0.202 NA
HETATM   14  C10 UNL     1      49.936  31.517  45.064  1.00  0.00     0.130 C
HETATM   15  C11 UNL     1      48.350  32.815  43.953  1.00  0.00     0.130 C
ENDBRANCH  10  13
ENDBRANCH   8  10
ENDBRANCH   5   8
BRANCH   6  16
HETATM   16  O3  UNL     1      50.356  34.799  40.514  1.00  0.00    -0.389 OA
ATOM     17  H3  UNL     1      50.014  35.469  39.934  1.00  0.00     0.210 HD
ENDBRANCH   6  16
BRANCH   2  18
HETATM   18  C5  UNL     1      49.971  30.019  38.033  1.00  0.00     0.261 C
BRANCH  18  19
HETATM   19  N1  UNL     1      50.755  29.267  37.103  1.00  0.00    -0.077 N
HETATM   20  C6  UNL     1      51.007  27.933  37.675  1.00  0.00     0.271 C
HETATM   21  C7  UNL     1      50.027  28.984  35.853  1.00  0.00     0.271 C
HETATM   22  C8  UNL     1      52.020  29.815  36.745  1.00  0.00     0.271 C
ENDBRANCH  18  19
ENDBRANCH   2  18
BRANCH   7  23
HETATM   23  O4  UNL     1      49.102  34.692  38.440  1.00  0.00    -0.392 OA
ATOM     24  H4  UNL     1      49.306  35.327  39.117  1.00  0.00     0.210 HD
ENDBRANCH   7  23
BRANCH   1  25
HETATM   25  C2  UNL     1      49.012  32.408  36.765  1.00  0.00    -0.028 C
HETATM   26  C1  UNL     1      49.708  32.754  35.702  1.00  0.00     0.007 C
ENDBRANCH   1  25
TORSDOF 8
ENDMDL