MODEL 3
REMARK VINA RESULT: -6.394636745      2.987      5.202
REMARK  6 active torsions:
REMARK  status: ('A' for Active; 'I' for Inactive)
REMARK    1  A    between atoms: O1_2  and  C2_3
REMARK    2  A    between atoms: C5_6  and  S1_7
REMARK    3  A    between atoms: C6_8  and  C7_9
REMARK    4  A    between atoms: C7_9  and  O2_10
REMARK    5  A    between atoms: C9_12  and  C10_13
REMARK    6  A    between atoms: C11_15  and  N1_16
REMARK       I    between atoms: N1_16  and  C12_18
ROOT
HETATM    1  S1  UNL     1      48.372  30.188  39.936  1.00  0.00    -0.165 SA
HETATM    2  C6  UNL     1      49.229  31.048  38.637  1.00  0.00     0.078 C
HETATM    3  C9  UNL     1      48.617  30.027  37.669  1.00  0.00     0.094 C
HETATM    4  C11 UNL     1      48.903  28.982  38.756  1.00  0.00     0.152 C
ENDROOT
BRANCH   1   5
HETATM    5  C5  UNL     1      49.221  30.164  41.480  1.00  0.00     0.144 C
HETATM    6  C4  UNL     1      48.650  31.096  42.497  1.00  0.00     0.081 C
HETATM    7  C3  UNL     1      49.822  31.319  43.406  1.00  0.00     0.034 C
HETATM    8  C2  UNL     1      49.820  31.546  44.705  1.00  0.00     0.146 C
HETATM    9  C13 UNL     1      50.975  31.228  42.517  1.00  0.00     0.250 C
HETATM   10  N3  UNL     1      50.561  30.671  41.276  1.00  0.00    -0.344 N
HETATM   11  O5  UNL     1      52.135  31.605  42.864  1.00  0.00    -0.268 OA
ATOM     12  H3  UNL     1      51.102  30.635  40.412  1.00  0.00     0.164 HD
BRANCH   8  13
HETATM   13  O1  UNL     1      48.675  31.618  45.474  1.00  0.00    -0.367 OA
HETATM   14  C1  UNL     1      48.496  30.864  46.659  1.00  0.00     0.208 C
ENDBRANCH   8  13
ENDBRANCH   1   5
BRANCH   2  15
HETATM   15  C7  UNL     1      48.753  32.455  38.417  1.00  0.00     0.182 C
BRANCH  15  16
HETATM   16  O2  UNL     1      48.824  33.127  39.621  1.00  0.00    -0.395 OA
HETATM   17  C8  UNL     1      50.021  33.802  39.713  1.00  0.00     0.201 C
ENDBRANCH  15  16
ENDBRANCH   2  15
BRANCH   4  18
HETATM   18  N1  UNL     1      48.086  27.814  38.674  1.00  0.00    -0.332 N
HETATM   19  C12 UNL     1      48.311  26.700  39.517  1.00  0.00     0.329 C
HETATM   20  N2  UNL     1      47.515  25.518  39.461  1.00  0.00    -0.040 NA
HETATM   21  O4  UNL     1      49.250  26.744  40.352  1.00  0.00    -0.251 OA
ATOM     22  H1  UNL     1      47.325  27.783  37.995  1.00  0.00     0.165 HD
ENDBRANCH   4  18
BRANCH   3  23
HETATM   23  C10 UNL     1      49.368  29.838  36.422  1.00  0.00     0.239 C
HETATM   24  O3  UNL     1      48.815  30.046  35.358  1.00  0.00    -0.306 OA
ENDBRANCH   3  23
TORSDOF 6
ENDMDL