MODEL 4
REMARK VINA RESULT: -5.949177807      3.204      6.259
REMARK  11 active torsions:
REMARK  status: ('A' for Active; 'I' for Inactive)
REMARK    1  A    between atoms: C2_2  and  C3_3
REMARK    2  A    between atoms: C3_3  and  C4_4
REMARK    3  A    between atoms: C4_4  and  C5_5
REMARK    4  A    between atoms: C5_5  and  C6_6
REMARK    5  A    between atoms: C8_8  and  C9_9
REMARK    6  A    between atoms: C11_13  and  O2_14
REMARK    7  A    between atoms: C12_16  and  O3_17
REMARK    8  A    between atoms: C13_19  and  C14_20
REMARK    9  A    between atoms: C13_19  and  C15_26
REMARK   10  A    between atoms: N1_21  and  N2_23
REMARK   11  A    between atoms: C15_26  and  N3_27
ROOT
HETATM    1  C9  UNL     1      50.068  30.141  38.020  1.00  0.00    -0.069 C
HETATM    2  C10 UNL     1      50.956  29.653  37.345  1.00  0.00     0.052 C
HETATM    3  O1  UNL     1      51.964  29.110  36.595  1.00  0.00    -0.314 OA
ATOM      4  H1  UNL     1      52.657  28.730  36.068  1.00  0.00     0.230 HD
ENDROOT
BRANCH   1   5
HETATM    5  C8  UNL     1      49.004  30.738  38.828  1.00  0.00     0.099 C
HETATM    6  C7  UNL     1      48.945  32.209  38.603  1.00  0.00     0.032 C
HETATM    7  C6  UNL     1      50.041  33.004  39.237  1.00  0.00     0.058 C
HETATM    8  C16 UNL     1      50.480  32.574  40.567  1.00  0.00     0.149 C
HETATM    9  C13 UNL     1      49.787  32.084  41.786  1.00  0.00     0.106 C
HETATM   10  O4  UNL     1      51.713  32.620  40.739  1.00  0.00    -0.296 OA
HETATM   11  C12 UNL     1      48.585  31.281  41.241  1.00  0.00     0.170 C
HETATM   12  C11 UNL     1      49.200  30.320  40.250  1.00  0.00     0.164 C
BRANCH   7  13
HETATM   13  C5  UNL     1      49.591  34.447  39.295  1.00  0.00     0.012 C
BRANCH  13  14
HETATM   14  C4  UNL     1      50.352  35.304  38.309  1.00  0.00     0.001 C
BRANCH  14  15
HETATM   15  C3  UNL     1      50.992  36.513  38.914  1.00  0.00    -0.000 C
BRANCH  15  16
HETATM   16  C2  UNL     1      52.269  36.838  38.137  1.00  0.00    -0.005 C
HETATM   17  C1  UNL     1      52.494  38.339  38.180  1.00  0.00     0.005 C
ENDBRANCH  15  16
ENDBRANCH  14  15
ENDBRANCH  13  14
ENDBRANCH   7  13
BRANCH   9  18
HETATM   18  C14 UNL     1      50.604  31.093  42.553  1.00  0.00     0.101 C
HETATM   19  N1  UNL     1      50.628  30.952  43.813  1.00  0.00    -0.321 N
ATOM     20  H1  UNL     1      51.247  30.221  44.164  1.00  0.00     0.185 HD
BRANCH  19  21
HETATM   21  N2  UNL     1      49.930  31.655  44.774  1.00  0.00    -0.346 N
ATOM     22  H22 UNL     1      49.285  32.353  44.402  1.00  0.00     0.176 HD
ATOM     23  H21 UNL     1      49.975  31.566  45.789  1.00  0.00     0.176 HD
ENDBRANCH  19  21
ENDBRANCH   9  18
BRANCH   9  24
HETATM   24  C15 UNL     1      49.249  33.187  42.664  1.00  0.00     0.255 C
BRANCH  24  25
HETATM   25  N3  UNL     1      47.842  33.388  42.380  1.00  0.00    -0.078 N
ATOM     26  H33 UNL     1      47.646  33.379  41.380  1.00  0.00     0.274 HD
ATOM     27  H32 UNL     1      47.277  32.582  42.646  1.00  0.00     0.274 HD
ATOM     28  H31 UNL     1      47.524  34.246  42.828  1.00  0.00     0.274 HD
ENDBRANCH  24  25
ENDBRANCH   9  24
BRANCH  11  29
HETATM   29  O3  UNL     1      48.075  30.579  42.326  1.00  0.00    -0.391 OA
ATOM     30  H3  UNL     1      47.544  31.155  42.863  1.00  0.00     0.210 HD
ENDBRANCH  11  29
BRANCH  12  31
HETATM   31  O2  UNL     1      48.574  29.089  40.433  1.00  0.00    -0.392 OA
ATOM     32  H2  UNL     1      48.278  29.037  41.334  1.00  0.00     0.210 HD
ENDBRANCH  12  31
ENDBRANCH   1   5
TORSDOF 11
ENDMDL