MODEL 4
REMARK VINA RESULT: -6.340775669      1.852      2.460
REMARK  8 active torsions:
REMARK  status: ('A' for Active; 'I' for Inactive)
REMARK    1  A    between atoms: C3_4  and  C4_5
REMARK    2  A    between atoms: C4_5  and  S1_6
REMARK    3  A    between atoms: S1_6  and  C5_8
REMARK    4  A    between atoms: N1_11  and  C9_13
REMARK    5  A    between atoms: C9_13  and  C10_14
REMARK    6  A    between atoms: C10_14  and  N2_15
REMARK    7  A    between atoms: C13_21  and  O3_22
REMARK    8  A    between atoms: C14_24  and  O4_25
ROOT
HETATM    1  C5  UNL     1      50.066  32.339  39.523  1.00  0.00     0.082 C
HETATM    2  C6  UNL     1      51.384  32.569  38.830  1.00  0.00     0.045 C
HETATM    3  C7  UNL     1      51.228  33.160  37.453  1.00  0.00     0.238 C
HETATM    4  N1  UNL     1      50.432  34.389  37.471  1.00  0.00    -0.069 N
HETATM    5  C8  UNL     1      50.159  34.722  36.093  1.00  0.00     0.272 C
HETATM    6  C11 UNL     1      49.160  34.181  38.126  1.00  0.00     0.238 C
HETATM    7  C12 UNL     1      48.966  32.744  38.570  1.00  0.00     0.045 C
ENDROOT
BRANCH   1   8
HETATM    8  S1  UNL     1      49.823  30.636  39.958  1.00  0.00     0.021 S
HETATM    9  O2  UNL     1      48.297  30.174  39.410  1.00  0.00    -0.258 OA
BRANCH   8  10
HETATM   10  C4  UNL     1      49.796  30.518  41.729  1.00  0.00     0.143 C
BRANCH  10  11
HETATM   11  C3  UNL     1      49.808  31.887  42.377  1.00  0.00     0.165 C
HETATM   12  O1  UNL     1      50.266  31.735  43.677  1.00  0.00    -0.375 OA
HETATM   13  C2  UNL     1      49.160  31.634  44.496  1.00  0.00     0.149 C
HETATM   14  C1  UNL     1      49.515  31.905  45.928  1.00  0.00     0.042 C
HETATM   15  C14 UNL     1      48.214  32.661  43.930  1.00  0.00     0.178 C
HETATM   16  C13 UNL     1      48.459  32.518  42.439  1.00  0.00     0.179 C
BRANCH  15  17
HETATM   17  O4  UNL     1      48.502  33.947  44.369  1.00  0.00    -0.390 OA
ATOM     18  H4  UNL     1      47.722  34.430  44.614  1.00  0.00     0.210 HD
ENDBRANCH  15  17
BRANCH  16  19
HETATM   19  O3  UNL     1      47.456  31.722  41.896  1.00  0.00    -0.390 OA
ATOM     20  H3  UNL     1      46.627  32.176  41.803  1.00  0.00     0.210 HD
ENDBRANCH  16  19
ENDBRANCH  10  11
ENDBRANCH   8  10
ENDBRANCH   1   8
BRANCH   4  21
HETATM   21  C9  UNL     1      51.188  35.373  38.173  1.00  0.00     0.264 C
BRANCH  21  22
HETATM   22  C10 UNL     1      50.450  36.094  39.251  1.00  0.00     0.257 C
BRANCH  22  23
HETATM   23  N2  UNL     1      50.783  37.480  39.382  1.00  0.00    -0.078 N
ATOM     24  H23 UNL     1      51.795  37.598  39.427  1.00  0.00     0.274 HD
ATOM     25  H22 UNL     1      50.585  37.975  38.512  1.00  0.00     0.274 HD
ATOM     26  H21 UNL     1      50.337  37.954  40.167  1.00  0.00     0.274 HD
ENDBRANCH  22  23
ENDBRANCH  21  22
ENDBRANCH   4  21
TORSDOF 8
ENDMDL