MODEL 1
REMARK VINA RESULT: -4.894330028      0.000      0.000
REMARK  8 active torsions:
REMARK  status: ('A' for Active; 'I' for Inactive)
REMARK    1  A    between atoms: C2_2  and  N1_3
REMARK    2  A    between atoms: C3_4  and  O1_5
REMARK    3  A    between atoms: C4_7  and  C5_8
REMARK    4  A    between atoms: C5_8  and  C6_9
REMARK    5  A    between atoms: C11_22  and  C12_23
REMARK    6  A    between atoms: C12_23  and  C13_24
REMARK    7  A    between atoms: C13_24  and  C14_25
REMARK    8  A    between atoms: C14_25  and  N5_26
ROOT
HETATM    1  N1  UNL     1      49.365  31.121  39.905  1.00  0.00    -0.347 N
HETATM    2  C3  UNL     1      49.087  32.349  39.327  1.00  0.00     0.162 C
HETATM    3  C4  UNL     1      49.699  33.122  38.253  1.00  0.00     0.071 C
HETATM    4  N3  UNL     1      50.994  32.755  37.778  1.00  0.00    -0.325 N
ATOM      5  H3  UNL     1      51.569  33.562  37.537  1.00  0.00     0.169 HD
HETATM    6  C7  UNL     1      51.648  31.549  37.569  1.00  0.00     0.244 C
HETATM    7  O3  UNL     1      52.756  31.312  38.198  1.00  0.00    -0.271 OA
HETATM    8  C8  UNL     1      51.302  30.397  36.702  1.00  0.00     0.172 C
HETATM    9  C9  UNL     1      52.164  29.173  36.969  1.00  0.00     0.042 C
HETATM   10  N4  UNL     1      49.902  30.054  36.678  1.00  0.00    -0.346 N
ATOM     11  H4  UNL     1      49.455  29.941  35.768  1.00  0.00     0.163 HD
HETATM   12  C10 UNL     1      49.109  29.865  37.831  1.00  0.00     0.241 C
HETATM   13  O4  UNL     1      47.874  29.690  37.644  1.00  0.00    -0.271 OA
HETATM   14  C11 UNL     1      49.605  29.855  39.209  1.00  0.00     0.178 C
ENDROOT
BRANCH  14  15
HETATM   15  C12 UNL     1      48.954  28.678  39.952  1.00  0.00     0.036 C
BRANCH  15  16
HETATM   16  C13 UNL     1      49.843  27.470  39.611  1.00  0.00     0.030 C
BRANCH  16  17
HETATM   17  C14 UNL     1      48.943  26.231  39.524  1.00  0.00     0.230 C
BRANCH  17  18
HETATM   18  N5  UNL     1      47.743  26.662  38.814  1.00  0.00    -0.079 N
ATOM     19  H53 UNL     1      47.810  27.607  38.437  1.00  0.00     0.274 HD
ATOM     20  H52 UNL     1      47.601  26.185  37.924  1.00  0.00     0.274 HD
ATOM     21  H51 UNL     1      46.973  26.538  39.471  1.00  0.00     0.274 HD
ENDBRANCH  17  18
ENDBRANCH  16  17
ENDBRANCH  15  16
ENDBRANCH  14  15
BRANCH   1  22
HETATM   22  C2  UNL     1      49.419  31.028  41.366  1.00  0.00     0.121 C
HETATM   23  C1  UNL     1      50.755  31.402  41.922  1.00  0.00     0.026 C
ENDBRANCH   1  22
BRANCH   2  24
HETATM   24  O1  UNL     1      48.056  32.952  39.851  1.00  0.00    -0.345 OA
ATOM     25  H1  UNL     1      47.222  32.607  39.553  1.00  0.00     0.219 HD
ENDBRANCH   2  24
BRANCH   3  26
HETATM   26  C5  UNL     1      48.725  33.471  37.117  1.00  0.00     0.161 C
BRANCH  26  27
HETATM   27  C6  UNL     1      49.497  33.640  35.848  1.00  0.00     0.236 C
HETATM   28  N2  UNL     1      50.246  34.814  35.581  1.00  0.00    -0.062 NA
HETATM   29  O2  UNL     1      49.501  32.726  34.963  1.00  0.00    -0.277 OA
ENDBRANCH  26  27
ENDBRANCH   3  26
TORSDOF 8
ENDMDL