MODEL 4
REMARK VINA RESULT: -5.833122966      2.251      5.056
REMARK  10 active torsions:
REMARK  status: ('A' for Active; 'I' for Inactive)
REMARK    1  A    between atoms: C2_2  and  N1_3
REMARK    2  A    between atoms: N1_3  and  C3_4
REMARK       I    between atoms: N1_3  and  C5_6
REMARK    3  A    between atoms: N3_8  and  C6_10
REMARK    4  A    between atoms: C7_11  and  O1_12
REMARK    5  A    between atoms: C8_14  and  O2_15
REMARK    6  A    between atoms: C9_17  and  C10_18
REMARK    7  A    between atoms: C10_18  and  O3_19
REMARK    8  A    between atoms: N4_22  and  C13_24
REMARK    9  A    between atoms: C13_24  and  C14_25
REMARK   10  A    between atoms: C14_25  and  C15_26
ROOT
HETATM    1  C6  UNL     1      51.182  32.016  38.045  1.00  0.00     0.322 C
HETATM    2  C7  UNL     1      51.976  31.063  37.192  1.00  0.00     0.198 C
HETATM    3  C8  UNL     1      51.159  30.038  36.483  1.00  0.00     0.158 C
HETATM    4  C9  UNL     1      49.991  30.660  35.790  1.00  0.00     0.067 C
HETATM    5  C11 UNL     1      49.306  31.708  36.599  1.00  0.00     0.249 C
HETATM    6  N4  UNL     1      50.174  32.673  37.207  1.00  0.00    -0.047 N
HETATM    7  C12 UNL     1      50.936  33.421  36.206  1.00  0.00     0.275 C
ENDROOT
BRANCH   1   8
HETATM    8  N3  UNL     1      50.661  31.444  39.233  1.00  0.00    -0.334 N
HETATM    9  C5  UNL     1      50.803  31.893  40.425  1.00  0.00     0.188 C
HETATM   10  N1  UNL     1      50.246  31.256  41.567  1.00  0.00    -0.356 N
HETATM   11  N2  UNL     1      51.550  33.091  40.658  1.00  0.00    -0.064 NA
ATOM     12  H3  UNL     1      50.118  30.588  39.129  1.00  0.00     0.164 HD
BRANCH  10  13
HETATM   13  C2  UNL     1      51.044  30.942  42.712  1.00  0.00     0.121 C
HETATM   14  C1  UNL     1      50.436  31.378  44.023  1.00  0.00     0.026 C
ENDBRANCH  10  13
BRANCH  10  15
HETATM   15  C3  UNL     1      48.844  30.901  41.615  1.00  0.00     0.121 C
HETATM   16  C4  UNL     1      48.007  32.165  41.502  1.00  0.00     0.026 C
ENDBRANCH  10  15
ENDBRANCH   1   8
BRANCH   2  17
HETATM   17  O1  UNL     1      52.994  30.488  37.922  1.00  0.00    -0.389 OA
ATOM     18  H1  UNL     1      53.510  31.154  38.361  1.00  0.00     0.210 HD
ENDBRANCH   2  17
BRANCH   6  19
HETATM   19  C13 UNL     1      49.440  33.627  37.968  1.00  0.00     0.246 C
BRANCH  19  20
HETATM   20  C14 UNL     1      49.779  35.069  37.695  1.00  0.00     0.097 C
BRANCH  20  21
HETATM   21  C15 UNL     1      50.221  35.671  38.983  1.00  0.00     0.232 C
HETATM   22  O4  UNL     1      51.337  36.110  39.192  1.00  0.00    -0.307 OA
ENDBRANCH  20  21
ENDBRANCH  19  20
ENDBRANCH   6  19
BRANCH   3  23
HETATM   23  O2  UNL     1      50.813  28.943  37.264  1.00  0.00    -0.392 OA
ATOM     24  H2  UNL     1      50.033  28.486  36.973  1.00  0.00     0.210 HD
ENDBRANCH   3  23
BRANCH   4  25
HETATM   25  C10 UNL     1      48.926  29.620  35.429  1.00  0.00     0.173 C
BRANCH  25  26
HETATM   26  O3  UNL     1      48.020  29.430  36.442  1.00  0.00    -0.400 OA
ATOM     27  H3  UNL     1      48.096  30.091  37.119  1.00  0.00     0.209 HD
ENDBRANCH  25  26
ENDBRANCH   4  25
TORSDOF 10
ENDMDL