MODEL 4
REMARK VINA RESULT: -6.028583505      1.523      1.785
REMARK  8 active torsions:
REMARK  status: ('A' for Active; 'I' for Inactive)
REMARK    1  A    between atoms: C2_2  and  C3_3
REMARK    2  A    between atoms: C3_3  and  N1_4
REMARK    3  A    between atoms: C6_7  and  C7_8
REMARK    4  A    between atoms: N3_11  and  C8_12
REMARK    5  A    between atoms: C8_12  and  S1_13
REMARK    6  A    between atoms: S1_13  and  N4_14
REMARK    7  A    between atoms: C10_21  and  N6_22
REMARK    8  A    between atoms: N6_22  and  O4_24
ROOT
HETATM    1  N1  UNL     1      48.966  28.785  38.370  1.00  0.00    -0.327 N
HETATM    2  C4  UNL     1      48.970  29.104  39.690  1.00  0.00     0.042 A
HETATM    3  C5  UNL     1      48.998  27.986  40.651  1.00  0.00     0.071 C
HETATM    4  C6  UNL     1      48.967  30.429  40.165  1.00  0.00     0.129 A
HETATM    5  N3  UNL     1      48.962  31.441  39.285  1.00  0.00    -0.289 N
HETATM    6  C9  UNL     1      48.961  31.123  37.966  1.00  0.00     0.170 A
HETATM    7  N5  UNL     1      48.965  32.145  36.943  1.00  0.00    -0.078 NA
HETATM    8  C10 UNL     1      48.963  29.807  37.517  1.00  0.00     0.172 A
ENDROOT
BRANCH   5   9
HETATM    9  C8  UNL     1      48.915  32.828  39.626  1.00  0.00     0.229 C
BRANCH   9  10
HETATM   10  S1  UNL     1      50.486  33.634  39.686  1.00  0.00     0.261 S
HETATM   11  O2  UNL     1      50.377  34.933  40.480  1.00  0.00    -0.200 OA
HETATM   12  O3  UNL     1      51.504  32.816  40.440  1.00  0.00    -0.200 OA
BRANCH  10  13
HETATM   13  N4  UNL     1      51.160  34.033  38.185  1.00  0.00    -0.324 N
ATOM     14  H42 UNL     1      50.866  34.866  37.676  1.00  0.00     0.169 HD
ATOM     15  H41 UNL     1      51.868  33.388  37.835  1.00  0.00     0.169 HD
ENDBRANCH  10  13
ENDBRANCH   9  10
ENDBRANCH   5   9
BRANCH   4  16
HETATM   16  C7  UNL     1      48.925  30.637  41.622  1.00  0.00     0.283 C
HETATM   17  N2  UNL     1      50.088  30.672  42.421  1.00  0.00    -0.056 NA
HETATM   18  O1  UNL     1      47.839  30.792  42.260  1.00  0.00    -0.269 OA
ENDBRANCH   4  16
BRANCH   8  19
HETATM   19  N6  UNL     1      48.953  29.544  36.110  1.00  0.00    -0.246 N
HETATM   20  C11 UNL     1      50.139  29.292  35.320  1.00  0.00     0.187 C
BRANCH  19  21
HETATM   21  O4  UNL     1      47.767  29.499  35.470  1.00  0.00    -0.286 OA
ATOM     22  H4  UNL     1      47.211  30.268  35.489  1.00  0.00     0.244 HD
ENDBRANCH  19  21
ENDBRANCH   8  19
BRANCH   1  23
HETATM   23  C3  UNL     1      48.950  27.410  37.927  1.00  0.00     0.157 C
BRANCH  23  24
HETATM   24  C2  UNL     1      50.251  26.741  37.875  1.00  0.00    -0.017 C
HETATM   25  C1  UNL     1      50.447  25.465  38.176  1.00  0.00     0.008 C
ENDBRANCH  23  24
ENDBRANCH   1  23
TORSDOF 8
ENDMDL