MODEL 2
REMARK VINA RESULT: -6.434013002      1.809      2.152
REMARK  6 active torsions:
REMARK  status: ('A' for Active; 'I' for Inactive)
REMARK    1  A    between atoms: C1_2  and  C2_3
REMARK       I    between atoms: C1_2  and  N1_9
REMARK    2  A    between atoms: C2_3  and  C3_4
REMARK    3  A    between atoms: N1_9  and  C7_10
REMARK    4  A    between atoms: C7_10  and  C8_11
REMARK    5  A    between atoms: C8_11  and  N2_12
REMARK       I    between atoms: N2_12  and  C9_14
REMARK    6  A    between atoms: C9_14  and  C10_16
ROOT
HETATM    1  C7  UNL     1      26.464  13.564  23.636  1.00  0.00     0.178 C
ENDROOT
BRANCH   1   2
HETATM    2  N1  UNL     1      26.586  13.766  22.277  1.00  0.00    -0.386 NA
HETATM    3  C1  UNL     1      26.704  13.964  20.948  1.00  0.00     0.291 C
HETATM    4  O1  UNL     1      27.087  15.006  20.345  1.00  0.00    -0.257 OA
BRANCH   3   5
HETATM    5  C2  UNL     1      26.350  12.800  20.029  1.00  0.00     0.124 C
BRANCH   5   6
HETATM    6  C3  UNL     1      26.866  11.495  20.552  1.00  0.00     0.001 C
HETATM    7  C4  UNL     1      26.930  10.383  19.525  1.00  0.00     0.042 C
HETATM    8  C5  UNL     1      28.275   9.996  20.112  1.00  0.00     0.170 C
HETATM    9  F1  UNL     1      28.087   9.048  21.111  1.00  0.00    -0.249 F
HETATM   10  C6  UNL     1      28.398  11.424  20.587  1.00  0.00     0.042 C
ENDBRANCH   5   6
ENDBRANCH   3   5
ENDBRANCH   1   2
BRANCH   1  11
HETATM   11  C8  UNL     1      25.051  13.174  24.054  1.00  0.00     0.182 C
BRANCH  11  12
HETATM   12  N2  UNL     1      24.344  12.362  23.114  1.00  0.00    -0.355 N
HETATM   13  C9  UNL     1      23.443  11.327  23.530  1.00  0.00     0.222 C
HETATM   14  O2  UNL     1      23.279  11.123  24.734  1.00  0.00    -0.273 OA
ATOM     15  H2  UNL     1      24.485  12.524  22.116  1.00  0.00     0.162 HD
BRANCH  13  16
HETATM   16  C10 UNL     1      22.751  10.540  22.513  1.00  0.00     0.078 C
HETATM   17  C11 UNL     1      22.067  11.523  21.550  1.00  0.00     0.014 C
HETATM   18  C12 UNL     1      21.943  10.745  20.276  1.00  0.00     0.001 C
HETATM   19  C13 UNL     1      23.346  10.132  20.192  1.00  0.00     0.001 C
HETATM   20  C14 UNL     1      23.614   9.683  21.635  1.00  0.00     0.014 C
ENDBRANCH  13  16
ENDBRANCH  11  12
ENDBRANCH   1  11
TORSDOF 6
ENDMDL