MODEL 5
REMARK VINA RESULT: -6.325462721      5.200      6.509
REMARK  6 active torsions:
REMARK  status: ('A' for Active; 'I' for Inactive)
REMARK    1  A    between atoms: C2_2  and  C4_4
REMARK    2  A    between atoms: C4_4  and  C5_5
REMARK    3  A    between atoms: C5_5  and  C6_6
REMARK    4  A    between atoms: C5_5  and  N1_8
REMARK       I    between atoms: N1_8  and  C7_10
REMARK       I    between atoms: C7_10  and  N2_12
REMARK    5  A    between atoms: N2_12  and  C8_14
REMARK    6  A    between atoms: C8_14  and  C10_16
REMARK       I    between atoms: C10_16  and  N3_18
ROOT
HETATM    1  N1  UNL     1      21.408  11.967  22.592  1.00  0.00    -0.336 N
ATOM      2  H1  UNL     1      20.730  12.520  22.069  1.00  0.00     0.164 HD
HETATM    3  C7  UNL     1      21.572  12.173  23.988  1.00  0.00     0.317 C
HETATM    4  O1  UNL     1      22.396  11.515  24.674  1.00  0.00    -0.247 OA
HETATM    5  N2  UNL     1      20.792  13.148  24.656  1.00  0.00    -0.330 N
ATOM      6  H2  UNL     1      20.113  13.699  24.131  1.00  0.00     0.165 HD
ENDROOT
BRANCH   1   7
HETATM    7  C5  UNL     1      22.232  10.939  21.897  1.00  0.00     0.115 C
BRANCH   7   8
HETATM    8  C4  UNL     1      23.192  11.661  21.092  1.00  0.00     0.031 C
BRANCH   8   9
HETATM    9  C2  UNL     1      23.024  12.134  19.729  1.00  0.00    -0.021 C
HETATM   10  C1  UNL     1      22.643  13.563  19.477  1.00  0.00     0.009 C
HETATM   11  C3  UNL     1      24.413  11.974  19.049  1.00  0.00     0.009 C
ENDBRANCH   8   9
ENDBRANCH   7   8
BRANCH   7  12
HETATM   12  C6  UNL     1      21.353   9.877  21.401  1.00  0.00     0.247 C
HETATM   13  F1  UNL     1      21.025   9.871  20.078  1.00  0.00    -0.253 F
ENDBRANCH   7  12
ENDBRANCH   1   7
BRANCH   5  14
HETATM   14  C8  UNL     1      20.948  13.365  26.063  1.00  0.00     0.174 C
HETATM   15  C9  UNL     1      21.247  14.833  26.293  1.00  0.00     0.042 C
BRANCH  14  16
HETATM   16  C10 UNL     1      19.730  12.992  26.833  1.00  0.00     0.242 C
HETATM   17  O2  UNL     1      18.628  12.999  26.267  1.00  0.00    -0.271 OA
HETATM   18  N3  UNL     1      19.853  12.636  28.184  1.00  0.00    -0.350 N
HETATM   19  C11 UNL     1      20.903  12.499  29.194  1.00  0.00     0.127 C
HETATM   20  C13 UNL     1      18.915  12.226  29.221  1.00  0.00     0.127 C
HETATM   21  C12 UNL     1      19.844  12.843  30.236  1.00  0.00     0.040 C
ENDBRANCH  14  16
ENDBRANCH   5  14
TORSDOF 6
ENDMDL