MODEL 5
REMARK VINA RESULT: -6.159076580      1.931      3.529
REMARK  6 active torsions:
REMARK  status: ('A' for Active; 'I' for Inactive)
REMARK    1  A    between atoms: C2_2  and  N1_3
REMARK    2  A    between atoms: C2_2  and  C8_11
REMARK    3  A    between atoms: N1_3  and  C3_6
REMARK    4  A    between atoms: C3_6  and  C4_7
REMARK       I    between atoms: C8_11  and  N2_13
REMARK    5  A    between atoms: N2_13  and  C9_15
REMARK    6  A    between atoms: C9_15  and  C10_16
ROOT
HETATM    1  C8  UNL     1      25.700  12.741  21.337  1.00  0.00     0.248 C
HETATM    2  O1  UNL     1      26.361  11.904  20.679  1.00  0.00    -0.271 OA
HETATM    3  N2  UNL     1      24.367  13.080  21.141  1.00  0.00    -0.350 N
ATOM      4  H2  UNL     1      23.962  13.779  21.763  1.00  0.00     0.163 HD
ENDROOT
BRANCH   1   5
HETATM    5  C2  UNL     1      26.515  13.406  22.439  1.00  0.00     0.273 C
HETATM    6  C1  UNL     1      27.935  12.910  22.371  1.00  0.00     0.050 C
BRANCH   5   7
HETATM    7  N1  UNL     1      25.922  13.179  23.737  1.00  0.00    -0.062 N
ATOM      8  H12 UNL     1      24.915  13.337  23.725  1.00  0.00     0.278 HD
ATOM      9  H11 UNL     1      25.919  12.189  23.984  1.00  0.00     0.278 HD
BRANCH   7  10
HETATM   10  C3  UNL     1      26.571  13.971  24.733  1.00  0.00     0.242 C
BRANCH  10  11
HETATM   11  C4  UNL     1      25.660  14.988  25.370  1.00  0.00    -0.020 A
HETATM   12  C5  UNL     1      24.231  14.580  25.650  1.00  0.00     0.017 C
HETATM   13  C6  UNL     1      25.840  16.433  25.020  1.00  0.00     0.011 A
HETATM   14  C7  UNL     1      26.299  15.968  26.335  1.00  0.00     0.011 A
ENDBRANCH  10  11
ENDBRANCH   7  10
ENDBRANCH   5   7
ENDBRANCH   1   5
BRANCH   3  15
HETATM   15  C9  UNL     1      23.511  12.517  20.124  1.00  0.00     0.040 A
HETATM   16  C14 UNL     1      22.736  13.613  19.416  1.00  0.00     0.034 A
HETATM   17  C15 UNL     1      23.913  12.962  18.753  1.00  0.00     0.034 A
BRANCH  15  18
HETATM   18  C10 UNL     1      22.901  11.186  20.343  1.00  0.00     0.056 A
HETATM   19  C11 UNL     1      23.350  10.158  21.332  1.00  0.00     0.054 A
HETATM   20  C12 UNL     1      21.880  10.716  21.230  1.00  0.00     0.106 A
HETATM   21  C13 UNL     1      21.411  11.270  22.522  1.00  0.00     0.052 C
HETATM   22  F1  UNL     1      20.961   9.752  20.750  1.00  0.00    -0.243 F
ENDBRANCH  15  18
ENDBRANCH   3  15
TORSDOF 6
ENDMDL