MODEL 1
REMARK VINA RESULT: -6.590163251      0.000      0.000
REMARK  6 active torsions:
REMARK  status: ('A' for Active; 'I' for Inactive)
REMARK    1  A    between atoms: C1_2  and  C2_3
REMARK       I    between atoms: C1_2  and  N1_9
REMARK    2  A    between atoms: C2_3  and  C3_4
REMARK    3  A    between atoms: C3_4  and  C4_5
REMARK    4  A    between atoms: N1_9  and  C7_11
REMARK    5  A    between atoms: C7_11  and  C8_12
REMARK       I    between atoms: C8_12  and  N2_14
REMARK    6  A    between atoms: N2_14  and  C9_16
ROOT
HETATM    1  C7  UNL     1      22.888  11.459  24.021  1.00  0.00     0.225 C
ENDROOT
BRANCH   1   2
HETATM    2  N1  UNL     1      22.415  11.690  22.681  1.00  0.00    -0.352 N
HETATM    3  C1  UNL     1      22.711  10.667  21.707  1.00  0.00     0.217 C
HETATM    4  O1  UNL     1      23.347   9.664  22.080  1.00  0.00    -0.274 OA
ATOM      5  H1  UNL     1      21.899  12.534  22.433  1.00  0.00     0.162 HD
BRANCH   3   6
HETATM    6  C2  UNL     1      22.232  10.891  20.325  1.00  0.00     0.103 C
BRANCH   6   7
HETATM    7  C3  UNL     1      22.598  12.266  19.818  1.00  0.00     0.017 C
BRANCH   7   8
HETATM    8  C4  UNL     1      24.096  12.268  19.551  1.00  0.00     0.023 A
HETATM    9  C5  UNL     1      24.858  13.473  19.919  1.00  0.00     0.045 A
HETATM   10  C6  UNL     1      24.538  13.261  18.483  1.00  0.00     0.174 A
HETATM   11  F1  UNL     1      23.552  14.040  17.894  1.00  0.00    -0.249 F
ENDBRANCH   7   8
ENDBRANCH   6   7
ENDBRANCH   3   6
ENDBRANCH   1   2
BRANCH   1  12
HETATM   12  C8  UNL     1      21.971  11.965  25.027  1.00  0.00     0.235 C
HETATM   13  O2  UNL     1      20.946  12.604  24.580  1.00  0.00    -0.272 OA
HETATM   14  N2  UNL     1      22.102  11.822  26.400  1.00  0.00    -0.355 N
ATOM     15  H2  UNL     1      22.905  11.320  26.780  1.00  0.00     0.162 HD
BRANCH  14  16
HETATM   16  C9  UNL     1      21.102  12.381  27.308  1.00  0.00     0.084 C
HETATM   17  C10 UNL     1      21.735  13.075  28.471  1.00  0.00     0.025 C
HETATM   18  C11 UNL     1      20.880  13.340  29.643  1.00  0.00     0.002 C
HETATM   19  C12 UNL     1      19.665  12.492  29.812  1.00  0.00     0.000 C
HETATM   20  C13 UNL     1      19.042  12.057  28.529  1.00  0.00     0.002 C
HETATM   21  C14 UNL     1      20.105  11.325  27.734  1.00  0.00     0.025 C
ENDBRANCH  14  16
ENDBRANCH   1  12
TORSDOF 6
ENDMDL