MODEL 2
REMARK VINA RESULT: -5.896585984      4.165      7.899
REMARK  6 active torsions:
REMARK  status: ('A' for Active; 'I' for Inactive)
REMARK    1  A    between atoms: C2_2  and  C4_4
REMARK    2  A    between atoms: C4_4  and  C5_5
REMARK    3  A    between atoms: C5_5  and  N1_6
REMARK    4  A    between atoms: C5_5  and  C13_17
REMARK       I    between atoms: N1_6  and  C6_8
REMARK    5  A    between atoms: C6_8  and  C7_10
REMARK    6  A    between atoms: C9_12  and  C10_13
ROOT
HETATM    1  N1  UNL     1      20.479  11.463  26.020  1.00  0.00    -0.346 N
ATOM      2  H1  UNL     1      20.739  10.494  26.206  1.00  0.00     0.163 HD
HETATM    3  C6  UNL     1      20.923  12.063  24.821  1.00  0.00     0.223 C
HETATM    4  O1  UNL     1      20.584  13.270  24.614  1.00  0.00    -0.273 OA
ENDROOT
BRANCH   1   5
HETATM    5  C5  UNL     1      19.670  12.161  26.996  1.00  0.00     0.185 C
BRANCH   5   6
HETATM    6  C4  UNL     1      19.959  11.561  28.347  1.00  0.00     0.040 C
BRANCH   6   7
HETATM    7  C2  UNL     1      20.598  12.511  29.315  1.00  0.00    -0.020 C
HETATM    8  C1  UNL     1      19.559  12.757  30.419  1.00  0.00     0.009 C
HETATM    9  C3  UNL     1      20.834  13.877  28.663  1.00  0.00     0.009 C
ENDBRANCH   6   7
ENDBRANCH   5   6
BRANCH   5  10
HETATM   10  C13 UNL     1      18.219  11.969  26.741  1.00  0.00     0.196 C
HETATM   11  O2  UNL     1      17.428  12.812  27.233  1.00  0.00    -0.646 OA
HETATM   12  O3  UNL     1      17.698  10.939  26.013  1.00  0.00    -0.646 OA
ENDBRANCH   5  10
ENDBRANCH   1   5
BRANCH   3  13
HETATM   13  C7  UNL     1      21.742  11.397  23.806  1.00  0.00     0.083 A
HETATM   14  C8  UNL     1      20.954  10.405  22.932  1.00  0.00     0.020 A
HETATM   15  C9  UNL     1      21.507  11.637  22.361  1.00  0.00     0.005 A
BRANCH  15  16
HETATM   16  C10 UNL     1      22.655  11.462  21.388  1.00  0.00     0.010 A
HETATM   17  C11 UNL     1      22.405  12.082  20.032  1.00  0.00     0.027 A
HETATM   18  C12 UNL     1      22.484  10.608  20.193  1.00  0.00     0.087 A
HETATM   19 CL1  UNL     1      23.929   9.837  19.496  1.00  0.00    -0.125 Cl
ENDBRANCH  15  16
ENDBRANCH   3  13
TORSDOF 6
ENDMDL