MODEL 3
REMARK VINA RESULT: -6.206758205      2.022      2.728
REMARK  6 active torsions:
REMARK  status: ('A' for Active; 'I' for Inactive)
REMARK    1  A    between atoms: C2_2  and  C4_4
REMARK    2  A    between atoms: N1_9  and  C8_10
REMARK    3  A    between atoms: C8_10  and  C9_11
REMARK    4  A    between atoms: C9_11  and  N2_13
REMARK       I    between atoms: N2_13  and  C11_15
REMARK    5  A    between atoms: C11_15  and  C12_17
REMARK    6  A    between atoms: C12_17  and  N3_18
ROOT
HETATM    1  C8  UNL     1      26.052  10.858  19.942  1.00  0.00     0.141 C
ENDROOT
BRANCH   1   2
HETATM    2  N1  UNL     1      25.149  11.841  20.424  1.00  0.00    -0.407 N
HETATM    3  C7  UNL     1      24.708  12.805  19.479  1.00  0.00     0.117 C
HETATM    4  C6  UNL     1      23.325  13.296  19.935  1.00  0.00     0.023 C
HETATM    5  C5  UNL     1      22.396  12.126  19.655  1.00  0.00     0.052 C
HETATM    6  C4  UNL     1      22.843  10.996  20.553  1.00  0.00     0.141 C
HETATM    7  F1  UNL     1      23.077   9.837  19.810  1.00  0.00    -0.236 F
HETATM    8  C14 UNL     1      24.127  11.305  21.273  1.00  0.00     0.165 C
BRANCH   6   9
HETATM    9  C2  UNL     1      21.771  10.742  21.532  1.00  0.00    -0.052 C
HETATM   10  C1  UNL     1      21.057   9.645  21.465  1.00  0.00     0.017 C
HETATM   11  C3  UNL     1      21.500  11.727  22.599  1.00  0.00     0.046 C
ENDBRANCH   6   9
ENDBRANCH   1   2
BRANCH   1  12
HETATM   12  C9  UNL     1      27.502  11.125  20.228  1.00  0.00     0.098 C
HETATM   13  C10 UNL     1      28.283   9.870  19.926  1.00  0.00     0.034 C
BRANCH  12  14
HETATM   14  N2  UNL     1      27.714  11.578  21.592  1.00  0.00    -0.354 N
HETATM   15  C11 UNL     1      28.043  12.939  21.899  1.00  0.00     0.243 C
HETATM   16  O1  UNL     1      28.164  13.812  21.004  1.00  0.00    -0.272 OA
ATOM     17  H2  UNL     1      27.625  10.906  22.354  1.00  0.00     0.162 HD
BRANCH  15  18
HETATM   18  C12 UNL     1      28.252  13.366  23.293  1.00  0.00     0.334 C
BRANCH  18  19
HETATM   19  N3  UNL     1      29.358  14.295  23.420  1.00  0.00    -0.071 N
HETATM   20  C13 UNL     1      29.131  15.122  24.587  1.00  0.00     0.267 C
ATOM     21  H32 UNL     1      30.263  13.826  23.442  1.00  0.00     0.277 HD
ATOM     22  H31 UNL     1      29.506  14.845  22.573  1.00  0.00     0.277 HD
ENDBRANCH  18  19
ENDBRANCH  15  18
ENDBRANCH  12  14
ENDBRANCH   1  12
TORSDOF 6
ENDMDL