MODEL 3
REMARK VINA RESULT: -6.592851361      4.086      7.617
REMARK  6 active torsions:
REMARK  status: ('A' for Active; 'I' for Inactive)
REMARK    1  A    between atoms: C1_2  and  C2_3
REMARK       I    between atoms: C1_2  and  N2_15
REMARK    2  A    between atoms: C2_3  and  C3_4
REMARK    3  A    between atoms: C3_4  and  C4_5
REMARK       I    between atoms: C4_5  and  N1_7
REMARK    4  A    between atoms: N1_7  and  C5_9
REMARK    5  A    between atoms: N2_15  and  C11_17
REMARK    6  A    between atoms: C11_17  and  C12_18
ROOT
HETATM    1  C3  UNL     1      22.757  13.497  19.459  1.00  0.00     0.112 C
ENDROOT
BRANCH   1   2
HETATM    2  C2  UNL     1      23.989  13.248  18.653  1.00  0.00     0.112 C
BRANCH   2   3
HETATM    3  C1  UNL     1      25.041  12.690  19.590  1.00  0.00     0.217 C
HETATM    4  O1  UNL     1      25.682  13.496  20.275  1.00  0.00    -0.274 OA
HETATM    5  N2  UNL     1      25.221  11.313  19.617  1.00  0.00    -0.361 N
ATOM      6  H2  UNL     1      24.594  10.800  18.997  1.00  0.00     0.162 HD
BRANCH   5   7
HETATM    7  C11 UNL     1      26.113  10.492  20.346  1.00  0.00     0.130 C
BRANCH   7   8
HETATM    8  C12 UNL     1      27.508  10.494  19.889  1.00  0.00     0.040 A
HETATM    9  C13 UNL     1      28.730  10.931  20.580  1.00  0.00     0.046 A
HETATM   10  C14 UNL     1      28.530   9.464  20.334  1.00  0.00     0.176 A
HETATM   11  F1  UNL     1      28.211   8.701  21.434  1.00  0.00    -0.249 F
ENDBRANCH   7   8
ENDBRANCH   5   7
ENDBRANCH   2   3
ENDBRANCH   1   2
BRANCH   1  12
HETATM   12  C4  UNL     1      22.321  12.315  20.225  1.00  0.00     0.218 C
HETATM   13  O2  UNL     1      22.047  11.259  19.619  1.00  0.00    -0.274 OA
HETATM   14  N1  UNL     1      22.206  12.347  21.632  1.00  0.00    -0.356 N
ATOM     15  H1  UNL     1      22.431  13.212  22.124  1.00  0.00     0.162 HD
BRANCH  14  16
HETATM   16  C5  UNL     1      21.777  11.189  22.408  1.00  0.00     0.084 C
HETATM   17  C6  UNL     1      21.019  11.671  23.601  1.00  0.00     0.025 C
HETATM   18  C7  UNL     1      20.477  10.529  24.440  1.00  0.00     0.002 C
HETATM   19  C8  UNL     1      21.553   9.500  24.706  1.00  0.00     0.000 C
HETATM   20  C9  UNL     1      22.901   9.960  24.227  1.00  0.00     0.002 C
HETATM   21  C10 UNL     1      22.967  10.411  22.815  1.00  0.00     0.025 C
ENDBRANCH  14  16
ENDBRANCH   1  12
TORSDOF 6
ENDMDL