MODEL 1
REMARK VINA RESULT: -6.907806637      0.000      0.000
REMARK  6 active torsions:
REMARK  status: ('A' for Active; 'I' for Inactive)
REMARK    1  A    between atoms: C1_2  and  C2_3
REMARK       I    between atoms: C1_2  and  N1_7
REMARK    2  A    between atoms: C2_3  and  C3_4
REMARK    3  A    between atoms: N1_7  and  C5_9
REMARK    4  A    between atoms: C5_9  and  C6_10
REMARK       I    between atoms: C6_10  and  N2_12
REMARK    5  A    between atoms: N2_12  and  C7_14
REMARK    6  A    between atoms: C7_14  and  C8_15
ROOT
HETATM    1  C6  UNL     1      22.400  10.000  23.905  1.00  0.00     0.238 C
HETATM    2  O2  UNL     1      23.289  10.564  24.552  1.00  0.00    -0.271 OA
HETATM    3  N2  UNL     1      22.563   9.579  22.587  1.00  0.00    -0.339 N
ATOM      4  H2  UNL     1      21.747   9.139  22.162  1.00  0.00     0.167 HD
ENDROOT
BRANCH   1   5
HETATM    5  C5  UNL     1      21.101   9.773  24.592  1.00  0.00     0.225 C
BRANCH   5   6
HETATM    6  N1  UNL     1      21.174  10.086  25.987  1.00  0.00    -0.352 N
HETATM    7  C1  UNL     1      20.125  10.748  26.664  1.00  0.00     0.221 C
HETATM    8  O1  UNL     1      19.088  11.075  26.054  1.00  0.00    -0.273 OA
ATOM      9  H1  UNL     1      22.010   9.823  26.510  1.00  0.00     0.162 HD
BRANCH   7  10
HETATM   10  C2  UNL     1      20.252  11.056  28.098  1.00  0.00     0.130 C
BRANCH  10  11
HETATM   11  C3  UNL     1      21.140  12.214  28.353  1.00  0.00    -0.006 C
HETATM   12  C4  UNL     1      20.905  13.046  29.359  1.00  0.00     0.081 C
HETATM   13 CL1  UNL     1      19.529  12.802  30.429  1.00  0.00    -0.097 Cl
ENDBRANCH  10  11
ENDBRANCH   7  10
ENDBRANCH   5   6
ENDBRANCH   1   5
BRANCH   3  14
HETATM   14  C7  UNL     1      23.692   9.674  21.767  1.00  0.00     0.068 C
BRANCH  14  15
HETATM   15  C8  UNL     1      23.821  10.680  20.707  1.00  0.00     0.024 C
HETATM   16  C9  UNL     1      24.609  10.421  19.484  1.00  0.00     0.010 C
HETATM   17  C10 UNL     1      24.773  11.720  18.679  1.00  0.00     0.001 C
HETATM   18  C11 UNL     1      24.062  12.855  19.362  1.00  0.00     0.000 C
HETATM   19  C12 UNL     1      22.658  12.615  19.760  1.00  0.00     0.001 C
HETATM   20  C13 UNL     1      22.453  11.215  20.243  1.00  0.00     0.010 C
ENDBRANCH  14  15
ENDBRANCH   3  14
TORSDOF 6
ENDMDL