MODEL 3
REMARK VINA RESULT: -6.420577986      1.375      2.514
REMARK  5 active torsions:
REMARK  status: ('A' for Active; 'I' for Inactive)
REMARK    1  A    between atoms: C2_2  and  C3_3
REMARK    2  A    between atoms: C3_3  and  N1_4
REMARK    3  A    between atoms: C3_3  and  C12_19
REMARK       I    between atoms: N1_4  and  C4_6
REMARK    4  A    between atoms: C4_6  and  C5_8
REMARK    5  A    between atoms: C9_13  and  C10_14
REMARK       I    between atoms: C10_14  and  N2_16
ROOT
HETATM    1  C5  UNL     1      24.077  10.328  21.392  1.00  0.00     0.093 C
HETATM    2  C6  UNL     1      22.997   9.478  20.779  1.00  0.00     0.052 C
HETATM    3  C7  UNL     1      21.818  10.349  20.527  1.00  0.00     0.171 C
HETATM    4  F1  UNL     1      20.702   9.730  21.055  1.00  0.00    -0.249 F
HETATM    5  C8  UNL     1      22.075  11.694  21.122  1.00  0.00     0.052 C
HETATM    6  C9  UNL     1      23.342  11.545  21.904  1.00  0.00     0.093 C
ENDROOT
BRANCH   1   7
HETATM    7  C4  UNL     1      25.162  10.659  20.468  1.00  0.00     0.223 C
HETATM    8  N1  UNL     1      26.404  11.096  20.935  1.00  0.00    -0.356 N
ATOM      9  H1  UNL     1      26.506  11.169  21.947  1.00  0.00     0.162 HD
HETATM   10  O1  UNL     1      24.957  10.544  19.250  1.00  0.00    -0.273 OA
BRANCH   8  11
HETATM   11  C3  UNL     1      27.547  11.452  20.156  1.00  0.00     0.087 C
BRANCH  11  12
HETATM   12  C2  UNL     1      27.859  12.913  20.402  1.00  0.00     0.021 C
HETATM   13  C1  UNL     1      27.069  13.816  19.487  1.00  0.00     0.007 C
ENDBRANCH  11  12
BRANCH  11  14
HETATM   14  C12 UNL     1      28.785  10.666  20.409  1.00  0.00     0.000 C
HETATM   15  C13 UNL     1      29.757  11.318  21.332  1.00  0.00     0.011 C
HETATM   16  C14 UNL     1      28.506   9.260  20.905  1.00  0.00     0.011 C
ENDBRANCH  11  14
ENDBRANCH   8  11
ENDBRANCH   1   7
BRANCH   6  17
HETATM   17  C10 UNL     1      22.963  11.285  23.336  1.00  0.00     0.222 C
HETATM   18  O2  UNL     1      23.225  10.173  23.888  1.00  0.00    -0.273 OA
HETATM   19  N2  UNL     1      22.304  12.282  24.103  1.00  0.00    -0.365 N
HETATM   20  C11 UNL     1      21.942  12.030  25.476  1.00  0.00     0.149 C
ATOM     21  H2  UNL     1      22.084  13.183  23.679  1.00  0.00     0.161 HD
ENDBRANCH   6  17
TORSDOF 5
ENDMDL