MODEL 5
REMARK VINA RESULT: -6.272866008      3.934      7.845
REMARK  6 active torsions:
REMARK  status: ('A' for Active; 'I' for Inactive)
REMARK    1  A    between atoms: C1_2  and  C2_3
REMARK       I    between atoms: C1_2  and  N1_13
REMARK    2  A    between atoms: C2_3  and  C3_4
REMARK    3  A    between atoms: C3_4  and  C4_5
REMARK    4  A    between atoms: N1_13  and  C10_15
REMARK    5  A    between atoms: C10_15  and  C11_16
REMARK    6  A    between atoms: C11_16  and  C12_17
ROOT
HETATM    1  O1  UNL     1      22.035  10.216  20.651  1.00  0.00    -0.274 OA
HETATM    2  C1  UNL     1      22.170  11.433  20.888  1.00  0.00     0.218 C
HETATM    3  N1  UNL     1      21.748  11.952  22.121  1.00  0.00    -0.361 N
ATOM      4  H1  UNL     1      21.861  12.947  22.316  1.00  0.00     0.162 HD
ENDROOT
BRANCH   2   5
HETATM    5  C2  UNL     1      22.763  12.314  19.887  1.00  0.00     0.123 C
BRANCH   5   6
HETATM    6  C3  UNL     1      24.245  12.231  19.726  1.00  0.00     0.056 C
HETATM    7  C5  UNL     1      24.989  11.912  20.973  1.00  0.00     0.021 C
HETATM    8  C6  UNL     1      26.049  10.841  20.785  1.00  0.00     0.001 C
HETATM    9  C7  UNL     1      26.960  11.279  19.659  1.00  0.00     0.000 C
HETATM   10  C8  UNL     1      26.134  11.439  18.417  1.00  0.00     0.001 C
HETATM   11  C9  UNL     1      24.652  11.210  18.665  1.00  0.00     0.021 C
BRANCH   6  12
HETATM   12  C4  UNL     1      24.682  13.547  19.178  1.00  0.00     0.182 C
HETATM   13  O2  UNL     1      24.173  13.926  18.097  1.00  0.00    -0.647 OA
HETATM   14  O3  UNL     1      25.630  14.327  19.857  1.00  0.00    -0.647 OA
ENDBRANCH   6  12
ENDBRANCH   5   6
ENDBRANCH   2   5
BRANCH   3  15
HETATM   15  C10 UNL     1      21.156  11.093  23.112  1.00  0.00     0.123 C
BRANCH  15  16
HETATM   16  C11 UNL     1      20.670  11.759  24.340  1.00  0.00     0.027 C
BRANCH  16  17
HETATM   17  C12 UNL     1      20.206  10.813  25.412  1.00  0.00     0.024 A
HETATM   18  C13 UNL     1      18.982  11.316  26.204  1.00  0.00     0.045 A
HETATM   19  C14 UNL     1      20.314  11.104  26.840  1.00  0.00     0.174 A
HETATM   20  F1  UNL     1      20.423  10.022  27.701  1.00  0.00    -0.249 F
ENDBRANCH  16  17
ENDBRANCH  15  16
ENDBRANCH   3  15
TORSDOF 6
ENDMDL