MODEL 3
REMARK VINA RESULT: -6.517830366      3.390      5.520
REMARK  3 active torsions:
REMARK  status: ('A' for Active; 'I' for Inactive)
REMARK    1  A    between atoms: C1_2  and  C2_4
REMARK    2  A    between atoms: C2_4  and  C3_5
REMARK    3  A    between atoms: C3_5  and  C4_6
ROOT
HETATM    1  C4  UNL     1      21.519  12.104  21.458  1.00  0.00     0.010 C
HETATM    2  C5  UNL     1      21.834  13.618  21.137  1.00  0.00     0.007 C
HETATM    3  C6  UNL     1      22.671  13.775  20.013  1.00  0.00     0.000 C
HETATM    4  C7  UNL     1      23.662  14.448  19.251  1.00  0.00     0.000 C
HETATM    5  C8  UNL     1      24.238  13.382  18.249  1.00  0.00     0.000 C
HETATM    6  C9  UNL     1      25.119  12.367  18.822  1.00  0.00     0.005 C
HETATM    7  C10 UNL     1      24.851  10.874  18.560  1.00  0.00     0.066 C
HETATM    8  C11 UNL     1      23.919  10.221  19.443  1.00  0.00     0.306 C
HETATM    9  F1  UNL     1      24.747  10.585  20.524  1.00  0.00    -0.220 F
HETATM   10  O3  UNL     1      22.925  10.104  20.336  1.00  0.00    -0.356 OA
HETATM   11  C12 UNL     1      22.477  11.207  20.945  1.00  0.00     0.176 C
ENDROOT
BRANCH   1  12
HETATM   12  C3  UNL     1      21.460  11.987  22.987  1.00  0.00     0.017 C
BRANCH  12  13
HETATM   13  C2  UNL     1      21.728  13.332  23.607  1.00  0.00     0.113 C
BRANCH  13  14
HETATM   14  C1  UNL     1      22.786  13.178  24.639  1.00  0.00     0.172 C
HETATM   15  O1  UNL     1      23.081  14.110  25.427  1.00  0.00    -0.648 OA
HETATM   16  O2  UNL     1      23.491  11.985  24.770  1.00  0.00    -0.648 OA
ENDBRANCH  13  14
ENDBRANCH  12  13
ENDBRANCH   1  12
TORSDOF 3
ENDMDL