MODEL 3
REMARK VINA RESULT: -6.375562128      5.248      7.263
REMARK  3 active torsions:
REMARK  status: ('A' for Active; 'I' for Inactive)
REMARK    1  A    between atoms: C2_2  and  C3_3
REMARK    2  A    between atoms: C3_3  and  C4_4
REMARK       I    between atoms: C4_4  and  N1_6
REMARK    3  A    between atoms: N1_6  and  N2_8
ROOT
HETATM    1  N2  UNL     1      22.576  12.110  25.699  1.00  0.00    -0.306 N
ATOM      2  H2  UNL     1      23.523  12.478  25.614  1.00  0.00     0.186 HD
HETATM    3  C5  UNL     1      22.047  11.561  24.666  1.00  0.00     0.008 C
HETATM    4  C6  UNL     1      20.694  11.028  24.763  1.00  0.00     0.055 C
HETATM    5  C7  UNL     1      20.324  10.064  23.677  1.00  0.00     0.010 C
HETATM    6  C8  UNL     1      21.312  10.002  22.550  1.00  0.00    -0.013 C
HETATM    7  C9  UNL     1      21.162  11.256  21.731  1.00  0.00     0.009 C
HETATM    8  C10 UNL     1      22.214  12.179  22.253  1.00  0.00    -0.009 C
HETATM    9  C11 UNL     1      21.766  13.575  22.505  1.00  0.00     0.011 C
HETATM   10  C12 UNL     1      22.865  11.500  23.429  1.00  0.00     0.037 C
HETATM   11  C13 UNL     1      22.750  10.031  22.979  1.00  0.00     0.015 C
ENDROOT
BRANCH   1  12
HETATM   12  N1  UNL     1      21.930  12.236  26.940  1.00  0.00    -0.270 N
HETATM   13  C4  UNL     1      22.292  13.303  27.784  1.00  0.00     0.235 C
HETATM   14  O1  UNL     1      23.173  14.118  27.430  1.00  0.00    -0.272 OA
ATOM     15  H1  UNL     1      21.212  11.568  27.223  1.00  0.00     0.190 HD
BRANCH  13  16
HETATM   16  C3  UNL     1      21.618  13.444  29.092  1.00  0.00     0.104 C
BRANCH  16  17
HETATM   17  C2  UNL     1      20.463  12.507  29.270  1.00  0.00     0.005 C
HETATM   18  C1  UNL     1      19.743  12.844  30.549  1.00  0.00     0.005 C
ENDBRANCH  16  17
ENDBRANCH  13  16
ENDBRANCH   1  12
TORSDOF 3
ENDMDL