MODEL 5
REMARK VINA RESULT: -6.013341839      3.599      5.691
REMARK  4 active torsions:
REMARK  status: ('A' for Active; 'I' for Inactive)
REMARK    1  A    between atoms: C2_2  and  C5_5
REMARK    2  A    between atoms: C6_7  and  C7_8
REMARK    3  A    between atoms: C7_8  and  C8_9
REMARK    4  A    between atoms: C10_11  and  O1_12
ROOT
HETATM    1  C8  UNL     1      26.997  11.499  19.532  1.00  0.00    -0.010 C
HETATM    2  C9  UNL     1      27.598  10.331  19.390  1.00  0.00     0.016 C
HETATM    3  C10 UNL     1      28.406  10.042  20.589  1.00  0.00     0.148 C
HETATM    4  C11 UNL     1      28.596  11.402  21.216  1.00  0.00     0.119 C
HETATM    5  C12 UNL     1      27.347  12.091  20.814  1.00  0.00     0.158 C
HETATM    6  O2  UNL     1      26.698  12.983  21.396  1.00  0.00    -0.293 OA
ENDROOT
BRANCH   1   7
HETATM    7  C7  UNL     1      26.096  12.097  18.495  1.00  0.00     0.070 C
BRANCH   7   8
HETATM    8  C6  UNL     1      24.677  11.975  18.893  1.00  0.00    -0.002 C
HETATM    9  C5  UNL     1      23.950  13.026  19.175  1.00  0.00     0.016 C
HETATM   10 CL1  UNL     1      24.683  14.618  19.077  1.00  0.00    -0.088 Cl
BRANCH   9  11
HETATM   11  C2  UNL     1      22.516  12.955  19.581  1.00  0.00    -0.013 C
HETATM   12  C1  UNL     1      22.277  13.522  20.948  1.00  0.00     0.020 C
HETATM   13  C3  UNL     1      22.115  11.499  19.592  1.00  0.00     0.020 C
HETATM   14  C4  UNL     1      21.711  13.751  18.582  1.00  0.00     0.020 C
ENDBRANCH   9  11
ENDBRANCH   7   8
ENDBRANCH   1   7
BRANCH   3  15
HETATM   15  O1  UNL     1      27.751   9.185  21.473  1.00  0.00    -0.391 OA
ATOM     16  H1  UNL     1      28.267   9.007  22.250  1.00  0.00     0.210 HD
ENDBRANCH   3  15
TORSDOF 4
ENDMDL