MODEL 3
REMARK VINA RESULT: -5.874064934      1.679      1.883
REMARK  4 active torsions:
REMARK  status: ('A' for Active; 'I' for Inactive)
REMARK    1  A    between atoms: O1_2  and  C2_3
REMARK       I    between atoms: C2_3  and  N1_5
REMARK    2  A    between atoms: N1_5  and  C3_7
REMARK    3  A    between atoms: C3_7  and  C4_8
REMARK    4  A    between atoms: C4_8  and  C5_9
ROOT
HETATM    1  C5  UNL     1      21.613  11.007  22.284  1.00  0.00     0.038 C
HETATM    2 CL1  UNL     1      20.209  10.204  23.022  1.00  0.00    -0.119 Cl
HETATM    3  C6  UNL     1      21.725  10.438  20.886  1.00  0.00     0.026 C
HETATM    4  C7  UNL     1      22.663  11.149  19.991  1.00  0.00     0.002 C
HETATM    5  C8  UNL     1      21.910  12.250  19.267  1.00  0.00     0.000 C
HETATM    6  C9  UNL     1      21.974  13.510  20.057  1.00  0.00     0.000 C
HETATM    7  C10 UNL     1      22.263  13.329  21.517  1.00  0.00     0.002 C
HETATM    8  C11 UNL     1      21.235  12.458  22.150  1.00  0.00     0.026 C
ENDROOT
BRANCH   1   9
HETATM    9  C4  UNL     1      22.848  10.733  23.025  1.00  0.00     0.045 C
BRANCH   9  10
HETATM   10  C3  UNL     1      23.004  11.214  24.404  1.00  0.00     0.127 C
BRANCH  10  11
HETATM   11  N1  UNL     1      23.973  12.262  24.588  1.00  0.00    -0.337 N
HETATM   12  C2  UNL     1      23.617  13.595  24.921  1.00  0.00     0.360 C
HETATM   13  O2  UNL     1      22.408  13.898  25.070  1.00  0.00    -0.239 OA
ATOM     14  H1  UNL     1      24.961  12.036  24.475  1.00  0.00     0.164 HD
BRANCH  12  15
HETATM   15  O1  UNL     1      24.561  14.598  25.094  1.00  0.00    -0.309 OA
HETATM   16  C1  UNL     1      25.897  14.325  24.729  1.00  0.00     0.215 C
ENDBRANCH  12  15
ENDBRANCH  10  11
ENDBRANCH   9  10
ENDBRANCH   1   9
TORSDOF 4
ENDMDL