MODEL 5
REMARK VINA RESULT: -5.343705817      2.604      5.574
REMARK  4 active torsions:
REMARK  status: ('A' for Active; 'I' for Inactive)
REMARK    1  A    between atoms: C2_2  and  N1_3
REMARK    2  A    between atoms: N1_3  and  C3_4
REMARK    3  A    between atoms: N1_3  and  C10_15
REMARK    4  A    between atoms: C6_9  and  C7_10
ROOT
HETATM    1  C3  UNL     1      24.321  11.309  20.642  1.00  0.00     0.673 C
HETATM    2  N2  UNL     1      23.969  11.403  19.405  1.00  0.00    -0.226 N
ATOM      3  H2  UNL     1      22.968  11.458  19.215  1.00  0.00     0.177 HD
HETATM    4  C4  UNL     1      24.848  11.439  18.265  1.00  0.00     0.140 C
HETATM    5  C5  UNL     1      26.293  11.673  18.634  1.00  0.00     0.046 C
HETATM    6  C6  UNL     1      26.547  10.735  19.825  1.00  0.00     0.104 C
HETATM    7  N3  UNL     1      25.731  11.234  20.887  1.00  0.00    -0.221 N
ATOM      8  H3  UNL     1      26.134  11.523  21.780  1.00  0.00     0.178 HD
ENDROOT
BRANCH   1   9
HETATM    9  N1  UNL     1      23.380  11.280  21.703  1.00  0.00    -0.201 N
BRANCH   9  10
HETATM   10  C2  UNL     1      23.148  12.481  22.473  1.00  0.00     0.138 C
HETATM   11  C1  UNL     1      22.197  13.433  21.810  1.00  0.00     0.027 C
ENDBRANCH   9  10
BRANCH   9  12
HETATM   12  C10 UNL     1      22.596  10.150  22.120  1.00  0.00     0.195 C
HETATM   13  C11 UNL     1      21.192  10.154  21.608  1.00  0.00     0.050 C
HETATM   14 CL1  UNL     1      22.669  10.053  23.887  1.00  0.00    -0.102 Cl
ENDBRANCH   9  12
ENDBRANCH   1   9
BRANCH   6  15
HETATM   15  C7  UNL     1      28.014  10.694  20.156  1.00  0.00     0.001 C
HETATM   16  C8  UNL     1      28.448  11.981  20.816  1.00  0.00     0.011 C
HETATM   17  C9  UNL     1      28.406   9.534  21.000  1.00  0.00     0.011 C
ENDBRANCH   6  15
TORSDOF 4
ENDMDL