MODEL 4
REMARK VINA RESULT: -5.500071993      1.876      3.851
REMARK  4 active torsions:
REMARK  status: ('A' for Active; 'I' for Inactive)
REMARK    1  A    between atoms: C2_2  and  C3_3
REMARK    2  A    between atoms: C2_2  and  C9_12
REMARK    3  A    between atoms: C3_3  and  N1_5
REMARK    4  A    between atoms: N1_5  and  C4_7
ROOT
HETATM    1  C3  UNL     1      23.916  10.911  20.879  1.00  0.00     0.082 C
HETATM    2  S1  UNL     1      24.114   9.269  21.184  1.00  0.00    -0.065 SA
ENDROOT
BRANCH   1   3
HETATM    3  C2  UNL     1      23.792  11.237  19.461  1.00  0.00     0.077 C
HETATM    4  C1  UNL     1      24.926  10.889  18.567  1.00  0.00     0.022 C
BRANCH   3   5
HETATM    5  C9  UNL     1      23.312  12.647  19.317  1.00  0.00    -0.024 A
HETATM    6  C10 UNL     1      21.976  13.044  19.211  1.00  0.00     0.034 A
HETATM    7  C11 UNL     1      21.925  14.417  19.092  1.00  0.00     0.142 A
HETATM    8  O1  UNL     1      23.152  14.843  19.122  1.00  0.00    -0.334 OA
HETATM    9  C12 UNL     1      24.003  13.827  19.255  1.00  0.00     0.149 A
ENDBRANCH   3   5
ENDBRANCH   1   3
BRANCH   1  10
HETATM   10  N1  UNL     1      23.887  11.717  22.009  1.00  0.00    -0.379 N
ATOM     11  H1  UNL     1      24.758  12.195  22.237  1.00  0.00     0.160 HD
BRANCH  10  12
HETATM   12  C4  UNL     1      22.796  11.961  22.886  1.00  0.00     0.082 C
HETATM   13  C5  UNL     1      21.496  11.327  22.450  1.00  0.00     0.025 C
HETATM   14  C6  UNL     1      20.582  11.897  23.549  1.00  0.00     0.002 C
HETATM   15  C7  UNL     1      21.036  13.342  23.603  1.00  0.00     0.002 C
HETATM   16  C8  UNL     1      22.359  13.433  22.875  1.00  0.00     0.025 C
ENDBRANCH  10  12
ENDBRANCH   1  10
TORSDOF 4
ENDMDL