MODEL 2
REMARK VINA RESULT: -5.826827781      2.596      3.066
REMARK  5 active torsions:
REMARK  status: ('A' for Active; 'I' for Inactive)
REMARK    1  A    between atoms: N1_4  and  O1_5
REMARK    2  A    between atoms: C5_9  and  C6_11
REMARK    3  A    between atoms: C6_11  and  C7_12
REMARK    4  A    between atoms: C7_12  and  N2_13
REMARK    5  A    between atoms: N2_13  and  N3_15
ROOT
HETATM    1  C1  UNL     1      22.045  13.393  18.597  1.00  0.00     0.043 C
HETATM    2  C2  UNL     1      23.404  13.158  19.194  1.00  0.00     0.086 C
HETATM    3  C3  UNL     1      24.330  12.352  18.332  1.00  0.00     0.043 C
HETATM    4  N1  UNL     1      24.032  14.447  19.500  1.00  0.00    -0.215 N
HETATM    5  C4  UNL     1      24.588  13.824  20.647  1.00  0.00     0.270 C
HETATM    6  O2  UNL     1      25.636  14.062  21.292  1.00  0.00    -0.269 OA
HETATM    7  C5  UNL     1      23.439  12.889  20.662  1.00  0.00     0.148 C
HETATM    8 CL1  UNL     1      21.997  13.498  21.489  1.00  0.00    -0.106 Cl
ENDROOT
BRANCH   7   9
HETATM    9  C6  UNL     1      23.808  11.516  21.097  1.00  0.00     0.059 C
BRANCH   9  10
HETATM   10  C7  UNL     1      22.672  10.748  21.736  1.00  0.00     0.143 C
BRANCH  10  11
HETATM   11  N2  UNL     1      23.288   9.756  22.611  1.00  0.00    -0.323 N
ATOM     12  H2  UNL     1      24.029   9.144  22.271  1.00  0.00     0.181 HD
BRANCH  11  13
HETATM   13  N3  UNL     1      22.883   9.681  23.779  1.00  0.00    -0.254 N
HETATM   14  N4  UNL     1      22.160   9.302  24.699  1.00  0.00    -0.331 N
ATOM     15  H42 UNL     1      21.531   8.696  24.170  1.00  0.00     0.178 HD
ATOM     16  H41 UNL     1      21.826   9.241  25.660  1.00  0.00     0.178 HD
ATOM     17  H3  UNL     1      23.535  10.297  24.265  1.00  0.00     0.207 HD
ENDBRANCH  11  13
ENDBRANCH  10  11
ENDBRANCH   9  10
ENDBRANCH   7   9
BRANCH   4  18
HETATM   18  O1  UNL     1      24.045  15.662  18.920  1.00  0.00    -0.284 OA
ATOM     19  H1  UNL     1      24.396  16.017  18.111  1.00  0.00     0.245 HD
ENDBRANCH   4  18
TORSDOF 5
ENDMDL