MODEL 2
REMARK VINA RESULT: -6.806843214      1.848      3.474
REMARK  3 active torsions:
REMARK  status: ('A' for Active; 'I' for Inactive)
REMARK    1  A    between atoms: C3_3  and  C5_5
REMARK    2  A    between atoms: C8_9  and  C9_10
REMARK    3  A    between atoms: C10_11  and  C11_12
ROOT
HETATM    1  C1  UNL     1      24.281  13.604  23.078  1.00  0.00     0.102 C
HETATM    2  C2  UNL     1      23.406  12.851  22.673  1.00  0.00    -0.150 C
HETATM    3  C3  UNL     1      22.363  11.979  22.185  1.00  0.00     0.017 C
HETATM    4  C4  UNL     1      21.150  12.283  22.601  1.00  0.00     0.031 C
ENDROOT
BRANCH   3   5
HETATM    5  C5  UNL     1      22.633  10.839  21.299  1.00  0.00     0.161 C
HETATM    6  F1  UNL     1      23.344   9.859  21.980  1.00  0.00    -0.232 F
HETATM    7  C6  UNL     1      21.279  10.167  20.884  1.00  0.00     0.058 C
HETATM    8  C7  UNL     1      21.498  10.783  19.513  1.00  0.00     0.043 C
HETATM    9  C8  UNL     1      22.890  11.006  19.864  1.00  0.00    -0.021 C
BRANCH   9  10
HETATM   10  C9  UNL     1      23.780  11.936  19.207  1.00  0.00     0.026 A
HETATM   11  C10 UNL     1      23.364  13.108  18.563  1.00  0.00     0.045 A
HETATM   12  N1  UNL     1      24.486  13.584  17.960  1.00  0.00    -0.264 N
HETATM   13  O1  UNL     1      25.474  12.814  18.197  1.00  0.00    -0.242 OA
ATOM     14  H1  UNL     1      24.530  14.435  17.399  1.00  0.00     0.194 HD
HETATM   15  C13 UNL     1      25.117  11.787  18.950  1.00  0.00     0.085 A
HETATM   16  C14 UNL     1      26.118  10.738  19.354  1.00  0.00     0.079 C
BRANCH  11  17
HETATM   17  C11 UNL     1      22.084  13.804  18.535  1.00  0.00     0.055 C
HETATM   18  C12 UNL     1      21.865  14.691  19.764  1.00  0.00     0.011 C
ENDBRANCH  11  17
ENDBRANCH   9  10
ENDBRANCH   3   5
TORSDOF 3
ENDMDL