MODEL 4
REMARK VINA RESULT: -4.141142317      1.597      3.811
REMARK  3 active torsions:
REMARK  status: ('A' for Active; 'I' for Inactive)
REMARK    1  A    between atoms: C2_3  and  C3_4
REMARK    2  A    between atoms: C2_3  and  C4_7
REMARK    3  A    between atoms: C5_11  and  N4_12
ROOT
HETATM    1  N1  UNL     1      18.049  13.479  55.119  1.00  0.00    -0.196 NA
HETATM    2  C1  UNL     1      17.961  14.562  55.519  1.00  0.00     0.077 C
HETATM    3  C2  UNL     1      17.866  15.959  56.029  1.00  0.00     0.240 C
ENDROOT
BRANCH   3   4
HETATM    4  C3  UNL     1      16.798  16.052  57.014  1.00  0.00     0.252 C
HETATM    5  N2  UNL     1      15.731  16.962  56.825  1.00  0.00    -0.061 NA
HETATM    6  O1  UNL     1      16.775  15.351  58.044  1.00  0.00    -0.275 OA
ENDBRANCH   3   4
BRANCH   3   7
HETATM    7  C4  UNL     1      19.220  16.353  56.446  1.00  0.00     0.417 C
HETATM    8  N3  UNL     1      20.049  17.028  55.485  1.00  0.00     0.010 N
HETATM    9  C5  UNL     1      21.186  16.387  56.122  1.00  0.00     0.582 C
ATOM     10  H32 UNL     1      19.882  16.933  54.483  1.00  0.00     0.284 HD
ATOM     11  H31 UNL     1      20.009  18.041  55.369  1.00  0.00     0.284 HD
HETATM   12  N5  UNL     1      20.254  15.417  56.668  1.00  0.00     0.010 N
ATOM     13  H52 UNL     1      20.404  15.012  57.592  1.00  0.00     0.284 HD
ATOM     14  H51 UNL     1      20.197  14.474  56.284  1.00  0.00     0.284 HD
BRANCH   9  15
HETATM   15  N4  UNL     1      22.109  15.866  55.148  1.00  0.00    -0.025 N
ATOM     16  H43 UNL     1      21.711  15.077  54.639  1.00  0.00     0.278 HD
ATOM     17  H42 UNL     1      22.232  16.510  54.366  1.00  0.00     0.278 HD
ATOM     18  H41 UNL     1      23.003  15.623  55.574  1.00  0.00     0.278 HD
ENDBRANCH   9  15
ENDBRANCH   3   7
TORSDOF 3
ENDMDL