MODEL 4
REMARK VINA RESULT: -3.927270616      2.932      4.069
REMARK  4 active torsions:
REMARK  status: ('A' for Active; 'I' for Inactive)
REMARK    1  A    between atoms: C1_4  and  C2_5
REMARK    2  A    between atoms: C2_5  and  N2_6
REMARK    3  A    between atoms: C2_5  and  N3_10
REMARK       I    between atoms: N3_10  and  C3_12
REMARK    4  A    between atoms: C3_12  and  C4_14
ROOT
HETATM    1  C2  UNL     1      17.101  16.858  57.661  1.00  0.00     0.323 C
ENDROOT
BRANCH   1   2
HETATM    2  C1  UNL     1      16.463  18.193  57.608  1.00  0.00     0.107 C
HETATM    3  N1  UNL     1      16.076  18.833  58.645  1.00  0.00    -0.408 N
ATOM      4  H12 UNL     1      16.222  18.386  59.550  1.00  0.00     0.155 HD
ATOM      5  H11 UNL     1      15.636  19.753  58.609  1.00  0.00     0.155 HD
ENDBRANCH   1   2
BRANCH   1   6
HETATM    6  N2  UNL     1      16.492  15.994  58.669  1.00  0.00    -0.054 N
ATOM      7  H23 UNL     1      15.742  16.477  59.164  1.00  0.00     0.277 HD
ATOM      8  H22 UNL     1      15.946  15.249  58.235  1.00  0.00     0.277 HD
ATOM      9  H21 UNL     1      17.180  15.616  59.319  1.00  0.00     0.277 HD
ENDBRANCH   1   6
BRANCH   1  10
HETATM   10  N3  UNL     1      17.132  16.203  56.365  1.00  0.00    -0.322 N
HETATM   11  C3  UNL     1      18.072  15.207  56.042  1.00  0.00     0.308 C
HETATM   12  O1  UNL     1      18.920  14.858  56.881  1.00  0.00    -0.263 OA
ATOM     13  H3  UNL     1      16.445  16.475  55.661  1.00  0.00     0.165 HD
BRANCH  11  14
HETATM   14  C4  UNL     1      18.063  14.583  54.737  1.00  0.00     0.322 C
HETATM   15  N4  UNL     1      17.708  15.345  53.593  1.00  0.00    -0.053 NA
HETATM   16  O2  UNL     1      18.374  13.347  54.615  1.00  0.00    -0.266 OA
ENDBRANCH  11  14
ENDBRANCH   1  10
TORSDOF 4
ENDMDL