MODEL 4
REMARK VINA RESULT: -4.236140542      2.505      5.113
REMARK  3 active torsions:
REMARK  status: ('A' for Active; 'I' for Inactive)
REMARK       I    between atoms: C1_4  and  N3_6
REMARK    1  A    between atoms: N3_6  and  N4_8
REMARK    2  A    between atoms: C2_10  and  C3_11
REMARK       I    between atoms: C3_11  and  N5_13
REMARK    3  A    between atoms: N5_13  and  N6_15
ROOT
HETATM    1  N4  UNL     1      16.431  15.530  57.238  1.00  0.00    -0.304 N
ATOM      2  H4  UNL     1      15.777  15.470  58.019  1.00  0.00     0.186 HD
HETATM    3  C2  UNL     1      16.658  16.683  56.754  1.00  0.00     0.182 C
ENDROOT
BRANCH   1   4
HETATM    4  N3  UNL     1      16.997  14.352  56.794  1.00  0.00    -0.274 N
HETATM    5  C1  UNL     1      18.170  14.334  56.017  1.00  0.00     0.200 C
HETATM    6  N1  UNL     1      18.230  13.922  54.794  1.00  0.00    -0.372 N
HETATM    7  N2  UNL     1      19.380  14.806  56.626  1.00  0.00    -0.062 NA
ATOM      8  H12 UNL     1      19.081  13.908  54.231  1.00  0.00     0.158 HD
ATOM      9  H11 UNL     1      17.370  13.586  54.361  1.00  0.00     0.158 HD
ATOM     10  H3  UNL     1      16.550  13.468  57.036  1.00  0.00     0.189 HD
ENDBRANCH   1   4
BRANCH   3  11
HETATM   11  C3  UNL     1      16.006  17.856  57.301  1.00  0.00     0.276 C
HETATM   12  O1  UNL     1      15.107  18.422  56.669  1.00  0.00    -0.265 OA
HETATM   13  N5  UNL     1      16.364  18.404  58.571  1.00  0.00    -0.272 N
ATOM     14  H5  UNL     1      17.105  17.948  59.104  1.00  0.00     0.189 HD
BRANCH  13  15
HETATM   15  N6  UNL     1      15.759  19.514  59.110  1.00  0.00    -0.342 N
ATOM     16  H62 UNL     1      14.743  19.500  59.194  1.00  0.00     0.176 HD
ATOM     17  H61 UNL     1      16.276  20.336  59.423  1.00  0.00     0.176 HD
ENDBRANCH  13  15
ENDBRANCH   3  11
TORSDOF 3
ENDMDL