MODEL 1
REMARK VINA RESULT: -3.979294698      0.000      0.000
REMARK  1 active torsions:
REMARK  status: ('A' for Active; 'I' for Inactive)
REMARK       I    between atoms: C1_2  and  N2_4
REMARK       I    between atoms: N2_4  and  C2_5
REMARK    1  A    between atoms: N2_4  and  C3_14
REMARK       I    between atoms: C2_5  and  N3_6
REMARK       I    between atoms: C2_5  and  N4_10
ROOT
HETATM    1  N1  UNL     1      16.441  13.819  55.815  1.00  0.00    -0.040 NA
HETATM    2  C1  UNL     1      17.640  14.521  55.616  1.00  0.00     0.335 C
HETATM    3  O1  UNL     1      18.549  13.852  54.988  1.00  0.00    -0.251 OA
HETATM    4  N2  UNL     1      17.968  15.826  56.004  1.00  0.00    -0.255 N
HETATM    5  C2  UNL     1      19.291  16.360  55.677  1.00  0.00     0.487 C
HETATM    6  N3  UNL     1      20.342  15.585  56.290  1.00  0.00    -0.033 N
ATOM      7  H31 UNL     1      21.263  15.957  56.062  1.00  0.00     0.278 HD
ATOM      8  H32 UNL     1      20.268  14.598  56.047  1.00  0.00     0.278 HD
ATOM      9  H33 UNL     1      20.210  15.510  57.299  1.00  0.00     0.278 HD
HETATM   10  N4  UNL     1      19.407  16.348  54.246  1.00  0.00    -0.033 N
ATOM     11  H41 UNL     1      20.328  16.720  54.017  1.00  0.00     0.278 HD
ATOM     12  H42 UNL     1      18.647  16.843  53.778  1.00  0.00     0.278 HD
ATOM     13  H43 UNL     1      19.234  15.429  53.837  1.00  0.00     0.278 HD
ENDROOT
BRANCH   4  14
HETATM   14  C3  UNL     1      17.080  16.686  56.722  1.00  0.00     0.318 A
HETATM   15  C4  UNL     1      17.315  16.730  58.227  1.00  0.00     0.289 A
HETATM   16  N5  UNL     1      16.094  16.264  57.644  1.00  0.00    -0.049 N
ATOM     17  H52 UNL     1      15.120  16.536  57.780  1.00  0.00     0.279 HD
ATOM     18  H51 UNL     1      15.575  15.391  57.742  1.00  0.00     0.279 HD
ENDBRANCH   4  14
TORSDOF 1
ENDMDL