MODEL 4
REMARK VINA RESULT: -3.424784900      1.956      1.978
REMARK  4 active torsions:
REMARK  status: ('A' for Active; 'I' for Inactive)
REMARK    1  A    between atoms: N1_1  and  C1_5
REMARK    2  A    between atoms: C3_7  and  N2_8
REMARK    3  A    between atoms: C4_12  and  N3_13
REMARK    4  A    between atoms: N3_13  and  C5_15
ROOT
HETATM    1  C1  UNL     1      17.136  15.676  57.411  1.00  0.00     0.385 C
HETATM    2  C2  UNL     1      16.815  14.497  56.480  1.00  0.00     0.099 C
HETATM    3  C3  UNL     1      18.215  14.082  56.080  1.00  0.00     0.237 C
HETATM    4  C4  UNL     1      19.029  15.338  56.261  1.00  0.00     0.319 C
HETATM    5  N4  UNL     1      18.078  16.402  56.575  1.00  0.00    -0.023 N
ATOM      6  H41 UNL     1      18.477  17.244  56.990  1.00  0.00     0.282 HD
ATOM      7  H42 UNL     1      17.675  16.885  55.773  1.00  0.00     0.282 HD
ENDROOT
BRANCH   1   8
HETATM    8  N1  UNL     1      15.982  16.424  57.764  1.00  0.00    -0.050 N
ATOM      9  H13 UNL     1      15.354  15.874  58.350  1.00  0.00     0.276 HD
ATOM     10  H12 UNL     1      16.214  17.166  58.423  1.00  0.00     0.276 HD
ATOM     11  H11 UNL     1      15.491  16.796  56.951  1.00  0.00     0.276 HD
ENDBRANCH   1   8
BRANCH   3  12
HETATM   12  N2  UNL     1      18.289  13.531  54.764  1.00  0.00    -0.071 N
ATOM     13  H23 UNL     1      19.127  13.859  54.282  1.00  0.00     0.274 HD
ATOM     14  H22 UNL     1      18.495  12.533  54.801  1.00  0.00     0.274 HD
ATOM     15  H21 UNL     1      17.456  13.709  54.204  1.00  0.00     0.274 HD
ENDBRANCH   3  12
BRANCH   4  16
HETATM   16  N3  UNL     1      19.856  15.657  55.153  1.00  0.00    -0.339 N
ATOM     17  H3  UNL     1      19.566  15.399  54.211  1.00  0.00     0.164 HD
BRANCH  16  18
HETATM   18  C5  UNL     1      21.083  16.334  55.356  1.00  0.00     0.350 C
HETATM   19  O1  UNL     1      22.191  15.723  55.334  1.00  0.00    -0.284 OA
ENDBRANCH  16  18
ENDBRANCH   4  16
TORSDOF 4
ENDMDL