MODEL 2
REMARK VINA RESULT: -3.796146371      2.206      3.980
REMARK  3 active torsions:
REMARK  status: ('A' for Active; 'I' for Inactive)
REMARK    1  A    between atoms: C1_2  and  C2_4
REMARK    2  A    between atoms: C2_4  and  N2_5
REMARK    3  A    between atoms: C2_4  and  C3_9
ROOT
HETATM    1  C2  UNL     1      18.640  15.038  55.461  1.00  0.00     0.322 C
ENDROOT
BRANCH   1   2
HETATM    2  C1  UNL     1      18.425  15.131  54.010  1.00  0.00     0.267 C
HETATM    3  N1  UNL     1      19.445  14.667  53.136  1.00  0.00    -0.060 NA
HETATM    4  O1  UNL     1      17.389  15.599  53.456  1.00  0.00    -0.274 OA
ENDBRANCH   1   2
BRANCH   1   5
HETATM    5  N2  UNL     1      19.961  15.529  55.773  1.00  0.00    -0.061 N
ATOM      6  H23 UNL     1      20.394  16.008  54.984  1.00  0.00     0.275 HD
ATOM      7  H22 UNL     1      19.941  16.315  56.423  1.00  0.00     0.275 HD
ATOM      8  H21 UNL     1      20.530  14.756  56.118  1.00  0.00     0.275 HD
ENDBRANCH   1   5
BRANCH   1   9
HETATM    9  C3  UNL     1      17.606  15.805  56.233  1.00  0.00     0.065 A
HETATM   10  C4  UNL     1      16.826  15.310  57.245  1.00  0.00     0.116 A
HETATM   11  N3  UNL     1      16.046  16.335  57.651  1.00  0.00    -0.360 N
HETATM   12  C5  UNL     1      16.310  17.437  56.935  1.00  0.00     0.180 A
ATOM     13  H3  UNL     1      15.352  16.278  58.397  1.00  0.00     0.166 HD
HETATM   14  N4  UNL     1      17.272  17.103  56.064  1.00  0.00    -0.352 N
ATOM     15  H4  UNL     1      17.689  17.733  55.378  1.00  0.00     0.166 HD
ENDBRANCH   1   9
TORSDOF 3
ENDMDL