MODEL 5
REMARK VINA RESULT: -4.046866971      2.558      5.087
REMARK  3 active torsions:
REMARK  status: ('A' for Active; 'I' for Inactive)
REMARK    1  A    between atoms: C2_2  and  N1_3
REMARK    2  A    between atoms: C2_2  and  C3_7
REMARK       I    between atoms: C3_7  and  N2_9
REMARK    3  A    between atoms: N2_9  and  N3_11
ROOT
HETATM    1  C3  UNL     1      17.259  15.571  56.756  1.00  0.00     0.266 C
HETATM    2  O1  UNL     1      17.294  14.346  57.030  1.00  0.00    -0.269 OA
HETATM    3  N2  UNL     1      18.079  16.104  55.723  1.00  0.00    -0.266 N
ATOM      4  H2  UNL     1      18.033  17.102  55.520  1.00  0.00     0.190 HD
ENDROOT
BRANCH   1   5
HETATM    5  C2  UNL     1      16.340  16.420  57.544  1.00  0.00     0.272 C
HETATM    6  C1  UNL     1      16.140  17.750  56.811  1.00  0.00     0.050 C
BRANCH   5   7
HETATM    7  N1  UNL     1      16.891  16.734  58.829  1.00  0.00    -0.067 N
ATOM      8  H13 UNL     1      17.907  16.827  58.819  1.00  0.00     0.275 HD
ATOM      9  H12 UNL     1      16.679  17.682  59.136  1.00  0.00     0.275 HD
ATOM     10  H11 UNL     1      16.560  16.017  59.476  1.00  0.00     0.275 HD
ENDBRANCH   5   7
ENDBRANCH   1   5
BRANCH   3  11
HETATM   11  N3  UNL     1      18.947  15.302  54.978  1.00  0.00    -0.273 N
HETATM   12  C4  UNL     1      18.718  15.149  53.721  1.00  0.00     0.215 C
HETATM   13  N4  UNL     1      17.621  15.758  53.052  1.00  0.00    -0.065 NA
HETATM   14  N5  UNL     1      19.613  14.327  52.979  1.00  0.00    -0.065 NA
ATOM     15  H3  UNL     1      19.745  14.846  55.422  1.00  0.00     0.189 HD
ENDBRANCH   3  11
TORSDOF 3
ENDMDL