MODEL 3
REMARK VINA RESULT: -3.292264421      2.648      3.765
REMARK  5 active torsions:
REMARK  status: ('A' for Active; 'I' for Inactive)
REMARK    1  A    between atoms: C1_4  and  N2_5
REMARK    2  A    between atoms: C1_4  and  C3_9
REMARK    3  A    between atoms: N2_5  and  C2_7
REMARK    4  A    between atoms: C3_9  and  N3_10
REMARK    5  A    between atoms: C3_9  and  C4_14
ROOT
HETATM    1  C3  UNL     1      18.683  15.707  54.808  1.00  0.00     0.282 C
ENDROOT
BRANCH   1   2
HETATM    2  C1  UNL     1      17.971  14.582  55.424  1.00  0.00     0.110 C
HETATM    3  N1  UNL     1      18.203  13.394  54.900  1.00  0.00    -0.387 N
ATOM      4  H12 UNL     1      17.708  12.611  55.329  1.00  0.00     0.157 HD
ATOM      5  H11 UNL     1      18.875  13.389  54.132  1.00  0.00     0.157 HD
BRANCH   2   6
HETATM    6  N2  UNL     1      17.052  14.587  56.475  1.00  0.00    -0.323 N
ATOM      7  H2  UNL     1      16.586  13.708  56.701  1.00  0.00     0.169 HD
BRANCH   6   8
HETATM    8  C2  UNL     1      16.725  15.710  57.238  1.00  0.00     0.354 C
HETATM    9  O1  UNL     1      16.701  15.762  58.485  1.00  0.00    -0.283 OA
ENDBRANCH   6   8
ENDBRANCH   2   6
ENDBRANCH   1   2
BRANCH   1  10
HETATM   10  N3  UNL     1      20.098  15.558  55.266  1.00  0.00    -0.066 N
ATOM     11  H33 UNL     1      20.572  14.738  54.886  1.00  0.00     0.275 HD
ATOM     12  H32 UNL     1      20.736  16.252  54.876  1.00  0.00     0.275 HD
ATOM     13  H31 UNL     1      20.043  15.571  56.284  1.00  0.00     0.275 HD
ENDBRANCH   1  10
BRANCH   1  14
HETATM   14  C4  UNL     1      18.771  15.642  53.302  1.00  0.00     0.249 A
HETATM   15  C5  UNL     1      18.651  16.949  52.571  1.00  0.00     0.268 A
HETATM   16  N4  UNL     1      17.640  15.916  52.474  1.00  0.00    -0.065 N
ATOM     17  H42 UNL     1      17.213  15.426  51.689  1.00  0.00     0.277 HD
ATOM     18  H41 UNL     1      16.633  15.905  52.639  1.00  0.00     0.277 HD
ENDBRANCH   1  14
TORSDOF 5
ENDMDL