MODEL 5
REMARK VINA RESULT: -7.386327522      3.383      9.140
REMARK  8 active torsions:
REMARK  status: ('A' for Active; 'I' for Inactive)
REMARK    1  A    between atoms: C2_2  and  C3_3
REMARK    2  A    between atoms: C3_3  and  C4_4
REMARK    3  A    between atoms: C4_4  and  C5_5
REMARK    4  A    between atoms: C5_5  and  C6_6
REMARK    5  A    between atoms: C6_6  and  C7_7
REMARK    6  A    between atoms: C7_7  and  C8_8
REMARK    7  A    between atoms: C8_8  and  C9_9
REMARK    8  A    between atoms: C12_15  and  C13_16
ROOT
HETATM    1  C9  UNL     1      91.796  69.817  31.871  1.00  0.00     0.104 A
HETATM    2  N1  UNL     1      90.872  69.627  32.821  1.00  0.00    -0.308 N
ATOM      3  H1  UNL     1      90.973  69.017  33.632  1.00  0.00     0.170 HD
HETATM    4  C10 UNL     1      89.773  70.383  32.527  1.00  0.00     0.273 A
HETATM    5  O1  UNL     1      88.752  70.403  33.243  1.00  0.00    -0.266 OA
HETATM    6  C11 UNL     1      90.011  71.061  31.374  1.00  0.00     0.102 A
HETATM    7  C12 UNL     1      89.263  71.897  30.709  1.00  0.00     0.038 C
HETATM    8  N4  UNL     1      91.279  70.680  30.999  1.00  0.00    -0.338 N
ATOM      9  H4  UNL     1      91.759  71.015  30.164  1.00  0.00     0.167 HD
ENDROOT
BRANCH   7  10
HETATM   10  C13 UNL     1      87.941  72.269  31.134  1.00  0.00     0.038 C
HETATM   11  C14 UNL     1      87.525  73.531  30.898  1.00  0.00     0.105 A
HETATM   12  N2  UNL     1      88.235  74.573  30.270  1.00  0.00    -0.304 N
HETATM   13  C16 UNL     1      86.214  74.084  31.262  1.00  0.00     0.276 A
HETATM   14  C15 UNL     1      87.418  75.762  30.223  1.00  0.00     0.327 A
ATOM     15  H2  UNL     1      89.183  74.499  29.903  1.00  0.00     0.171 HD
HETATM   16  O2  UNL     1      87.822  76.830  29.712  1.00  0.00    -0.247 OA
HETATM   17  N3  UNL     1      86.184  75.430  30.840  1.00  0.00    -0.274 N
ATOM     18  H3  UNL     1      85.396  76.066  30.960  1.00  0.00     0.173 HD
HETATM   19  O3  UNL     1      85.308  73.439  31.843  1.00  0.00    -0.266 OA
ENDBRANCH   7  10
BRANCH   1  20
HETATM   20  C8  UNL     1      92.994  69.232  31.851  1.00  0.00     0.022 C
BRANCH  20  21
HETATM   21  C7  UNL     1      93.380  68.295  32.885  1.00  0.00     0.031 C
BRANCH  21  22
HETATM   22  C6  UNL     1      94.727  68.476  33.501  1.00  0.00     0.004 C
BRANCH  22  23
HETATM   23  C5  UNL     1      95.780  68.961  32.596  1.00  0.00     0.000 C
BRANCH  23  24
HETATM   24  C4  UNL     1      96.369  70.299  32.787  1.00  0.00     0.000 C
BRANCH  24  25
HETATM   25  C3  UNL     1      96.024  70.951  34.114  1.00  0.00    -0.000 C
BRANCH  25  26
HETATM   26  C2  UNL     1      95.650  72.406  33.911  1.00  0.00    -0.005 C
HETATM   27  C1  UNL     1      94.663  72.432  32.741  1.00  0.00     0.005 C
ENDBRANCH  25  26
ENDBRANCH  24  25
ENDBRANCH  23  24
ENDBRANCH  22  23
ENDBRANCH  21  22
ENDBRANCH  20  21
ENDBRANCH   1  20
TORSDOF 8
ENDMDL