MODEL 1
REMARK VINA RESULT: -7.859545851      0.000      0.000
REMARK  9 active torsions:
REMARK  status: ('A' for Active; 'I' for Inactive)
REMARK    1  A    between atoms: C2_2  and  C3_3
REMARK    2  A    between atoms: C3_3  and  C4_4
REMARK    3  A    between atoms: C7_7  and  C8_8
REMARK    4  A    between atoms: C8_8  and  N3_13
REMARK    5  A    between atoms: N3_13  and  C10_15
REMARK    6  A    between atoms: C10_15  and  C11_16
REMARK    7  A    between atoms: C11_16  and  C12_17
REMARK    8  A    between atoms: C12_17  and  C13_18
REMARK    9  A    between atoms: C13_18  and  N4_19
ROOT
HETATM    1  C8  UNL     1      89.754  74.318  30.908  1.00  0.00     0.109 C
HETATM    2  N1  UNL     1      90.190  75.474  31.111  1.00  0.00    -0.281 N
ATOM      3  H1  UNL     1      91.089  75.497  31.593  1.00  0.00     0.179 HD
HETATM    4  C9  UNL     1      89.704  76.682  30.817  1.00  0.00     0.183 C
HETATM    5  N2  UNL     1      89.301  77.759  30.577  1.00  0.00    -0.172 NA
ENDROOT
BRANCH   1   6
HETATM    6  C7  UNL     1      88.498  73.912  30.242  1.00  0.00     0.152 C
HETATM    7  C6  UNL     1      87.773  72.857  30.975  1.00  0.00     0.034 C
HETATM    8  C5  UNL     1      86.257  72.885  30.602  1.00  0.00     0.017 C
HETATM    9  C4  UNL     1      85.779  74.188  31.212  1.00  0.00     0.081 C
HETATM   10  C15 UNL     1      86.367  75.272  30.391  1.00  0.00     0.222 C
HETATM   11  N7  UNL     1      87.658  75.025  29.845  1.00  0.00    -0.349 N
HETATM   12  O1  UNL     1      85.742  76.348  30.199  1.00  0.00    -0.273 OA
ATOM     13  H7  UNL     1      88.012  75.666  29.136  1.00  0.00     0.163 HD
BRANCH   9  14
HETATM   14  C3  UNL     1      84.300  74.276  31.377  1.00  0.00     0.040 C
BRANCH  14  15
HETATM   15  C2  UNL     1      83.663  73.006  31.763  1.00  0.00    -0.036 C
HETATM   16  C1  UNL     1      82.480  72.981  32.342  1.00  0.00     0.007 C
ENDBRANCH  14  15
ENDBRANCH   9  14
ENDBRANCH   1   6
BRANCH   1  17
HETATM   17  N3  UNL     1      90.602  73.237  31.444  1.00  0.00    -0.378 N
ATOM     18  H3  UNL     1      90.613  73.053  32.447  1.00  0.00     0.160 HD
BRANCH  17  19
HETATM   19  C10 UNL     1      91.412  72.444  30.565  1.00  0.00     0.121 C
BRANCH  19  20
HETATM   20  C11 UNL     1      92.852  72.826  30.504  1.00  0.00     0.021 C
BRANCH  20  21
HETATM   21  C12 UNL     1      93.748  71.657  30.152  1.00  0.00     0.021 C
BRANCH  21  22
HETATM   22  C13 UNL     1      94.658  71.295  31.313  1.00  0.00     0.122 C
BRANCH  22  23
HETATM   23  N4  UNL     1      94.397  72.148  32.458  1.00  0.00    -0.367 N
HETATM   24  C14 UNL     1      95.267  72.305  33.399  1.00  0.00     0.196 C
HETATM   25  N5  UNL     1      96.520  71.641  33.342  1.00  0.00    -0.067 NA
HETATM   26  N6  UNL     1      95.027  73.135  34.528  1.00  0.00    -0.067 NA
ATOM     27  H4  UNL     1      93.503  72.636  32.521  1.00  0.00     0.161 HD
ENDBRANCH  22  23
ENDBRANCH  21  22
ENDBRANCH  20  21
ENDBRANCH  19  20
ENDBRANCH  17  19
ENDBRANCH   1  17
TORSDOF 9
ENDMDL