MODEL 2
REMARK VINA RESULT: -5.885609982      1.215      1.307
REMARK  14 active torsions:
REMARK  status: ('A' for Active; 'I' for Inactive)
REMARK    1  A    between atoms: C2_2  and  C3_3
REMARK    2  A    between atoms: C3_3  and  C4_4
REMARK    3  A    between atoms: C5_5  and  C6_6
REMARK    4  A    between atoms: C6_6  and  C7_7
REMARK    5  A    between atoms: C7_7  and  C8_8
REMARK    6  A    between atoms: C8_8  and  C9_9
REMARK    7  A    between atoms: C11_13  and  N2_14
REMARK    8  A    between atoms: N2_14  and  C12_16
REMARK    9  A    between atoms: C12_16  and  C13_17
REMARK   10  A    between atoms: C13_17  and  N3_18
REMARK   11  A    between atoms: C14_24  and  N5_25
REMARK   12  A    between atoms: N5_25  and  C15_27
REMARK   13  A    between atoms: C15_27  and  C16_28
REMARK   14  A    between atoms: C16_28  and  O1_29
ROOT
HETATM    1  C4  UNL     1      89.681  72.622  29.776  1.00  0.00     0.031 A
HETATM    2  C5  UNL     1      90.447  72.010  28.834  1.00  0.00     0.059 A
HETATM    3  N1  UNL     1      89.908  71.074  28.015  1.00  0.00    -0.191 N
ATOM      4  H1  UNL     1      90.511  70.637  27.318  1.00  0.00     0.184 HD
HETATM    5  C11 UNL     1      88.628  70.693  28.072  1.00  0.00     0.680 A
HETATM    6  N4  UNL     1      87.839  71.260  28.975  1.00  0.00    -0.176 N
ATOM      7  H4  UNL     1      86.858  70.984  29.035  1.00  0.00     0.186 HD
HETATM    8  C14 UNL     1      88.316  72.185  29.803  1.00  0.00     0.129 A
ENDROOT
BRANCH   5   9
HETATM    9  N2  UNL     1      88.169  69.786  27.254  1.00  0.00    -0.224 N
ATOM     10  H2  UNL     1      87.185  69.519  27.288  1.00  0.00     0.177 HD
BRANCH   9  11
HETATM   11  C12 UNL     1      89.045  69.167  26.311  1.00  0.00     0.165 C
BRANCH  11  12
HETATM   12  C13 UNL     1      88.480  69.152  24.909  1.00  0.00     0.249 C
BRANCH  12  13
HETATM   13  N3  UNL     1      89.045  70.259  24.188  1.00  0.00    -0.078 N
ATOM     14  H33 UNL     1      89.662  70.831  24.765  1.00  0.00     0.274 HD
ATOM     15  H32 UNL     1      89.735  69.968  23.496  1.00  0.00     0.274 HD
ATOM     16  H31 UNL     1      88.279  70.794  23.778  1.00  0.00     0.274 HD
ENDBRANCH  12  13
ENDBRANCH  11  12
ENDBRANCH   9  11
ENDBRANCH   5   9
BRANCH   2  17
HETATM   17  C6  UNL     1      91.725  72.247  28.689  1.00  0.00     0.004 C
BRANCH  17  18
HETATM   18  C7  UNL     1      92.691  71.346  29.456  1.00  0.00     0.029 C
BRANCH  18  19
HETATM   19  C8  UNL     1      93.776  72.239  30.046  1.00  0.00     0.003 C
BRANCH  19  20
HETATM   20  C9  UNL     1      94.452  71.446  31.129  1.00  0.00    -0.004 C
HETATM   21  C10 UNL     1      94.438  72.293  32.396  1.00  0.00     0.005 C
ENDBRANCH  19  20
ENDBRANCH  18  19
ENDBRANCH  17  18
ENDBRANCH   2  17
BRANCH   8  22
HETATM   22  N5  UNL     1      87.572  72.754  30.694  1.00  0.00    -0.373 N
ATOM     23  H5  UNL     1      87.832  72.686  31.677  1.00  0.00     0.161 HD
BRANCH  22  24
HETATM   24  C15 UNL     1      86.394  73.475  30.331  1.00  0.00     0.147 C
BRANCH  24  25
HETATM   25  C16 UNL     1      86.692  74.930  30.129  1.00  0.00     0.183 C
BRANCH  25  26
HETATM   26  O1  UNL     1      87.165  75.168  28.843  1.00  0.00    -0.399 OA
ATOM     27  H1  UNL     1      86.627  75.810  28.396  1.00  0.00     0.209 HD
ENDBRANCH  25  26
ENDBRANCH  24  25
ENDBRANCH  22  24
ENDBRANCH   8  22
BRANCH   1  28
HETATM   28  C3  UNL     1      90.031  73.540  30.580  1.00  0.00    -0.010 C
BRANCH  28  29
HETATM   29  C2  UNL     1      90.721  73.602  31.842  1.00  0.00     0.023 C
HETATM   30  C1  UNL     1      90.668  72.228  32.575  1.00  0.00     0.009 C
ENDBRANCH  28  29
ENDBRANCH   1  28
TORSDOF 14
ENDMDL