MODEL 2
REMARK VINA RESULT: -6.874965496      1.069      1.648
REMARK  9 active torsions:
REMARK  status: ('A' for Active; 'I' for Inactive)
REMARK    1  A    between atoms: C2_2  and  C3_3
REMARK    2  A    between atoms: C3_3  and  C4_4
REMARK    3  A    between atoms: C5_5  and  C6_6
REMARK    4  A    between atoms: C6_6  and  C7_7
REMARK    5  A    between atoms: C9_9  and  O1_10
REMARK    6  A    between atoms: O1_10  and  C10_11
REMARK    7  A    between atoms: C10_11  and  C11_12
REMARK    8  A    between atoms: C13_17  and  C14_18
REMARK    9  A    between atoms: C15_19  and  N2_20
ROOT
HETATM    1  O1  UNL     1      86.710  72.572  30.976  1.00  0.00    -0.379 OA
ENDROOT
BRANCH   1   2
HETATM    2  C9  UNL     1      87.578  72.998  29.961  1.00  0.00     0.167 C
HETATM    3  C8  UNL     1      88.773  72.126  29.783  1.00  0.00     0.049 C
HETATM    4  C7  UNL     1      89.563  73.136  30.556  1.00  0.00     0.040 C
HETATM    5  C16 UNL     1      88.475  74.113  30.369  1.00  0.00     0.013 C
HETATM    6  N4  UNL     1      88.391  75.382  30.513  1.00  0.00    -0.403 N
ATOM      7  H42 UNL     1      89.006  76.146  30.792  1.00  0.00     0.155 HD
ATOM      8  H41 UNL     1      87.638  76.059  30.383  1.00  0.00     0.155 HD
BRANCH   4   9
HETATM    9  C6  UNL     1      89.748  72.683  31.997  1.00  0.00     0.037 C
BRANCH   9  10
HETATM   10  C5  UNL     1      91.173  72.378  32.279  1.00  0.00    -0.030 C
HETATM   11  C4  UNL     1      91.673  71.196  32.092  1.00  0.00    -0.027 C
BRANCH  11  12
HETATM   12  C3  UNL     1      91.029  69.969  31.601  1.00  0.00     0.053 C
BRANCH  12  13
HETATM   13  C2  UNL     1      90.572  69.141  32.747  1.00  0.00    -0.033 C
HETATM   14  C1  UNL     1      89.307  69.150  33.099  1.00  0.00     0.007 C
ENDBRANCH  12  13
ENDBRANCH  11  12
ENDBRANCH   9  10
ENDBRANCH   4   9
ENDBRANCH   1   2
BRANCH   1  15
HETATM   15  C10 UNL     1      85.406  72.820  30.629  1.00  0.00     0.185 C
BRANCH  15  16
HETATM   16  C11 UNL     1      84.830  74.008  31.318  1.00  0.00     0.128 C
HETATM   17  C12 UNL     1      84.766  75.270  30.578  1.00  0.00     0.226 C
HETATM   18  O2  UNL     1      85.386  75.964  29.740  1.00  0.00    -0.273 OA
HETATM   19  N1  UNL     1      83.512  75.520  31.252  1.00  0.00    -0.352 N
HETATM   20  C13 UNL     1      83.302  74.072  31.183  1.00  0.00     0.124 C
ATOM     21  H1  UNL     1      83.006  76.330  31.610  1.00  0.00     0.163 HD
BRANCH  20  22
HETATM   22  C14 UNL     1      82.610  73.493  32.334  1.00  0.00     0.018 C
HETATM   23  C15 UNL     1      81.808  72.467  32.154  1.00  0.00     0.104 C
BRANCH  23  24
HETATM   24  N2  UNL     1      81.124  71.880  33.227  1.00  0.00    -0.319 N
HETATM   25  N3  UNL     1      79.845  71.856  33.186  1.00  0.00    -0.345 N
ATOM     26  H32 UNL     1      79.352  72.256  32.387  1.00  0.00     0.176 HD
ATOM     27  H31 UNL     1      79.347  71.429  33.967  1.00  0.00     0.176 HD
ATOM     28  H2  UNL     1      81.631  71.484  34.019  1.00  0.00     0.185 HD
ENDBRANCH  23  24
ENDBRANCH  20  22
ENDBRANCH  15  16
ENDBRANCH   1  15
TORSDOF 9
ENDMDL