MODEL 5
REMARK VINA RESULT: -6.086486301      2.960      6.001
REMARK  10 active torsions:
REMARK  status: ('A' for Active; 'I' for Inactive)
REMARK    1  A    between atoms: N3_4  and  C2_6
REMARK    2  A    between atoms: C2_6  and  C3_7
REMARK    3  A    between atoms: C3_7  and  C4_8
REMARK    4  A    between atoms: C4_8  and  C5_9
REMARK    5  A    between atoms: C5_9  and  C6_10
REMARK    6  A    between atoms: C6_10  and  N4_11
REMARK    7  A    between atoms: N4_11  and  C7_12
REMARK    8  A    between atoms: C7_12  and  C8_13
REMARK    9  A    between atoms: C15_21  and  C16_22
REMARK   10  A    between atoms: C16_22  and  O1_23
ROOT
HETATM    1  N4  UNL     1      88.020  73.141  30.667  1.00  0.00     0.018 N
HETATM    2  N5  UNL     1      86.718  72.658  30.854  1.00  0.00    -0.044 NA
HETATM    3  C14 UNL     1      86.228  73.922  31.352  1.00  0.00     0.180 C
HETATM    4  C15 UNL     1      87.453  74.466  30.676  1.00  0.00     0.251 C
ENDROOT
BRANCH   1   5
HETATM    5  C6  UNL     1      88.890  72.822  31.749  1.00  0.00     0.261 C
BRANCH   5   6
HETATM    6  C5  UNL     1      90.283  73.293  31.747  1.00  0.00     0.030 C
BRANCH   6   7
HETATM    7  C4  UNL     1      91.201  72.562  32.681  1.00  0.00     0.003 C
BRANCH   7   8
HETATM    8  C3  UNL     1      92.267  71.753  31.986  1.00  0.00     0.020 C
BRANCH   8   9
HETATM    9  C2  UNL     1      93.448  72.594  31.583  1.00  0.00     0.122 C
BRANCH   9  10
HETATM   10  N3  UNL     1      94.660  71.885  31.909  1.00  0.00    -0.367 N
HETATM   11  C1  UNL     1      95.319  72.026  33.018  1.00  0.00     0.196 C
HETATM   12  N1  UNL     1      94.802  72.945  33.968  1.00  0.00    -0.067 NA
HETATM   13  N2  UNL     1      96.501  71.277  33.232  1.00  0.00    -0.067 NA
ATOM     14  H3  UNL     1      95.024  71.225  31.221  1.00  0.00     0.161 HD
ENDBRANCH   9  10
ENDBRANCH   8   9
ENDBRANCH   7   8
ENDBRANCH   6   7
ENDBRANCH   5   6
ENDBRANCH   1   5
BRANCH   1  15
HETATM   15  C7  UNL     1      88.493  72.706  29.391  1.00  0.00     0.265 C
BRANCH  15  16
HETATM   16  C8  UNL     1      88.935  71.285  29.282  1.00  0.00     0.013 C
HETATM   17  C9  UNL     1      90.299  71.222  28.564  1.00  0.00     0.006 C
HETATM   18  C10 UNL     1      90.964  69.947  29.072  1.00  0.00     0.000 C
HETATM   19  C11 UNL     1      89.908  68.868  29.264  1.00  0.00     0.000 C
HETATM   20  C12 UNL     1      88.777  69.061  28.273  1.00  0.00     0.000 C
HETATM   21  C13 UNL     1      88.053  70.386  28.461  1.00  0.00     0.006 C
ENDBRANCH  15  16
ENDBRANCH   1  15
BRANCH   4  22
HETATM   22  C16 UNL     1      87.281  75.251  29.460  1.00  0.00     0.200 C
BRANCH  22  23
HETATM   23  O1  UNL     1      87.632  76.555  29.416  1.00  0.00    -0.399 OA
ATOM     24  H1  UNL     1      88.244  76.876  28.764  1.00  0.00     0.209 HD
ENDBRANCH  22  23
ENDBRANCH   4  22
TORSDOF 10
ENDMDL