MODEL 2
REMARK VINA RESULT: -6.869401930      0.870      1.016
REMARK  8 active torsions:
REMARK  status: ('A' for Active; 'I' for Inactive)
REMARK    1  A    between atoms: N3_4  and  C2_6
REMARK    2  A    between atoms: C2_6  and  C3_7
REMARK    3  A    between atoms: C3_7  and  C4_8
REMARK    4  A    between atoms: C4_8  and  C5_9
REMARK    5  A    between atoms: C5_9  and  C6_10
REMARK    6  A    between atoms: C6_10  and  C7_11
REMARK    7  A    between atoms: C7_11  and  C8_12
REMARK       I    between atoms: C8_12  and  N4_14
REMARK    8  A    between atoms: N4_14  and  C9_16
ROOT
HETATM    1  C8  UNL     1      86.689  75.425  30.075  1.00  0.00     0.219 C
HETATM    2  O1  UNL     1      87.371  76.402  29.672  1.00  0.00    -0.274 OA
HETATM    3  N4  UNL     1      87.241  74.134  30.278  1.00  0.00    -0.340 N
ATOM      4  H4  UNL     1      86.651  73.369  30.606  1.00  0.00     0.164 HD
ENDROOT
BRANCH   1   5
HETATM    5  C7  UNL     1      85.236  75.709  30.331  1.00  0.00     0.103 C
BRANCH   5   6
HETATM    6  C6  UNL     1      84.380  74.515  30.108  1.00  0.00     0.009 C
BRANCH   6   7
HETATM    7  C5  UNL     1      83.344  74.423  31.197  1.00  0.00     0.001 C
BRANCH   7   8
HETATM    8  C4  UNL     1      82.933  73.015  31.501  1.00  0.00     0.002 C
BRANCH   8   9
HETATM    9  C3  UNL     1      84.021  72.024  31.090  1.00  0.00     0.020 C
BRANCH   9  10
HETATM   10  C2  UNL     1      83.469  70.939  30.205  1.00  0.00     0.122 C
BRANCH  10  11
HETATM   11  N3  UNL     1      84.203  70.954  28.961  1.00  0.00    -0.367 N
HETATM   12  C1  UNL     1      85.164  70.157  28.725  1.00  0.00     0.196 C
HETATM   13  N1  UNL     1      85.593  69.190  29.665  1.00  0.00    -0.067 NA
HETATM   14  N2  UNL     1      85.856  70.211  27.483  1.00  0.00    -0.067 NA
ATOM     15  H3  UNL     1      83.939  71.630  28.244  1.00  0.00     0.161 HD
ENDBRANCH  10  11
ENDBRANCH   9  10
ENDBRANCH   8   9
ENDBRANCH   7   8
ENDBRANCH   6   7
ENDBRANCH   5   6
ENDBRANCH   1   5
BRANCH   3  16
HETATM   16  C9  UNL     1      88.619  73.914  30.021  1.00  0.00     0.183 C
HETATM   17  N5  UNL     1      89.512  74.788  30.729  1.00  0.00    -0.396 N
HETATM   18  C10 UNL     1      90.778  74.256  31.056  1.00  0.00     0.086 C
ATOM     19  H5  UNL     1      89.246  75.740  30.982  1.00  0.00     0.155 HD
HETATM   20  C11 UNL     1      91.343  73.237  30.140  1.00  0.00     0.009 C
HETATM   21  C15 UNL     1      90.697  73.156  32.124  1.00  0.00     0.009 C
HETATM   22  C12 UNL     1      90.324  72.277  29.577  1.00  0.00     0.015 C
HETATM   23  C16 UNL     1      91.889  72.524  31.391  1.00  0.00     0.013 C
HETATM   24  C13 UNL     1      89.048  72.486  30.393  1.00  0.00     0.029 C
HETATM   25  C14 UNL     1      89.431  72.396  31.849  1.00  0.00     0.015 C
ENDBRANCH   3  16
TORSDOF 8
ENDMDL