MODEL 5
REMARK VINA RESULT: -6.736428212      0.837      1.443
REMARK  8 active torsions:
REMARK  status: ('A' for Active; 'I' for Inactive)
REMARK    1  A    between atoms: C2_2  and  N1_3
REMARK    2  A    between atoms: C5_6  and  O1_7
REMARK    3  A    between atoms: O1_7  and  C6_8
REMARK    4  A    between atoms: C6_8  and  C7_9
REMARK    5  A    between atoms: C7_9  and  N2_10
REMARK       I    between atoms: N2_10  and  C8_12
REMARK       I    between atoms: C8_12  and  N4_16
REMARK    6  A    between atoms: N4_16  and  C9_18
REMARK    7  A    between atoms: C9_18  and  C10_19
REMARK    8  A    between atoms: C10_19  and  N5_20
ROOT
HETATM    1  N2  UNL     1      89.196  73.378  29.418  1.00  0.00    -0.225 N
ATOM      2  H2  UNL     1      88.807  73.782  28.566  1.00  0.00     0.177 HD
HETATM    3  C8  UNL     1      88.751  73.831  30.683  1.00  0.00     0.667 C
HETATM    4  N3  UNL     1      89.185  73.418  31.825  1.00  0.00    -0.235 N
ATOM      5  H31 UNL     1      88.864  73.744  32.736  1.00  0.00     0.174 HD
ATOM      6  H32 UNL     1      89.936  72.730  31.768  1.00  0.00     0.174 HD
HETATM    7  N4  UNL     1      87.696  74.798  30.761  1.00  0.00    -0.225 N
ATOM      8  H4  UNL     1      87.587  75.360  31.607  1.00  0.00     0.177 HD
ENDROOT
BRANCH   1   9
HETATM    9  C7  UNL     1      90.190  72.354  29.333  1.00  0.00     0.164 C
BRANCH   9  10
HETATM   10  C6  UNL     1      91.558  72.898  29.247  1.00  0.00     0.188 C
BRANCH  10  11
HETATM   11  O1  UNL     1      92.051  73.234  30.536  1.00  0.00    -0.384 OA
BRANCH  11  12
HETATM   12  C5  UNL     1      92.994  72.236  30.839  1.00  0.00     0.131 C
HETATM   13  C4  UNL     1      93.882  72.096  29.576  1.00  0.00     0.077 C
HETATM   14  C3  UNL     1      94.915  71.050  29.789  1.00  0.00     0.065 C
HETATM   15  N1  UNL     1      95.101  70.562  31.095  1.00  0.00    -0.374 N
HETATM   16  C16 UNL     1      94.811  71.346  32.209  1.00  0.00     0.065 C
HETATM   17  C15 UNL     1      93.881  72.502  31.981  1.00  0.00     0.077 C
BRANCH  15  18
HETATM   18  C2  UNL     1      95.203  69.163  31.262  1.00  0.00     0.122 C
HETATM   19  C1  UNL     1      94.355  68.572  32.352  1.00  0.00     0.027 C
ENDBRANCH  15  18
ENDBRANCH  11  12
ENDBRANCH  10  11
ENDBRANCH   9  10
ENDBRANCH   1   9
BRANCH   7  20
HETATM   20  C9  UNL     1      86.803  74.983  29.677  1.00  0.00     0.157 C
BRANCH  20  21
HETATM   21  C10 UNL     1      85.451  75.488  30.000  1.00  0.00     0.142 C
BRANCH  21  22
HETATM   22  N5  UNL     1      84.568  74.479  30.478  1.00  0.00    -0.392 N
HETATM   23  C11 UNL     1      83.550  74.770  31.206  1.00  0.00     0.058 C
HETATM   24  C12 UNL     1      82.773  73.569  31.587  1.00  0.00     0.046 C
HETATM   25  C13 UNL     1      83.697  72.432  31.253  1.00  0.00     0.025 C
HETATM   26  C14 UNL     1      84.643  73.092  30.244  1.00  0.00     0.122 C
ENDBRANCH  21  22
ENDBRANCH  20  21
ENDBRANCH   7  20
TORSDOF 8
ENDMDL