MODEL 2
REMARK VINA RESULT: -6.311949013      1.625      2.338
REMARK  9 active torsions:
REMARK  status: ('A' for Active; 'I' for Inactive)
REMARK    1  A    between atoms: N1_3  and  C3_4
REMARK    2  A    between atoms: N1_3  and  C7_12
REMARK    3  A    between atoms: C3_4  and  C4_5
REMARK    4  A    between atoms: C4_5  and  C5_6
REMARK    5  A    between atoms: C5_6  and  C6_7
REMARK    6  A    between atoms: C6_7  and  N2_8
REMARK    7  A    between atoms: C7_12  and  C8_13
REMARK    8  A    between atoms: C13_19  and  C14_20
REMARK    9  A    between atoms: C16_22  and  C17_23
ROOT
HETATM    1  C1  UNL     1      87.622  70.380  30.956  1.00  0.00     0.116 C
HETATM    2  C2  UNL     1      87.443  71.422  30.333  1.00  0.00    -0.102 C
HETATM    3  N1  UNL     1      87.222  72.652  29.638  1.00  0.00    -0.254 NA
ENDROOT
BRANCH   3   4
HETATM    4  C3  UNL     1      86.609  73.589  30.595  1.00  0.00     0.104 C
BRANCH   4   5
HETATM    5  C4  UNL     1      86.567  74.997  30.132  1.00  0.00     0.017 C
BRANCH   5   6
HETATM    6  C5  UNL     1      85.157  75.427  29.741  1.00  0.00     0.028 C
BRANCH   6   7
HETATM    7  C6  UNL     1      84.095  74.744  30.580  1.00  0.00     0.229 C
BRANCH   7   8
HETATM    8  N2  UNL     1      83.259  75.718  31.244  1.00  0.00    -0.079 N
ATOM      9  H23 UNL     1      83.349  75.662  32.259  1.00  0.00     0.274 HD
ATOM     10  H22 UNL     1      83.607  76.667  31.110  1.00  0.00     0.274 HD
ATOM     11  H21 UNL     1      82.287  75.627  30.946  1.00  0.00     0.274 HD
ENDBRANCH   7   8
ENDBRANCH   6   7
ENDBRANCH   5   6
ENDBRANCH   4   5
ENDBRANCH   3   4
BRANCH   3  12
HETATM   12  C7  UNL     1      88.512  73.203  29.341  1.00  0.00     0.109 C
BRANCH  12  13
HETATM   13  C8  UNL     1      89.698  72.411  29.666  1.00  0.00     0.014 C
HETATM   14  C9  UNL     1      90.384  71.627  28.615  1.00  0.00     0.014 C
HETATM   15  C10 UNL     1      91.627  71.171  29.381  1.00  0.00     0.023 C
HETATM   16  C11 UNL     1      91.348  69.864  30.041  1.00  0.00     0.034 C
HETATM   17  C13 UNL     1      91.828  72.146  30.524  1.00  0.00     0.074 C
HETATM   18  C12 UNL     1      91.483  70.166  31.513  1.00  0.00     0.169 C
HETATM   19  O1  UNL     1      91.401  71.539  31.666  1.00  0.00    -0.379 OA
HETATM   20  C16 UNL     1      90.867  73.283  30.196  1.00  0.00     0.090 C
BRANCH  17  21
HETATM   21  C14 UNL     1      93.259  72.561  30.636  1.00  0.00     0.035 C
HETATM   22  C15 UNL     1      94.188  71.968  29.625  1.00  0.00     0.008 C
ENDBRANCH  17  21
BRANCH  20  23
HETATM   23  C17 UNL     1      90.416  74.024  31.387  1.00  0.00     0.094 C
HETATM   24  N3  UNL     1      89.699  73.414  32.277  1.00  0.00    -0.391 N
ATOM     25  H32 UNL     1      89.438  72.435  32.164  1.00  0.00     0.157 HD
ATOM     26  H31 UNL     1      89.387  73.928  33.101  1.00  0.00     0.157 HD
HETATM   27  N4  UNL     1      90.779  75.386  31.544  1.00  0.00    -0.088 NA
ENDBRANCH  20  23
ENDBRANCH  12  13
ENDBRANCH   3  12
TORSDOF 9
ENDMDL