MODEL 1
REMARK VINA RESULT: -6.521033878      0.000      0.000
REMARK  9 active torsions:
REMARK  status: ('A' for Active; 'I' for Inactive)
REMARK    1  A    between atoms: C2_2  and  C3_3
REMARK    2  A    between atoms: C3_3  and  C4_4
REMARK    3  A    between atoms: C4_4  and  C5_5
REMARK    4  A    between atoms: C5_5  and  C6_6
REMARK    5  A    between atoms: C6_6  and  C7_7
REMARK    6  A    between atoms: C7_7  and  C8_8
REMARK    7  A    between atoms: C8_8  and  C9_9
REMARK    8  A    between atoms: C9_9  and  N1_10
REMARK    9  A    between atoms: N1_10  and  C10_12
REMARK       I    between atoms: N3_16  and  C12_18
ROOT
HETATM    1  C10 UNL     1      88.278  70.334  28.562  1.00  0.00     0.698 A
HETATM    2  N2  UNL     1      88.199  71.583  29.045  1.00  0.00    -0.022 N
ATOM      3  H2  UNL     1      87.315  71.900  29.443  1.00  0.00     0.203 HD
HETATM    4  C11 UNL     1      89.245  72.435  29.026  1.00  0.00     0.703 A
HETATM    5  N3  UNL     1      89.200  73.641  29.486  1.00  0.00    -0.163 N
ATOM      6  H3  UNL     1      90.012  74.257  29.454  1.00  0.00     0.187 HD
HETATM    7  C12 UNL     1      87.949  74.074  30.043  1.00  0.00     0.200 C
HETATM    8  N4  UNL     1      87.728  73.740  31.281  1.00  0.00    -0.373 N
ATOM      9  H41 UNL     1      86.840  74.047  31.677  1.00  0.00     0.158 HD
ATOM     10  H42 UNL     1      88.400  73.203  31.829  1.00  0.00     0.158 HD
HETATM   11  N5  UNL     1      87.019  74.817  29.285  1.00  0.00    -0.063 NA
HETATM   12  N6  UNL     1      90.395  71.940  28.480  1.00  0.00    -0.140 N
ATOM     13  H6  UNL     1      91.218  72.542  28.441  1.00  0.00     0.189 HD
HETATM   14  C13 UNL     1      90.486  70.691  27.992  1.00  0.00     0.354 A
HETATM   15  O1  UNL     1      91.556  70.257  27.493  1.00  0.00    -0.245 OA
HETATM   16  N7  UNL     1      89.418  69.870  28.029  1.00  0.00    -0.136 N
HETATM   17  C14 UNL     1      89.528  68.518  27.496  1.00  0.00     0.180 C
ENDROOT
BRANCH   1  18
HETATM   18  N1  UNL     1      87.265  69.546  28.594  1.00  0.00    -0.225 N
ATOM     19  H1  UNL     1      87.375  68.643  29.055  1.00  0.00     0.177 HD
BRANCH  18  20
HETATM   20  C9  UNL     1      85.966  69.863  28.012  1.00  0.00     0.138 C
BRANCH  20  21
HETATM   21  C8  UNL     1      84.955  69.720  29.099  1.00  0.00     0.020 C
BRANCH  21  22
HETATM   22  C7  UNL     1      84.232  71.014  29.326  1.00  0.00     0.002 C
BRANCH  22  23
HETATM   23  C6  UNL     1      84.841  71.748  30.486  1.00  0.00     0.000 C
BRANCH  23  24
HETATM   24  C5  UNL     1      84.152  73.077  30.760  1.00  0.00     0.000 C
BRANCH  24  25
HETATM   25  C4  UNL     1      83.315  73.008  31.994  1.00  0.00     0.004 C
BRANCH  25  26
HETATM   26  C3  UNL     1      81.921  72.521  31.631  1.00  0.00     0.026 C
BRANCH  26  27
HETATM   27  C2  UNL     1      81.293  71.831  32.770  1.00  0.00    -0.037 C
HETATM   28  C1  UNL     1      79.972  71.716  32.819  1.00  0.00     0.007 C
ENDBRANCH  26  27
ENDBRANCH  25  26
ENDBRANCH  24  25
ENDBRANCH  23  24
ENDBRANCH  22  23
ENDBRANCH  21  22
ENDBRANCH  20  21
ENDBRANCH  18  20
ENDBRANCH   1  18
TORSDOF 9
ENDMDL