MODEL 2
REMARK VINA RESULT: -6.642588237      3.649      5.001
REMARK  8 active torsions:
REMARK  status: ('A' for Active; 'I' for Inactive)
REMARK    1  A    between atoms: C3_3  and  C4_4
REMARK    2  A    between atoms: C4_4  and  C5_5
REMARK    3  A    between atoms: C5_5  and  C6_6
REMARK    4  A    between atoms: C6_6  and  N1_7
REMARK    5  A    between atoms: N3_14  and  C10_15
REMARK    6  A    between atoms: C10_15  and  C11_16
REMARK    7  A    between atoms: C11_16  and  C12_17
REMARK    8  A    between atoms: C12_17  and  N4_18
REMARK       I    between atoms: N4_18  and  C13_20
ROOT
HETATM    1  C1  UNL     1      96.105  71.348  34.147  1.00  0.00     0.012 C
HETATM    2  C2  UNL     1      96.082  71.001  32.994  1.00  0.00    -0.117 C
HETATM    3  C3  UNL     1      96.034  70.592  31.587  1.00  0.00     0.093 C
ENDROOT
BRANCH   3   4
HETATM    4  C4  UNL     1      94.563  70.358  31.192  1.00  0.00     0.017 C
BRANCH   4   5
HETATM    5  C5  UNL     1      94.056  71.555  30.456  1.00  0.00     0.046 C
BRANCH   5   6
HETATM    6  C6  UNL     1      93.220  72.517  31.199  1.00  0.00     0.063 C
BRANCH   6   7
HETATM    7  N1  UNL     1      91.929  72.833  30.751  1.00  0.00    -0.371 N
HETATM    8  C7  UNL     1      91.034  73.558  31.529  1.00  0.00     0.082 C
HETATM    9  C8  UNL     1      90.283  74.689  30.868  1.00  0.00     0.169 C
HETATM   10  N2  UNL     1      89.086  74.186  30.177  1.00  0.00    -0.338 N
HETATM   11  C9  UNL     1      88.772  72.943  29.532  1.00  0.00     0.318 C
ATOM     12  H2  UNL     1      88.321  74.860  30.150  1.00  0.00     0.164 HD
HETATM   13  O1  UNL     1      87.532  72.804  29.371  1.00  0.00    -0.247 OA
HETATM   14  N3  UNL     1      89.553  71.853  29.046  1.00  0.00    -0.333 N
HETATM   15  C14 UNL     1      90.960  71.703  28.778  1.00  0.00     0.147 C
HETATM   16  C15 UNL     1      91.765  72.882  29.327  1.00  0.00     0.147 C
BRANCH  14  17
HETATM   17  C10 UNL     1      88.799  70.677  28.817  1.00  0.00     0.129 C
BRANCH  17  18
HETATM   18  C11 UNL     1      89.207  69.751  27.750  1.00  0.00     0.039 C
BRANCH  18  19
HETATM   19  C12 UNL     1      88.191  68.917  27.080  1.00  0.00     0.123 C
BRANCH  19  20
HETATM   20  N4  UNL     1      87.719  69.592  25.888  1.00  0.00    -0.365 N
HETATM   21  C13 UNL     1      88.254  69.294  24.628  1.00  0.00     0.181 C
HETATM   22  N5  UNL     1      89.071  70.183  24.130  1.00  0.00    -0.374 N
HETATM   23  N6  UNL     1      88.016  68.165  23.832  1.00  0.00    -0.064 NA
ATOM     24  H52 UNL     1      89.244  71.004  24.709  1.00  0.00     0.158 HD
ATOM     25  H51 UNL     1      89.460  69.966  23.212  1.00  0.00     0.158 HD
ATOM     26  H4  UNL     1      86.985  70.295  25.968  1.00  0.00     0.162 HD
ENDBRANCH  19  20
ENDBRANCH  18  19
ENDBRANCH  17  18
ENDBRANCH  14  17
ENDBRANCH   6   7
ENDBRANCH   5   6
ENDBRANCH   4   5
ENDBRANCH   3   4
TORSDOF 8
ENDMDL