MODEL 2
REMARK VINA RESULT: -7.375199985      1.301      1.386
REMARK  3 active torsions:
REMARK  status: ('A' for Active; 'I' for Inactive)
REMARK    1  A    between atoms: N1_1  and  C1_5
REMARK    2  A    between atoms: C5_10  and  O1_11
REMARK    3  A    between atoms: C5_10  and  C6_13
ROOT
HETATM    1  C1  UNL     1      38.134 -10.176  -7.853  1.00  0.00     0.185 C
HETATM    2  C2  UNL     1      37.560 -11.558  -7.781  1.00  0.00     0.034 C
HETATM    3  C3  UNL     1      37.820 -12.392  -8.982  1.00  0.00     0.022 C
HETATM    4  C4  UNL     1      39.341 -12.562  -9.124  1.00  0.00     0.125 C
HETATM    5  N2  UNL     1      39.855 -11.459  -9.825  1.00  0.00    -0.360 N
HETATM    6  C5  UNL     1      40.011 -11.335 -11.172  1.00  0.00     0.174 C
HETATM    7  C10 UNL     1      40.322 -10.219  -9.106  1.00  0.00     0.127 C
HETATM    8  C11 UNL     1      39.618 -10.118  -7.813  1.00  0.00     0.052 C
ENDROOT
BRANCH   6   9
HETATM    9  O1  UNL     1      40.548 -10.101 -11.453  1.00  0.00    -0.344 OA
ATOM     10  H1  UNL     1      40.745 -10.050 -12.381  1.00  0.00     0.219 HD
ENDBRANCH   6   9
BRANCH   6  11
HETATM   11  C6  UNL     1      39.797 -12.069 -12.379  1.00  0.00     0.151 A
HETATM   12  O2  UNL     1      40.539 -13.198 -12.588  1.00  0.00    -0.291 OA
HETATM   13  C7  UNL     1      40.279 -13.780 -13.684  1.00  0.00     0.169 A
HETATM   14 CL1  UNL     1      41.025 -15.252 -14.295  1.00  0.00    -0.055 Cl
HETATM   15  C8  UNL     1      39.316 -13.066 -14.311  1.00  0.00     0.104 A
HETATM   16 CL2  UNL     1      38.548 -13.375 -15.861  1.00  0.00    -0.078 Cl
HETATM   17  C9  UNL     1      39.024 -11.980 -13.462  1.00  0.00     0.097 A
HETATM   18 CL3  UNL     1      37.816 -10.822 -13.930  1.00  0.00    -0.079 Cl
ENDBRANCH   6  11
BRANCH   1  19
HETATM   19  N1  UNL     1      37.579  -9.423  -8.947  1.00  0.00    -0.075 N
ATOM     20  H13 UNL     1      36.574  -9.579  -9.034  1.00  0.00     0.274 HD
ATOM     21  H12 UNL     1      37.569  -8.424  -8.744  1.00  0.00     0.274 HD
ATOM     22  H11 UNL     1      38.062  -9.620  -9.824  1.00  0.00     0.274 HD
ENDBRANCH   1  19
TORSDOF 3
ENDMDL