MODEL 5
REMARK VINA RESULT: -6.122892501      4.884      9.307
REMARK  2 active torsions:
REMARK  status: ('A' for Active; 'I' for Inactive)
REMARK    1  A    between atoms: N1_11  and  N2_13
REMARK       I    between atoms: N2_13  and  C10_15
REMARK    2  A    between atoms: C10_15  and  C11_17
ROOT
HETATM    1  O1  UNL     1      38.813 -10.617  -4.335  1.00  0.00    -0.291 OA
HETATM    2  C1  UNL     1      38.172 -11.463  -3.670  1.00  0.00     0.173 C
HETATM    3  C2  UNL     1      38.605 -11.720  -2.275  1.00  0.00     0.085 C
HETATM    4  C3  UNL     1      38.453 -10.431  -1.522  1.00  0.00     0.008 C
HETATM    5  C4  UNL     1      37.279 -10.316  -0.640  1.00  0.00     0.000 C
HETATM    6  C5  UNL     1      36.100 -11.189  -0.967  1.00  0.00     0.000 C
HETATM    7  C6  UNL     1      35.438 -10.693  -2.209  1.00  0.00     0.000 C
HETATM    8  C7  UNL     1      34.914 -11.829  -3.059  1.00  0.00     0.006 C
HETATM    9  C8  UNL     1      35.966 -12.768  -3.548  1.00  0.00     0.062 C
HETATM   10  C9  UNL     1      37.053 -12.129  -4.321  1.00  0.00     0.071 C
HETATM   11  N1  UNL     1      36.970 -12.186  -5.620  1.00  0.00    -0.299 N
ATOM     12  H1  UNL     1      36.166 -12.664  -6.026  1.00  0.00     0.186 HD
ENDROOT
BRANCH  11  13
HETATM   13  N2  UNL     1      37.910 -11.638  -6.490  1.00  0.00    -0.266 N
HETATM   14  C10 UNL     1      37.698 -11.736  -7.880  1.00  0.00     0.290 C
HETATM   15  O2  UNL     1      36.678 -12.310  -8.309  1.00  0.00    -0.267 OA
ATOM     16  H2  UNL     1      38.740 -11.171  -6.126  1.00  0.00     0.190 HD
BRANCH  14  17
HETATM   17  C11 UNL     1      38.679 -11.166  -8.827  1.00  0.00     0.271 C
HETATM   18 CL1  UNL     1      37.911  -9.939  -9.860  1.00  0.00    -0.073 Cl
HETATM   19 CL2  UNL     1      39.434 -12.413  -9.842  1.00  0.00    -0.073 Cl
HETATM   20 CL3  UNL     1      39.970 -10.321  -7.914  1.00  0.00    -0.073 Cl
ENDBRANCH  14  17
ENDBRANCH  11  13
TORSDOF 2
ENDMDL