MODEL 1
REMARK VINA RESULT: -7.483155939      0.000      0.000
REMARK  1 active torsions:
REMARK  status: ('A' for Active; 'I' for Inactive)
REMARK    1  A    between atoms: C2_2  and  O1_3
ROOT
HETATM    1  C1  UNL     1      39.171 -12.288  -8.515  1.00  0.00     0.084 C
HETATM    2  C2  UNL     1      39.675 -11.072  -9.301  1.00  0.00     0.206 C
HETATM    3  O2  UNL     1      40.503 -11.614 -10.332  1.00  0.00    -0.308 OA
HETATM    4  C3  UNL     1      40.009 -11.954 -11.582  1.00  0.00     0.109 A
HETATM    5  C4  UNL     1      40.437 -13.009 -12.329  1.00  0.00     0.041 A
HETATM    6  C5  UNL     1      39.900 -13.295 -13.576  1.00  0.00     0.030 A
HETATM    7  C6  UNL     1      38.901 -12.482 -14.069  1.00  0.00     0.075 A
HETATM    8 CL1  UNL     1      38.164 -12.771 -15.638  1.00  0.00    -0.081 Cl
HETATM    9  C7  UNL     1      38.462 -11.399 -13.299  1.00  0.00     0.174 A
HETATM   10  F1  UNL     1      37.479 -10.579 -13.759  1.00  0.00    -0.201 F
HETATM   11  C8  UNL     1      38.997 -11.129 -12.079  1.00  0.00     0.144 A
HETATM   12  O3  UNL     1      38.620 -10.078 -11.256  1.00  0.00    -0.317 OA
HETATM   13  C9  UNL     1      38.562 -10.235  -9.830  1.00  0.00     0.177 C
HETATM   14  C10 UNL     1      38.517  -8.851  -9.246  1.00  0.00     0.065 C
HETATM   15 BR1  UNL     1      36.887 -11.117  -9.343  1.00  0.00    -0.048 Br
ENDROOT
BRANCH   2  16
HETATM   16  O1  UNL     1      40.446 -10.323  -8.405  1.00  0.00    -0.362 OA
ATOM     17  H1  UNL     1      39.848  -9.713  -7.990  1.00  0.00     0.213 HD
ENDBRANCH   2  16
TORSDOF 1
ENDMDL