MODEL 1
REMARK VINA RESULT: -6.399580546      0.000      0.000
REMARK  3 active torsions:
REMARK  status: ('A' for Active; 'I' for Inactive)
REMARK    1  A    between atoms: C4_4  and  C5_5
REMARK    2  A    between atoms: C4_4  and  C10_13
REMARK       I    between atoms: C5_5  and  N1_7
REMARK    3  A    between atoms: N1_7  and  C6_9
ROOT
HETATM    1  C1  UNL     1      40.443  -8.085  -1.575  1.00  0.00     0.039 C
HETATM    2  C2  UNL     1      40.388  -9.525  -2.059  1.00  0.00     0.120 C
HETATM    3  C3  UNL     1      40.337  -9.517  -3.544  1.00  0.00     0.061 C
HETATM    4  C4  UNL     1      39.989 -10.864  -4.160  1.00  0.00     0.159 C
HETATM    5  C11 UNL     1      38.969 -11.609  -3.387  1.00  0.00     0.153 C
HETATM    6  C12 UNL     1      37.607 -11.236  -3.851  1.00  0.00     0.068 C
HETATM    7  N2  UNL     1      36.538 -10.948  -4.186  1.00  0.00    -0.197 NA
HETATM    8  C13 UNL     1      39.002 -11.392  -1.888  1.00  0.00     0.071 C
HETATM    9  C14 UNL     1      39.849 -12.373  -1.144  1.00  0.00     0.047 C
HETATM   10  C15 UNL     1      37.548 -11.636  -1.427  1.00  0.00     0.047 C
HETATM   11  O2  UNL     1      39.259 -10.088  -1.541  1.00  0.00    -0.375 OA
ENDROOT
BRANCH   4  12
HETATM   12  C5  UNL     1      39.494 -10.650  -5.542  1.00  0.00     0.237 C
HETATM   13  O1  UNL     1      39.697  -9.537  -6.089  1.00  0.00    -0.272 OA
HETATM   14  N1  UNL     1      38.807 -11.635  -6.283  1.00  0.00    -0.352 N
ATOM     15  H1  UNL     1      38.624 -12.539  -5.846  1.00  0.00     0.163 HD
BRANCH  14  16
HETATM   16  C6  UNL     1      38.355 -11.417  -7.630  1.00  0.00     0.022 C
HETATM   17  C7  UNL     1      39.350 -11.927  -8.659  1.00  0.00     0.037 C
HETATM   18  C8  UNL     1      37.078 -12.199  -7.879  1.00  0.00     0.037 C
HETATM   19  C9  UNL     1      38.058  -9.985  -7.970  1.00  0.00     0.037 C
ENDBRANCH  14  16
ENDBRANCH   4  12
BRANCH   4  20
HETATM   20  C10 UNL     1      41.292 -11.670  -4.350  1.00  0.00     0.405 C
HETATM   21  F1  UNL     1      42.364 -11.029  -3.781  1.00  0.00    -0.170 F
HETATM   22  F2  UNL     1      41.495 -12.060  -5.635  1.00  0.00    -0.170 F
HETATM   23  F3  UNL     1      41.174 -12.874  -3.626  1.00  0.00    -0.170 F
ENDBRANCH   4  20
TORSDOF 3
ENDMDL