MODEL 5
REMARK VINA RESULT: -9.504785716      1.135      1.371
REMARK  3 active torsions:
REMARK  status: ('A' for Active; 'I' for Inactive)
REMARK    1  A    between atoms: C1_2  and  C2_5
REMARK    2  A    between atoms: C3_9  and  N2_10
REMARK    3  A    between atoms: N2_10  and  C4_12
ROOT
HETATM    1  C2  UNL     1      39.161 -12.251 -14.268  1.00  0.00     0.177 A
HETATM    2  N1  UNL     1      39.780 -13.071 -13.410  1.00  0.00    -0.240 N
ATOM      3  H1  UNL     1      40.293 -13.912 -13.674  1.00  0.00     0.196 HD
HETATM    4  O1  UNL     1      39.636 -12.646 -12.202  1.00  0.00    -0.199 OA
HETATM    5  C3  UNL     1      38.939 -11.556 -12.206  1.00  0.00     0.245 A
HETATM    6  N3  UNL     1      38.629 -11.291 -13.499  1.00  0.00    -0.304 N
ATOM      7  H3  UNL     1      38.084 -10.496 -13.831  1.00  0.00     0.171 HD
ENDROOT
BRANCH   5   8
HETATM    8  N2  UNL     1      38.550 -10.783 -11.256  1.00  0.00    -0.345 N
ATOM      9  H2  UNL     1      38.124  -9.921 -11.595  1.00  0.00     0.164 HD
BRANCH   8  10
HETATM   10  C4  UNL     1      38.583 -10.862  -9.881  1.00  0.00     0.038 C
HETATM   11  C5  UNL     1      37.771  -9.758  -9.195  1.00  0.00     0.036 C
HETATM   12  C6  UNL     1      37.740 -10.282  -7.773  1.00  0.00    -0.011 C
HETATM   13  C7  UNL     1      39.129 -10.370  -7.173  1.00  0.00     0.009 C
HETATM   14  C11 UNL     1      37.233 -11.694  -8.043  1.00  0.00     0.012 C
HETATM   15  C8  UNL     1      40.040 -11.178  -8.065  1.00  0.00    -0.011 C
HETATM   16  C9  UNL     1      39.476 -12.534  -8.401  1.00  0.00     0.012 C
HETATM   17  C12 UNL     1      40.038 -10.535  -9.442  1.00  0.00     0.036 C
HETATM   18  C10 UNL     1      38.201 -12.095  -9.165  1.00  0.00     0.014 C
ENDBRANCH   8  10
ENDBRANCH   5   8
BRANCH   1  19
HETATM   19  C1  UNL     1      39.059 -12.377 -15.759  1.00  0.00     0.316 C
HETATM   20  F1  UNL     1      38.796 -11.135 -16.328  1.00  0.00    -0.198 F
HETATM   21 CL1  UNL     1      37.901 -13.613 -16.217  1.00  0.00    -0.058 Cl
HETATM   22 CL2  UNL     1      40.664 -12.900 -16.322  1.00  0.00    -0.058 Cl
ENDBRANCH   1  19
TORSDOF 3
ENDMDL