MODEL 4
REMARK VINA RESULT: -6.688400291      2.073      2.638
REMARK  1 active torsions:
REMARK  status: ('A' for Active; 'I' for Inactive)
REMARK    1  A    between atoms: C2_5  and  C3_6
ROOT
HETATM    1  C3  UNL     1      39.358 -10.324  -4.910  1.00  0.00     0.216 C
HETATM    2  C4  UNL     1      40.026 -11.650  -4.690  1.00  0.00     0.058 C
HETATM    3  C5  UNL     1      40.992 -11.329  -3.540  1.00  0.00     0.123 C
HETATM    4 CL2  UNL     1      40.542 -12.298  -2.097  1.00  0.00    -0.122 Cl
HETATM    5  C6  UNL     1      40.833  -9.868  -3.299  1.00  0.00     0.177 C
HETATM    6  C7  UNL     1      39.940  -9.472  -2.152  1.00  0.00     0.047 C
HETATM    7  C8  UNL     1      40.927  -8.359  -1.839  1.00  0.00     0.048 C
HETATM    8  C9  UNL     1      41.956  -9.132  -2.676  1.00  0.00     0.148 C
HETATM    9 CL3  UNL     1      42.905 -10.238  -1.620  1.00  0.00    -0.099 Cl
HETATM   10 CL4  UNL     1      42.951  -8.128  -3.720  1.00  0.00    -0.099 Cl
HETATM   11  N2  UNL     1      40.382  -9.383  -4.600  1.00  0.00    -0.055 N
ATOM     12  H21 UNL     1      40.098  -8.404  -4.626  1.00  0.00     0.278 HD
ATOM     13  H22 UNL     1      41.112  -9.285  -5.306  1.00  0.00     0.278 HD
ENDROOT
BRANCH   1  14
HETATM   14  C2  UNL     1      38.816 -10.237  -6.295  1.00  0.00     0.151 C
HETATM   15  N1  UNL     1      39.257 -11.288  -7.151  1.00  0.00    -0.371 N
HETATM   16  C1  UNL     1      38.991 -11.167  -8.408  1.00  0.00     0.094 C
ATOM     17  H1  UNL     1      39.759 -12.098  -6.787  1.00  0.00     0.161 HD
HETATM   18 CL1  UNL     1      39.481 -12.396  -9.566  1.00  0.00    -0.068 Cl
HETATM   19  C11 UNL     1      38.252  -9.965  -8.908  1.00  0.00     0.188 C
HETATM   20  N3  UNL     1      38.826  -8.829  -8.204  1.00  0.00    -0.394 N
HETATM   21  C10 UNL     1      39.095  -8.958  -6.960  1.00  0.00     0.083 C
ATOM     22  H3  UNL     1      39.010  -7.951  -8.690  1.00  0.00     0.159 HD
ENDBRANCH   1  14
TORSDOF 1
ENDMDL