MODEL 4
REMARK VINA RESULT: -5.501289446      6.635      7.702
REMARK  1 active torsions:
REMARK  status: ('A' for Active; 'I' for Inactive)
REMARK    1  A    between atoms: N1_2  and  C1_4
ROOT
HETATM    1  C1  UNL     1      38.929 -10.217  -7.579  1.00  0.00     0.137 A
HETATM    2  C2  UNL     1      39.792  -9.568  -6.723  1.00  0.00     0.126 A
HETATM    3  N2  UNL     1      39.731  -9.812  -5.401  1.00  0.00    -0.356 N
ATOM      4  H2  UNL     1      40.380  -9.319  -4.788  1.00  0.00     0.166 HD
HETATM    5  C3  UNL     1      38.866 -10.665  -4.854  1.00  0.00     0.103 A
HETATM    6 BR1  UNL     1      38.781 -11.008  -2.977  1.00  0.00    -0.029 Br
HETATM    7  C4  UNL     1      38.001 -11.319  -5.694  1.00  0.00     0.087 A
HETATM    8 CL1  UNL     1      36.840 -12.456  -4.994  1.00  0.00    -0.080 Cl
HETATM    9  C5  UNL     1      38.031 -11.095  -7.064  1.00  0.00     0.070 A
HETATM   10 BR2  UNL     1      36.821 -12.014  -8.210  1.00  0.00    -0.046 Br
ENDROOT
BRANCH   1  11
HETATM   11  N1  UNL     1      39.006  -9.946  -8.982  1.00  0.00    -0.113 N
HETATM   12  O1  UNL     1      39.806 -10.610  -9.672  1.00  0.00    -0.532 OA
HETATM   13  O2  UNL     1      38.256  -9.001  -9.613  1.00  0.00    -0.532 OA
ENDBRANCH   1  11
TORSDOF 1
ENDMDL