MODEL 3
REMARK VINA RESULT: -4.806138961      4.064      4.760
REMARK  2 active torsions:
REMARK  status: ('A' for Active; 'I' for Inactive)
REMARK    1  A    between atoms: C1_2  and  N1_3
REMARK    2  A    between atoms: N1_3  and  C2_5
ROOT
HETATM    1  C2  UNL     1      40.105 -11.260  -4.609  1.00  0.00     0.142 C
HETATM    2  C3  UNL     1      39.282 -11.256  -5.872  1.00  0.00     0.098 C
HETATM    3  C4  UNL     1      39.523 -10.042  -6.688  1.00  0.00     0.074 C
HETATM    4 BR1  UNL     1      39.039 -10.126  -8.539  1.00  0.00    -0.035 Br
HETATM    5  N2  UNL     1      40.025  -8.964  -6.239  1.00  0.00    -0.297 N
ATOM      6  H2  UNL     1      40.155  -8.180  -6.878  1.00  0.00     0.187 HD
HETATM    7  N3  UNL     1      40.405  -8.813  -4.905  1.00  0.00    -0.300 N
ATOM      8  H3  UNL     1      40.804  -7.934  -4.577  1.00  0.00     0.186 HD
HETATM    9  C5  UNL     1      40.230  -9.892  -4.019  1.00  0.00     0.082 C
HETATM   10  C6  UNL     1      40.177  -9.704  -2.701  1.00  0.00     0.129 C
HETATM   11 CL1  UNL     1      39.959 -11.050  -1.600  1.00  0.00    -0.069 Cl
HETATM   12 CL2  UNL     1      40.333  -8.069  -2.105  1.00  0.00    -0.069 Cl
ENDROOT
BRANCH   1  13
HETATM   13  N1  UNL     1      41.442 -11.728  -4.916  1.00  0.00    -0.380 N
ATOM     14  H1  UNL     1      41.877 -11.402  -5.779  1.00  0.00     0.160 HD
BRANCH  13  15
HETATM   15  C1  UNL     1      42.103 -12.518  -4.176  1.00  0.00     0.166 C
HETATM   16  S1  UNL     1      42.521 -13.695  -3.161  1.00  0.00    -0.075 SA
ENDBRANCH  13  15
ENDBRANCH   1  13
TORSDOF 2
ENDMDL