MODEL 1
REMARK VINA RESULT: -6.086176834      0.000      0.000
REMARK  1 active torsions:
REMARK  status: ('A' for Active; 'I' for Inactive)
REMARK    1  A    between atoms: C2_2  and  N1_3
ROOT
HETATM    1  N1  UNL     1      38.882 -10.976  -3.707  1.00  0.00    -0.344 N
HETATM    2  C3  UNL     1      39.018 -11.217  -5.125  1.00  0.00     0.048 A
HETATM    3  C4  UNL     1      37.932 -11.049  -5.922  1.00  0.00     0.057 A
HETATM    4  C5  UNL     1      38.057 -11.281  -7.274  1.00  0.00     0.054 A
HETATM    5  N2  UNL     1      36.958 -11.119  -8.136  1.00  0.00    -0.102 NA
HETATM    6  C6  UNL     1      39.281 -11.677  -7.793  1.00  0.00    -0.037 A
HETATM    7  C7  UNL     1      39.395 -11.922  -9.253  1.00  0.00     0.050 C
HETATM    8  C8  UNL     1      40.377 -11.845  -6.990  1.00  0.00     0.026 A
HETATM    9  C9  UNL     1      40.247 -11.612  -5.644  1.00  0.00     0.039 A
HETATM   10  C10 UNL     1      41.316 -11.752  -4.692  1.00  0.00     0.185 C
HETATM   11  O1  UNL     1      42.230 -12.582  -4.949  1.00  0.00    -0.290 OA
HETATM   12  C11 UNL     1      41.340 -10.946  -3.454  1.00  0.00     0.216 C
HETATM   13 CL1  UNL     1      42.230 -11.868  -2.223  1.00  0.00    -0.111 Cl
HETATM   14  C12 UNL     1      40.000 -10.585  -2.906  1.00  0.00     0.212 C
HETATM   15 CL2  UNL     1      39.840 -11.327  -1.269  1.00  0.00    -0.075 Cl
HETATM   16 CL3  UNL     1      40.054  -8.807  -2.595  1.00  0.00    -0.075 Cl
ENDROOT
BRANCH   1  17
HETATM   17  C2  UNL     1      37.584 -11.152  -3.117  1.00  0.00     0.122 C
HETATM   18  C1  UNL     1      37.107 -12.550  -2.975  1.00  0.00     0.026 C
ENDBRANCH   1  17
TORSDOF 1
ENDMDL