MODEL 2
REMARK VINA RESULT: -5.581427032      2.405      3.814
REMARK  5 active torsions:
REMARK  status: ('A' for Active; 'I' for Inactive)
REMARK    1  A    between atoms: C2_3  and  O1_4
REMARK    2  A    between atoms: C4_7  and  C13_20
REMARK    3  A    between atoms: C7_10  and  C8_11
REMARK    4  A    between atoms: C9_12  and  S1_13
REMARK    5  A    between atoms: S1_13  and  C10_14
ROOT
HETATM    1  N1  UNL     1      40.365 -11.416  -7.065  1.00  0.00    -0.194 NA
HETATM    2  C1  UNL     1      40.579 -11.476  -5.920  1.00  0.00     0.098 C
HETATM    3  C2  UNL     1      40.855 -11.323  -4.480  1.00  0.00     0.150 C
HETATM    4  C3  UNL     1      40.545  -9.913  -4.056  1.00  0.00     0.059 C
HETATM    5  C4  UNL     1      39.601  -9.845  -2.859  1.00  0.00    -0.002 C
HETATM    6  C5  UNL     1      40.294 -10.716  -1.805  1.00  0.00     0.006 C
HETATM    7  C6  UNL     1      40.334 -12.127  -2.319  1.00  0.00     0.009 C
HETATM    8  C7  UNL     1      39.861 -12.246  -3.762  1.00  0.00     0.040 C
ENDROOT
BRANCH   3   9
HETATM    9  O1  UNL     1      42.166 -11.696  -4.214  1.00  0.00    -0.375 OA
ATOM     10  H1  UNL     1      42.759 -11.020  -4.520  1.00  0.00     0.211 HD
ENDBRANCH   3   9
BRANCH   8  11
HETATM   11  C8  UNL     1      38.569 -11.657  -4.072  1.00  0.00     0.017 C
HETATM   12  C9  UNL     1      37.782 -12.052  -5.255  1.00  0.00     0.065 C
HETATM   13  C11 UNL     1      36.429 -12.173  -4.584  1.00  0.00     0.001 C
HETATM   14  C12 UNL     1      36.455 -11.244  -3.371  1.00  0.00     0.016 C
HETATM   15  C14 UNL     1      36.791 -13.236  -3.551  1.00  0.00     0.016 C
HETATM   16  C13 UNL     1      37.589 -12.098  -2.988  1.00  0.00    -0.031 C
BRANCH  12  17
HETATM   17  S1  UNL     1      37.725 -10.828  -6.571  1.00  0.00    -0.050 SA
BRANCH  17  18
HETATM   18  C10 UNL     1      37.225 -11.621  -8.125  1.00  0.00     0.443 C
HETATM   19  F1  UNL     1      37.014 -10.670  -9.113  1.00  0.00    -0.160 F
HETATM   20  F2  UNL     1      36.020 -12.299  -7.967  1.00  0.00    -0.160 F
HETATM   21  F3  UNL     1      38.140 -12.578  -8.533  1.00  0.00    -0.160 F
ENDBRANCH  17  18
ENDBRANCH  12  17
ENDBRANCH   8  11
TORSDOF 5
ENDMDL