MODEL 1
REMARK VINA RESULT: -6.521210336      0.000      0.000
REMARK  7 active torsions:
REMARK  status: ('A' for Active; 'I' for Inactive)
REMARK    1  A    between atoms: C3_3  and  N1_4
REMARK    2  A    between atoms: N1_4  and  C4_5
REMARK    3  A    between atoms: N1_4  and  N5_16
REMARK    4  A    between atoms: C4_5  and  C5_6
REMARK    5  A    between atoms: C7_10  and  N3_11
REMARK    6  A    between atoms: N5_16  and  N6_18
REMARK    7  A    between atoms: N6_18  and  N7_20
ROOT
HETATM    1  C1  UNL     1      25.538 -10.065  -8.398  1.00  0.00     0.014 C
HETATM    2  C2  UNL     1      25.569  -9.596  -7.292  1.00  0.00    -0.096 C
HETATM    3  C3  UNL     1      25.571  -9.011  -5.949  1.00  0.00     0.237 C
ENDROOT
BRANCH   3   4
HETATM    4  N1  UNL     1      24.880  -9.880  -5.047  1.00  0.00    -0.296 N
BRANCH   4   5
HETATM    5  C4  UNL     1      25.668 -10.707  -4.146  1.00  0.00     0.204 C
BRANCH   5   6
HETATM    6  C5  UNL     1      25.615 -12.136  -4.672  1.00  0.00     0.061 A
HETATM    7  C6  UNL     1      26.282 -12.682  -5.734  1.00  0.00     0.133 A
HETATM    8  N2  UNL     1      25.931 -13.979  -5.794  1.00  0.00    -0.200 N
HETATM    9  C7  UNL     1      25.064 -14.235  -4.787  1.00  0.00     0.676 A
ATOM     10  H2  UNL     1      26.261 -14.655  -6.482  1.00  0.00     0.183 HD
HETATM   11  N4  UNL     1      24.874 -13.099  -4.104  1.00  0.00    -0.193 N
ATOM     12  H4  UNL     1      24.270 -12.985  -3.290  1.00  0.00     0.184 HD
BRANCH   9  13
HETATM   13  N3  UNL     1      24.524 -15.377  -4.541  1.00  0.00    -0.234 N
ATOM     14  H32 UNL     1      24.994 -16.282  -4.530  1.00  0.00     0.174 HD
ATOM     15  H31 UNL     1      23.540 -15.530  -4.321  1.00  0.00     0.174 HD
ENDBRANCH   9  13
ENDBRANCH   5   6
ENDBRANCH   4   5
BRANCH   4  16
HETATM   16  N5  UNL     1      23.506  -9.964  -5.022  1.00  0.00    -0.230 N
ATOM     17  H5  UNL     1      23.048 -10.669  -5.598  1.00  0.00     0.209 HD
BRANCH  16  18
HETATM   18  N6  UNL     1      22.775  -9.185  -4.296  1.00  0.00    -0.235 N
ATOM     19  H6  UNL     1      23.235  -8.666  -3.548  1.00  0.00     0.209 HD
BRANCH  18  20
HETATM   20  N7  UNL     1      21.424  -9.006  -4.456  1.00  0.00    -0.330 N
ATOM     21  H72 UNL     1      21.083  -8.946  -5.416  1.00  0.00     0.178 HD
ATOM     22  H71 UNL     1      20.752  -8.930  -3.693  1.00  0.00     0.178 HD
ENDBRANCH  18  20
ENDBRANCH  16  18
ENDBRANCH   4  16
ENDBRANCH   3   4
TORSDOF 7
ENDMDL