MODEL 3
REMARK VINA RESULT: -6.219945366      0.843      1.963
REMARK  4 active torsions:
REMARK  status: ('A' for Active; 'I' for Inactive)
REMARK    1  A    between atoms: N1_1  and  C1_4
REMARK    2  A    between atoms: C4_12  and  C5_13
REMARK    3  A    between atoms: C5_13  and  N4_14
REMARK    4  A    between atoms: N4_14  and  C6_16
ROOT
HETATM    1  C1  UNL     1      24.646 -10.882  -5.793  1.00  0.00     0.112 A
HETATM    2  N2  UNL     1      24.002  -9.762  -5.472  1.00  0.00    -0.294 N
ATOM      3  H2  UNL     1      23.685  -9.180  -6.247  1.00  0.00     0.172 HD
HETATM    4  C2  UNL     1      23.723  -9.317  -4.230  1.00  0.00     0.325 A
HETATM    5  O1  UNL     1      23.110  -8.260  -3.991  1.00  0.00    -0.247 OA
HETATM    6  N3  UNL     1      24.165 -10.122  -3.205  1.00  0.00    -0.318 N
ATOM      7  H3  UNL     1      23.990  -9.850  -2.238  1.00  0.00     0.170 HD
HETATM    8  C3  UNL     1      24.821 -11.261  -3.465  1.00  0.00     0.105 A
HETATM    9  C4  UNL     1      25.103 -11.709  -4.740  1.00  0.00     0.019 A
ENDROOT
BRANCH   9  10
HETATM   10  C5  UNL     1      25.679 -13.011  -5.073  1.00  0.00     0.165 C
BRANCH  10  11
HETATM   11  N4  UNL     1      24.896 -14.115  -4.639  1.00  0.00    -0.364 N
ATOM     12  H4  UNL     1      24.066 -13.778  -4.151  1.00  0.00     0.162 HD
BRANCH  11  13
HETATM   13  C6  UNL     1      24.895 -15.479  -4.663  1.00  0.00     0.348 C
HETATM   14  O2  UNL     1      25.296 -16.343  -3.913  1.00  0.00    -0.284 OA
ENDBRANCH  11  13
ENDBRANCH  10  11
ENDBRANCH   9  10
BRANCH   1  15
HETATM   15  N1  UNL     1      24.970 -11.147  -7.043  1.00  0.00    -0.385 N
ATOM     16  H12 UNL     1      24.467 -11.861  -7.570  1.00  0.00     0.157 HD
ATOM     17  H11 UNL     1      25.792 -10.725  -7.475  1.00  0.00     0.157 HD
ENDBRANCH   1  15
TORSDOF 4
ENDMDL