MODEL 1
REMARK VINA RESULT: -6.559359380      0.000      0.000
REMARK  3 active torsions:
REMARK  status: ('A' for Active; 'I' for Inactive)
REMARK    1  A    between atoms: C1_2  and  N1_3
REMARK    2  A    between atoms: N1_3  and  C2_5
REMARK    3  A    between atoms: C2_5  and  C3_6
ROOT
HETATM    1  C3  UNL     1      25.586 -12.143  -4.885  1.00  0.00     0.207 C
HETATM    2  N2  UNL     1      25.337 -11.730  -6.230  1.00  0.00    -0.320 N
ATOM      3  H2  UNL     1      25.864 -12.138  -7.003  1.00  0.00     0.166 HD
HETATM    4  C4  UNL     1      24.337 -10.734  -6.475  1.00  0.00     0.325 C
HETATM    5  O2  UNL     1      23.917 -10.516  -7.646  1.00  0.00    -0.247 OA
HETATM    6  N3  UNL     1      23.788  -9.966  -5.432  1.00  0.00    -0.261 N
ATOM      7  H3  UNL     1      23.077  -9.263  -5.633  1.00  0.00     0.175 HD
HETATM    8  C5  UNL     1      24.224 -10.173  -4.112  1.00  0.00     0.325 C
HETATM    9  O3  UNL     1      23.770  -9.514  -3.126  1.00  0.00    -0.247 OA
HETATM   10  N4  UNL     1      25.228 -11.177  -3.895  1.00  0.00    -0.320 N
ATOM     11  H4  UNL     1      25.705 -11.201  -2.994  1.00  0.00     0.166 HD
ENDROOT
BRANCH   1  12
HETATM   12  C2  UNL     1      24.948 -13.508  -4.603  1.00  0.00     0.169 C
BRANCH  12  13
HETATM   13  N1  UNL     1      25.542 -14.542  -5.401  1.00  0.00    -0.365 N
ATOM     14  H1  UNL     1      26.134 -14.289  -6.193  1.00  0.00     0.161 HD
BRANCH  13  15
HETATM   15  C1  UNL     1      25.319 -15.903  -5.106  1.00  0.00     0.348 C
HETATM   16  O1  UNL     1      25.335 -16.324  -3.911  1.00  0.00    -0.284 OA
ENDBRANCH  13  15
ENDBRANCH  12  13
ENDBRANCH   1  12
TORSDOF 3
ENDMDL