MODEL 4
REMARK VINA RESULT: -5.230567380      1.358      2.040
REMARK  6 active torsions:
REMARK  status: ('A' for Active; 'I' for Inactive)
REMARK    1  A    between atoms: C2_5  and  C3_6
REMARK    2  A    between atoms: C3_6  and  N2_7
REMARK    3  A    between atoms: C4_11  and  N3_12
REMARK    4  A    between atoms: N4_17  and  C6_18
REMARK    5  A    between atoms: C6_18  and  C7_19
REMARK    6  A    between atoms: C7_19  and  N5_20
ROOT
HETATM    1  N1  UNL     1      24.358  -9.965  -6.524  1.00  0.00    -0.389 N
ATOM      2  H11 UNL     1      24.868 -10.131  -7.391  1.00  0.00     0.157 HD
ATOM      3  H12 UNL     1      23.652  -9.267  -6.759  1.00  0.00     0.157 HD
HETATM    4  C1  UNL     1      24.565 -10.531  -5.369  1.00  0.00     0.080 C
HETATM    5  C2  UNL     1      23.823 -10.289  -4.108  1.00  0.00     0.110 C
HETATM    6  C4  UNL     1      24.891 -10.435  -3.064  1.00  0.00     0.214 C
HETATM    7  C5  UNL     1      25.758 -11.530  -3.611  1.00  0.00     0.157 C
HETATM    8  N4  UNL     1      25.556 -11.512  -5.039  1.00  0.00    -0.367 N
ENDROOT
BRANCH   8   9
HETATM    9  C6  UNL     1      26.239 -12.349  -6.002  1.00  0.00     0.151 C
BRANCH   9  10
HETATM   10  C7  UNL     1      27.611 -11.800  -6.325  1.00  0.00     0.249 C
BRANCH  10  11
HETATM   11  N5  UNL     1      27.615 -10.889  -7.409  1.00  0.00    -0.078 N
ATOM     12  H53 UNL     1      27.254 -11.332  -8.254  1.00  0.00     0.274 HD
ATOM     13  H52 UNL     1      26.905 -10.168  -7.278  1.00  0.00     0.274 HD
ATOM     14  H51 UNL     1      28.527 -10.468  -7.584  1.00  0.00     0.274 HD
ENDBRANCH  10  11
ENDBRANCH   9  10
ENDBRANCH   8   9
BRANCH   5  15
HETATM   15  C3  UNL     1      23.165  -8.929  -4.089  1.00  0.00     0.243 C
BRANCH  15  16
HETATM   16  N2  UNL     1      21.746  -9.114  -4.339  1.00  0.00    -0.079 N
ATOM     17  H23 UNL     1      21.557  -9.529  -5.251  1.00  0.00     0.274 HD
ATOM     18  H22 UNL     1      21.337  -9.852  -3.766  1.00  0.00     0.274 HD
ATOM     19  H21 UNL     1      21.283  -8.213  -4.211  1.00  0.00     0.274 HD
ENDBRANCH  15  16
ENDBRANCH   5  15
BRANCH   6  20
HETATM   20  N3  UNL     1      24.276 -10.801  -1.800  1.00  0.00    -0.073 N
ATOM     21  H33 UNL     1      23.257 -10.744  -1.833  1.00  0.00     0.274 HD
ATOM     22  H32 UNL     1      24.357 -11.798  -1.604  1.00  0.00     0.274 HD
ATOM     23  H31 UNL     1      24.671 -10.227  -1.056  1.00  0.00     0.274 HD
ENDBRANCH   6  20
TORSDOF 6
ENDMDL