MODEL 3
REMARK VINA RESULT: -6.293133573      1.785      2.066
REMARK  3 active torsions:
REMARK  status: ('A' for Active; 'I' for Inactive)
REMARK       I    between atoms: C1_4  and  N2_5
REMARK       I    between atoms: C1_4  and  N4_11
REMARK    1  A    between atoms: N2_5  and  N3_7
REMARK    2  A    between atoms: N3_7  and  C2_9
REMARK    3  A    between atoms: N4_11  and  C3_13
ROOT
HETATM    1  N1  UNL     1      25.152 -12.351  -3.433  1.00  0.00    -0.234 N
ATOM      2  H11 UNL     1      25.699 -11.490  -3.439  1.00  0.00     0.174 HD
ATOM      3  H12 UNL     1      24.756 -12.694  -2.558  1.00  0.00     0.174 HD
HETATM    4  C1  UNL     1      24.945 -13.045  -4.524  1.00  0.00     0.687 C
HETATM    5  N2  UNL     1      24.185 -14.241  -4.515  1.00  0.00    -0.131 N
ATOM      6  H2  UNL     1      23.205 -14.175  -4.791  1.00  0.00     0.205 HD
HETATM    7  N4  UNL     1      25.501 -12.563  -5.754  1.00  0.00    -0.212 N
ATOM      8  H4  UNL     1      25.724 -13.210  -6.510  1.00  0.00     0.178 HD
ENDROOT
BRANCH   5   9
HETATM    9  N3  UNL     1      24.660 -15.484  -4.164  1.00  0.00    -0.263 N
ATOM     10  H3  UNL     1      24.960 -15.652  -3.203  1.00  0.00     0.190 HD
BRANCH   9  11
HETATM   11  C2  UNL     1      24.741 -16.528  -5.105  1.00  0.00     0.369 C
HETATM   12  O1  UNL     1      25.497 -16.503  -6.114  1.00  0.00    -0.282 OA
ENDBRANCH   9  11
ENDBRANCH   5   9
BRANCH   7  13
HETATM   13  C3  UNL     1      25.737 -11.157  -5.905  1.00  0.00     0.193 C
HETATM   14  C4  UNL     1      27.016 -10.847  -6.637  1.00  0.00     0.055 C
HETATM   15  C5  UNL     1      26.826  -9.350  -6.901  1.00  0.00     0.125 C
HETATM   16  N5  UNL     1      25.388  -9.263  -7.175  1.00  0.00    -0.359 N
HETATM   17  C6  UNL     1      24.741 -10.472  -6.763  1.00  0.00     0.241 C
ATOM     18  H5  UNL     1      24.919  -8.461  -7.597  1.00  0.00     0.162 HD
HETATM   19  O2  UNL     1      23.594 -10.827  -7.079  1.00  0.00    -0.271 OA
ENDBRANCH   7  13
TORSDOF 3
ENDMDL