MODEL 3
REMARK VINA RESULT: -6.057244198      2.289      4.879
REMARK  3 active torsions:
REMARK  status: ('A' for Active; 'I' for Inactive)
REMARK    1  A    between atoms: N1_2  and  C2_5
REMARK    2  A    between atoms: C4_10  and  N3_11
REMARK       I    between atoms: N3_11  and  C5_13
REMARK       I    between atoms: C5_13  and  N5_17
REMARK    3  A    between atoms: N5_17  and  C6_19
ROOT
HETATM    1  C2  UNL     1      24.806 -13.882  -4.843  1.00  0.00     0.261 C
HETATM    2  C3  UNL     1      25.987 -13.713  -5.821  1.00  0.00     0.271 C
HETATM    3  N2  UNL     1      25.737 -12.266  -5.586  1.00  0.00    -0.050 N
ATOM      4  H21 UNL     1      25.057 -11.729  -6.124  1.00  0.00     0.279 HD
ATOM      5  H22 UNL     1      26.413 -11.542  -5.828  1.00  0.00     0.279 HD
HETATM    6  C4  UNL     1      25.495 -12.696  -4.205  1.00  0.00     0.331 C
ENDROOT
BRANCH   6   7
HETATM    7  N3  UNL     1      24.753 -11.830  -3.377  1.00  0.00    -0.195 N
HETATM    8  C5  UNL     1      25.209 -10.547  -2.998  1.00  0.00     0.675 C
HETATM    9  N4  UNL     1      26.254 -10.454  -2.234  1.00  0.00    -0.235 N
HETATM   10  N5  UNL     1      24.543  -9.367  -3.437  1.00  0.00    -0.168 N
ATOM     11  H42 UNL     1      26.732 -11.298  -1.919  1.00  0.00     0.174 HD
ATOM     12  H41 UNL     1      26.584  -9.528  -1.960  1.00  0.00     0.174 HD
ATOM     13  H5  UNL     1      24.895  -8.448  -3.170  1.00  0.00     0.186 HD
ATOM     14  H3  UNL     1      23.844 -12.143  -3.036  1.00  0.00     0.180 HD
BRANCH  10  15
HETATM   15  C6  UNL     1      23.396  -9.481  -4.241  1.00  0.00     0.368 C
HETATM   16  O1  UNL     1      23.325 -10.094  -5.324  1.00  0.00    -0.283 OA
ENDBRANCH  10  15
ENDBRANCH   6   7
BRANCH   1  17
HETATM   17  N1  UNL     1      24.956 -15.143  -4.168  1.00  0.00    -0.069 N
HETATM   18  C1  UNL     1      25.146 -16.157  -5.216  1.00  0.00     0.267 C
ATOM     19  H12 UNL     1      24.186 -15.357  -3.534  1.00  0.00     0.277 HD
ATOM     20  H11 UNL     1      25.699 -15.142  -3.469  1.00  0.00     0.277 HD
ENDBRANCH   1  17
TORSDOF 3
ENDMDL