MODEL 2
REMARK VINA RESULT: -6.050271197      0.600      2.299
REMARK  6 active torsions:
REMARK  status: ('A' for Active; 'I' for Inactive)
REMARK    1  A    between atoms: N1_1  and  C1_4
REMARK    2  A    between atoms: N2_6  and  C3_7
REMARK    3  A    between atoms: C3_7  and  C4_8
REMARK    4  A    between atoms: C4_8  and  C5_9
REMARK    5  A    between atoms: C5_9  and  N3_10
REMARK    6  A    between atoms: C6_16  and  N5_17
ROOT
HETATM    1  C1  UNL     1      25.038 -11.076  -2.712  1.00  0.00     0.132 A
HETATM    2  C2  UNL     1      25.083 -12.208  -3.508  1.00  0.00     0.159 A
HETATM    3  N2  UNL     1      25.826 -12.221  -4.630  1.00  0.00    -0.285 N
HETATM    4  N4  UNL     1      26.508 -11.136  -4.955  1.00  0.00    -0.131 N
ATOM      5  H4  UNL     1      27.072 -11.146  -5.805  1.00  0.00     0.206 HD
HETATM    6  C6  UNL     1      26.487 -10.019  -4.205  1.00  0.00     0.692 A
HETATM    7  N6  UNL     1      25.749  -9.995  -3.081  1.00  0.00    -0.175 N
ATOM      8  H6  UNL     1      25.727  -9.153  -2.505  1.00  0.00     0.186 HD
ENDROOT
BRANCH   3   9
HETATM    9  C3  UNL     1      25.842 -13.434  -5.434  1.00  0.00     0.150 C
BRANCH   9  10
HETATM   10  C4  UNL     1      24.886 -14.457  -4.851  1.00  0.00     0.049 C
BRANCH  10  11
HETATM   11  C5  UNL     1      25.333 -15.827  -5.247  1.00  0.00     0.231 C
BRANCH  11  12
HETATM   12  N3  UNL     1      24.340 -16.839  -4.946  1.00  0.00    -0.079 N
ATOM     13  H33 UNL     1      23.576 -16.451  -4.394  1.00  0.00     0.274 HD
ATOM     14  H32 UNL     1      23.819 -17.103  -5.783  1.00  0.00     0.274 HD
ATOM     15  H31 UNL     1      24.745 -17.658  -4.491  1.00  0.00     0.274 HD
ENDBRANCH  11  12
ENDBRANCH  10  11
ENDBRANCH   9  10
ENDBRANCH   3   9
BRANCH   1  16
HETATM   16  N1  UNL     1      24.334 -11.038  -1.631  1.00  0.00    -0.384 N
ATOM     17  H12 UNL     1      23.770 -10.213  -1.425  1.00  0.00     0.157 HD
ATOM     18  H11 UNL     1      24.327 -11.815  -0.970  1.00  0.00     0.157 HD
ENDBRANCH   1  16
BRANCH   6  19
HETATM   19  N5  UNL     1      27.171  -8.953  -4.544  1.00  0.00    -0.233 N
ATOM     20  H52 UNL     1      26.672  -8.098  -4.788  1.00  0.00     0.174 HD
ATOM     21  H51 UNL     1      28.191  -8.960  -4.568  1.00  0.00     0.174 HD
ENDBRANCH   6  19
TORSDOF 6
ENDMDL