MODEL 4
REMARK VINA RESULT: -6.056129740      1.212      1.212
REMARK  7 active torsions:
REMARK  status: ('A' for Active; 'I' for Inactive)
REMARK    1  A    between atoms: N1_1  and  C1_4
REMARK    2  A    between atoms: N3_8  and  C3_9
REMARK    3  A    between atoms: C3_9  and  C4_10
REMARK    4  A    between atoms: C4_10  and  C5_11
REMARK    5  A    between atoms: C4_10  and  C6_16
REMARK    6  A    between atoms: C5_11  and  N4_12
REMARK    7  A    between atoms: C6_16  and  N5_17
ROOT
HETATM    1  C3  UNL     1      24.417 -11.975  -4.582  1.00  0.00     0.158 C
ENDROOT
BRANCH   1   2
HETATM    2  N3  UNL     1      24.755 -13.346  -4.856  1.00  0.00    -0.273 N
HETATM    3  C2  UNL     1      25.821 -13.849  -5.529  1.00  0.00     0.218 A
HETATM    4  N2  UNL     1      25.767 -15.191  -5.564  1.00  0.00    -0.185 N
HETATM    5  C1  UNL     1      24.653 -15.557  -4.908  1.00  0.00     0.691 A
ATOM      6  H2  UNL     1      26.443 -15.814  -6.006  1.00  0.00     0.185 HD
HETATM    7  N6  UNL     1      24.060 -14.436  -4.491  1.00  0.00    -0.129 N
ATOM      8  H6  UNL     1      23.188 -14.409  -3.962  1.00  0.00     0.206 HD
BRANCH   5   9
HETATM    9  N1  UNL     1      24.236 -16.787  -4.717  1.00  0.00    -0.233 N
ATOM     10  H12 UNL     1      24.552 -17.436  -3.997  1.00  0.00     0.174 HD
ATOM     11  H11 UNL     1      23.528 -17.274  -5.267  1.00  0.00     0.174 HD
ENDBRANCH   5   9
ENDBRANCH   1   2
BRANCH   1  12
HETATM   12  C4  UNL     1      25.418 -11.130  -3.908  1.00  0.00     0.056 C
BRANCH  12  13
HETATM   13  C5  UNL     1      24.858 -10.662  -2.551  1.00  0.00     0.237 C
BRANCH  13  14
HETATM   14  N4  UNL     1      25.148 -11.578  -1.492  1.00  0.00    -0.079 N
ATOM     15  H43 UNL     1      25.426 -12.487  -1.861  1.00  0.00     0.274 HD
ATOM     16  H42 UNL     1      26.012 -11.324  -1.013  1.00  0.00     0.274 HD
ATOM     17  H41 UNL     1      24.376 -11.669  -0.832  1.00  0.00     0.274 HD
ENDBRANCH  13  14
ENDBRANCH  12  13
BRANCH  12  18
HETATM   18  C6  UNL     1      25.896  -9.897  -4.597  1.00  0.00     0.237 C
BRANCH  18  19
HETATM   19  N5  UNL     1      25.044  -8.766  -4.489  1.00  0.00    -0.079 N
ATOM     20  H53 UNL     1      25.010  -8.271  -5.380  1.00  0.00     0.274 HD
ATOM     21  H52 UNL     1      24.073  -9.067  -4.411  1.00  0.00     0.274 HD
ATOM     22  H51 UNL     1      25.269  -8.116  -3.737  1.00  0.00     0.274 HD
ENDBRANCH  18  19
ENDBRANCH  12  18
ENDBRANCH   1  12
TORSDOF 7
ENDMDL