MODEL 2
REMARK VINA RESULT: -5.688558770      2.635      3.215
REMARK  6 active torsions:
REMARK  status: ('A' for Active; 'I' for Inactive)
REMARK    1  A    between atoms: N2_4  and  C1_6
REMARK    2  A    between atoms: C1_6  and  C2_7
REMARK    3  A    between atoms: C2_7  and  O1_8
REMARK    4  A    between atoms: C5_12  and  N3_13
REMARK    5  A    between atoms: C6_17  and  O2_18
REMARK    6  A    between atoms: O2_18  and  N4_19
ROOT
HETATM    1  C2  UNL     1      25.236  -9.892  -4.819  1.00  0.00     0.105 C
HETATM    2  C3  UNL     1      25.102 -11.342  -5.239  1.00  0.00     0.044 C
HETATM    3  C4  UNL     1      25.272 -12.168  -3.978  1.00  0.00     0.038 C
HETATM    4  C5  UNL     1      24.774 -11.184  -2.939  1.00  0.00     0.218 C
HETATM    5  C6  UNL     1      25.622  -9.976  -3.334  1.00  0.00     0.217 C
ENDROOT
BRANCH   1   6
HETATM    6  C1  UNL     1      26.364  -9.188  -5.530  1.00  0.00     0.179 C
BRANCH   6   7
HETATM    7  N2  UNL     1      26.661  -7.923  -4.967  1.00  0.00    -0.340 N
HETATM    8  N1  UNL     1      25.950  -6.950  -5.230  1.00  0.00    -0.349 N
ATOM      9  H12 UNL     1      25.153  -7.073  -5.855  1.00  0.00     0.176 HD
ATOM     10  H11 UNL     1      26.164  -6.039  -4.825  1.00  0.00     0.176 HD
ATOM     11  H2  UNL     1      27.462  -7.818  -4.344  1.00  0.00     0.179 HD
ENDBRANCH   6   7
ENDBRANCH   1   6
BRANCH   1  12
HETATM   12  O1  UNL     1      24.041  -9.208  -4.887  1.00  0.00    -0.385 OA
ATOM     13  H1  UNL     1      23.467  -9.525  -5.575  1.00  0.00     0.210 HD
ENDBRANCH   1  12
BRANCH   5  14
HETATM   14  O2  UNL     1      26.971 -10.299  -3.310  1.00  0.00    -0.277 OA
BRANCH  14  15
HETATM   15  N4  UNL     1      27.595  -9.921  -2.189  1.00  0.00    -0.311 N
ATOM     16  H42 UNL     1      27.344  -9.070  -1.687  1.00  0.00     0.184 HD
ATOM     17  H41 UNL     1      28.334 -10.561  -1.895  1.00  0.00     0.184 HD
ENDBRANCH  14  15
ENDBRANCH   5  14
BRANCH   4  18
HETATM   18  N3  UNL     1      24.989 -11.601  -1.598  1.00  0.00    -0.072 N
ATOM     19  H33 UNL     1      25.643 -12.383  -1.567  1.00  0.00     0.274 HD
ATOM     20  H32 UNL     1      25.531 -10.904  -1.088  1.00  0.00     0.274 HD
ATOM     21  H31 UNL     1      24.133 -11.830  -1.092  1.00  0.00     0.274 HD
ENDBRANCH   4  18
TORSDOF 6
ENDMDL