MODEL 4
REMARK VINA RESULT: -5.579744199      0.988      1.154
REMARK  6 active torsions:
REMARK  status: ('A' for Active; 'I' for Inactive)
REMARK    1  A    between atoms: C2_2  and  N1_3
REMARK    2  A    between atoms: N1_3  and  C3_5
REMARK    3  A    between atoms: C4_10  and  N4_11
REMARK    4  A    between atoms: N4_11  and  C5_13
REMARK    5  A    between atoms: C5_13  and  C6_14
REMARK    6  A    between atoms: C6_14  and  N5_15
ROOT
HETATM    1  C3  UNL     1      24.896 -10.118  -4.070  1.00  0.00     0.707 A
HETATM    2  N2  UNL     1      25.321 -10.647  -2.908  1.00  0.00    -0.117 N
ATOM      3  H2  UNL     1      25.694 -10.117  -2.120  1.00  0.00     0.206 HD
HETATM    4  N3  UNL     1      25.181 -11.945  -2.947  1.00  0.00    -0.117 N
ATOM      5  H3  UNL     1      25.427 -12.588  -2.193  1.00  0.00     0.206 HD
HETATM    6  C4  UNL     1      24.661 -12.301  -4.135  1.00  0.00     0.707 A
HETATM    7  N6  UNL     1      24.490 -11.154  -4.818  1.00  0.00    -0.020 N
ATOM      8  H6  UNL     1      24.109 -11.083  -5.762  1.00  0.00     0.203 HD
ENDROOT
BRANCH   6   9
HETATM    9  N4  UNL     1      24.382 -13.514  -4.535  1.00  0.00    -0.223 N
ATOM     10  H4  UNL     1      23.426 -13.867  -4.490  1.00  0.00     0.177 HD
BRANCH   9  11
HETATM   11  C5  UNL     1      25.436 -14.338  -5.035  1.00  0.00     0.165 C
BRANCH  11  12
HETATM   12  C6  UNL     1      25.068 -15.808  -5.038  1.00  0.00     0.249 C
BRANCH  12  13
HETATM   13  N5  UNL     1      23.790 -15.922  -4.344  1.00  0.00    -0.078 N
ATOM     14  H53 UNL     1      23.887 -15.992  -3.331  1.00  0.00     0.274 HD
ATOM     15  H52 UNL     1      23.244 -15.060  -4.362  1.00  0.00     0.274 HD
ATOM     16  H51 UNL     1      23.302 -16.716  -4.757  1.00  0.00     0.274 HD
ENDBRANCH  12  13
ENDBRANCH  11  12
ENDBRANCH   9  11
ENDBRANCH   6   9
BRANCH   1  17
HETATM   17  N1  UNL     1      24.887  -8.861  -4.384  1.00  0.00    -0.225 N
ATOM     18  H1  UNL     1      24.400  -8.187  -3.794  1.00  0.00     0.177 HD
BRANCH  17  19
HETATM   19  C2  UNL     1      25.575  -8.422  -5.580  1.00  0.00     0.134 C
HETATM   20  C1  UNL     1      27.063  -8.578  -5.350  1.00  0.00     0.027 C
ENDBRANCH  17  19
ENDBRANCH   1  17
TORSDOF 6
ENDMDL