MODEL 3
REMARK VINA RESULT: -6.781589065      3.119      5.436
REMARK  4 active torsions:
REMARK  status: ('A' for Active; 'I' for Inactive)
REMARK    1  A    between atoms: N1_2  and  C2_3
REMARK    2  A    between atoms: N1_2  and  C7_11
REMARK    3  A    between atoms: C2_3  and  C3_4
REMARK    4  A    between atoms: N2_8  and  O1_9
ROOT
HETATM    1  C7  UNL     1      -4.775   2.414  14.377  1.00  0.00     0.118 A
HETATM    2  C8  UNL     1      -4.393   1.376  15.165  1.00  0.00     0.126 A
HETATM    3  N3  UNL     1      -4.999   1.119  16.369  1.00  0.00    -0.340 N
ATOM      4  H3  UNL     1      -4.690   0.330  16.938  1.00  0.00     0.167 HD
HETATM    5  C9  UNL     1      -5.987   1.895  16.789  1.00  0.00     0.181 A
HETATM    6 CL1  UNL     1      -6.763   1.557  18.333  1.00  0.00    -0.045 Cl
HETATM    7  N4  UNL     1      -6.376   2.924  16.027  1.00  0.00    -0.298 N
ATOM      8  H4  UNL     1      -7.137   3.512  16.366  1.00  0.00     0.171 HD
HETATM    9  C10 UNL     1      -5.825   3.222  14.850  1.00  0.00     0.276 A
HETATM   10  O2  UNL     1      -6.219   4.202  14.154  1.00  0.00    -0.266 OA
ENDROOT
BRANCH   1  11
HETATM   11  N1  UNL     1      -4.231   2.675  13.120  1.00  0.00    -0.353 N
HETATM   12  C1  UNL     1      -4.814   1.756  12.064  1.00  0.00     0.156 C
BRANCH  11  13
HETATM   13  C2  UNL     1      -3.352   3.640  12.610  1.00  0.00     0.122 C
BRANCH  13  14
HETATM   14  C3  UNL     1      -3.034   4.874  13.291  1.00  0.00     0.073 A
HETATM   15  C4  UNL     1      -3.526   6.065  12.870  1.00  0.00     0.012 A
HETATM   16  C5  UNL     1      -3.023   7.117  13.751  1.00  0.00     0.077 A
HETATM   17  C6  UNL     1      -2.164   6.366  14.688  1.00  0.00     0.100 A
HETATM   18  N2  UNL     1      -2.195   5.108  14.404  1.00  0.00    -0.239 N
BRANCH  18  19
HETATM   19  O1  UNL     1      -1.444   4.162  15.110  1.00  0.00    -0.283 OA
ATOM     20  H1  UNL     1      -0.514   4.193  15.299  1.00  0.00     0.245 HD
ENDBRANCH  18  19
ENDBRANCH  13  14
ENDBRANCH  11  13
ENDBRANCH   1  11
TORSDOF 4
ENDMDL