MODEL 2
REMARK VINA RESULT: -7.921205801      1.399      1.758
REMARK  6 active torsions:
REMARK  status: ('A' for Active; 'I' for Inactive)
REMARK    1  A    between atoms: C2_2  and  C3_3
REMARK    2  A    between atoms: C3_3  and  C5_5
REMARK    3  A    between atoms: C8_8  and  C9_9
REMARK    4  A    between atoms: C9_9  and  O1_10
REMARK    5  A    between atoms: C9_9  and  C10_12
REMARK    6  A    between atoms: C13_16  and  C14_17
ROOT
HETATM    1  C10 UNL     1      -4.117   7.112  12.050  1.00  0.00     0.036 A
HETATM    2  C11 UNL     1      -3.239   7.169  11.008  1.00  0.00     0.063 A
HETATM    3  C12 UNL     1      -1.811   6.746  10.990  1.00  0.00     0.077 C
HETATM    4  O2  UNL     1      -3.843   7.673   9.938  1.00  0.00    -0.313 OA
HETATM    5  C13 UNL     1      -5.113   7.962  10.214  1.00  0.00     0.093 A
HETATM    6  C22 UNL     1      -5.313   7.618  11.523  1.00  0.00    -0.012 A
HETATM    7  C23 UNL     1      -6.622   7.642  12.263  1.00  0.00     0.052 C
ENDROOT
BRANCH   1   8
HETATM    8  C9  UNL     1      -3.980   6.644  13.391  1.00  0.00     0.089 C
BRANCH   8   9
HETATM    9  C8  UNL     1      -4.454   5.486  14.084  1.00  0.00    -0.002 A
HETATM   10  C7  UNL     1      -3.432   4.628  14.566  1.00  0.00     0.015 A
HETATM   11  C6  UNL     1      -3.709   3.455  15.214  1.00  0.00     0.013 A
HETATM   12  C5  UNL     1      -5.022   3.050  15.427  1.00  0.00    -0.027 A
HETATM   13  C25 UNL     1      -5.992   3.879  14.957  1.00  0.00     0.013 A
HETATM   14  C24 UNL     1      -5.719   5.071  14.298  1.00  0.00     0.015 A
BRANCH  12  15
HETATM   15  C3  UNL     1      -5.275   1.793  16.107  1.00  0.00    -0.036 C
HETATM   16  C4  UNL     1      -4.612   0.683  15.747  1.00  0.00     0.024 C
BRANCH  15  17
HETATM   17  C2  UNL     1      -6.198   1.685  17.219  1.00  0.00     0.001 C
HETATM   18  C1  UNL     1      -7.424   1.247  17.198  1.00  0.00     0.012 C
ENDBRANCH  15  17
ENDBRANCH  12  15
ENDBRANCH   8   9
BRANCH   8  19
HETATM   19  O1  UNL     1      -3.282   7.408  14.210  1.00  0.00    -0.359 OA
ATOM     20  H1  UNL     1      -2.872   8.115  13.726  1.00  0.00     0.217 HD
ENDBRANCH   8  19
ENDBRANCH   1   8
BRANCH   5  21
HETATM   21  C14 UNL     1      -5.980   8.517   9.195  1.00  0.00     0.005 C
HETATM   22  C15 UNL     1      -6.108   7.896   7.997  1.00  0.00     0.014 C
HETATM   23  C16 UNL     1      -6.997   8.457   7.025  1.00  0.00    -0.003 C
HETATM   24  C17 UNL     1      -7.730   9.529   7.214  1.00  0.00    -0.022 C
HETATM   25  C18 UNL     1      -7.688  10.253   8.513  1.00  0.00     0.066 C
HETATM   26  C19 UNL     1      -6.485   9.880   9.284  1.00  0.00    -0.046 C
HETATM   27  C20 UNL     1      -5.828  10.839   9.945  1.00  0.00    -0.023 C
HETATM   28  C21 UNL     1      -6.366  12.201  10.023  1.00  0.00     0.036 C
ENDBRANCH   5  21
TORSDOF 6
ENDMDL