MODEL 3
REMARK VINA RESULT: -7.724249720      2.215      4.186
REMARK  7 active torsions:
REMARK  status: ('A' for Active; 'I' for Inactive)
REMARK    1  A    between atoms: C2_2  and  C3_3
REMARK    2  A    between atoms: C5_5  and  C6_6
REMARK    3  A    between atoms: C11_11  and  O1_12
REMARK    4  A    between atoms: O1_12  and  C12_13
REMARK    5  A    between atoms: C12_13  and  C15_16
REMARK    6  A    between atoms: C18_19  and  C19_20
REMARK    7  A    between atoms: C19_20  and  O2_22
ROOT
HETATM    1  C3  UNL     1      -0.862   5.544   9.691  1.00  0.00    -0.052 A
HETATM    2  C4  UNL     1      -1.599   4.433  10.043  1.00  0.00     0.022 A
HETATM    3  C5  UNL     1      -2.545   4.459  11.077  1.00  0.00     0.008 A
HETATM    4  C11 UNL     1      -2.748   5.634  11.751  1.00  0.00     0.082 A
HETATM    5  C23 UNL     1      -2.009   6.778  11.416  1.00  0.00     0.045 A
HETATM    6  C24 UNL     1      -1.092   6.695  10.396  1.00  0.00    -0.053 A
HETATM    7  C25 UNL     1      -0.339   7.934  10.061  1.00  0.00     0.049 C
ENDROOT
BRANCH   4   8
HETATM    8  O1  UNL     1      -3.685   5.726  12.744  1.00  0.00    -0.335 OA
BRANCH   8   9
HETATM    9  C12 UNL     1      -3.386   5.515  14.108  1.00  0.00     0.087 C
HETATM   10  C13 UNL     1      -1.867   5.219  14.266  1.00  0.00     0.051 C
HETATM   11  C14 UNL     1      -3.486   6.853  14.875  1.00  0.00     0.051 C
BRANCH   9  12
HETATM   12  C15 UNL     1      -4.191   4.474  14.766  1.00  0.00    -0.024 A
HETATM   13  C16 UNL     1      -5.572   4.542  14.819  1.00  0.00     0.011 A
HETATM   14  C17 UNL     1      -6.345   3.546  15.442  1.00  0.00     0.010 A
HETATM   15  C18 UNL     1      -5.763   2.457  16.031  1.00  0.00    -0.030 A
HETATM   16  C21 UNL     1      -4.365   2.380  15.984  1.00  0.00     0.010 A
HETATM   17  C22 UNL     1      -3.630   3.366  15.366  1.00  0.00     0.011 A
BRANCH  15  18
HETATM   18  C19 UNL     1      -6.548   1.389  16.721  1.00  0.00     0.147 C
HETATM   19  C20 UNL     1      -6.564   1.646  18.231  1.00  0.00     0.044 C
BRANCH  18  20
HETATM   20  O2  UNL     1      -5.917   0.152  16.570  1.00  0.00    -0.391 OA
ATOM     21  H2  UNL     1      -6.479  -0.447  16.093  1.00  0.00     0.210 HD
ENDBRANCH  18  20
ENDBRANCH  15  18
ENDBRANCH   9  12
ENDBRANCH   8   9
ENDBRANCH   4   8
BRANCH   3  22
HETATM   22  C6  UNL     1      -3.213   3.214  11.436  1.00  0.00    -0.027 A
HETATM   23  C7  UNL     1      -2.968   2.271  12.290  1.00  0.00    -0.011 A
HETATM   24  C8  UNL     1      -3.989   1.181  12.269  1.00  0.00     0.055 A
HETATM   25  C9  UNL     1      -4.910   1.654  11.252  1.00  0.00    -0.022 A
HETATM   26  C10 UNL     1      -4.477   2.791  10.778  1.00  0.00     0.008 A
ENDBRANCH   3  22
BRANCH   1  27
HETATM   27  C2  UNL     1       0.136   5.432   8.574  1.00  0.00     0.034 C
HETATM   28  C1  UNL     1       1.240   4.461   8.880  1.00  0.00     0.010 C
ENDBRANCH   1  27
TORSDOF 7
ENDMDL