MODEL 5
REMARK VINA RESULT: -7.485008751      3.235      7.745
REMARK  6 active torsions:
REMARK  status: ('A' for Active; 'I' for Inactive)
REMARK    1  A    between atoms: C2_2  and  C3_3
REMARK    2  A    between atoms: C4_4  and  C5_5
REMARK    3  A    between atoms: C6_6  and  C7_7
REMARK    4  A    between atoms: C6_6  and  C8_9
REMARK    5  A    between atoms: C8_9  and  C9_11
REMARK    6  A    between atoms: C12_14  and  C13_15
ROOT
HETATM    1  C8  UNL     1      -3.307   6.910  13.805  1.00  0.00     0.195 C
HETATM    2  O2  UNL     1      -2.565   7.621  14.584  1.00  0.00    -0.287 OA
ENDROOT
BRANCH   1   3
HETATM    3  C6  UNL     1      -3.474   7.514  12.433  1.00  0.00     0.053 C
HETATM    4  C5  UNL     1      -4.415   6.967  11.700  1.00  0.00     0.026 C
BRANCH   4   5
HETATM    5  C4  UNL     1      -4.892   7.103  10.370  1.00  0.00    -0.054 A
HETATM    6  C3  UNL     1      -5.902   7.959  10.040  1.00  0.00    -0.066 A
HETATM    7  C23 UNL     1      -6.226   7.865   8.614  1.00  0.00    -0.023 A
HETATM    8  C22 UNL     1      -5.368   6.822   8.003  1.00  0.00     0.018 A
HETATM    9  C24 UNL     1      -7.684   7.401   8.437  1.00  0.00     0.019 C
HETATM   10  C25 UNL     1      -6.005   9.147   7.833  1.00  0.00     0.019 C
HETATM   11  C21 UNL     1      -4.463   6.418   9.151  1.00  0.00     0.040 A
BRANCH   6  12
HETATM   12  C2  UNL     1      -6.625   8.841  10.964  1.00  0.00     0.031 C
HETATM   13  C1  UNL     1      -7.341   8.026  12.024  1.00  0.00     0.010 C
ENDBRANCH   6  12
ENDBRANCH   4   5
BRANCH   3  14
HETATM   14  C7  UNL     1      -2.568   8.530  12.020  1.00  0.00     0.274 C
HETATM   15  O1  UNL     1      -2.647   9.696  11.660  1.00  0.00    -0.301 OA
ENDBRANCH   3  14
ENDBRANCH   1   3
BRANCH   1  16
HETATM   16  C9  UNL     1      -3.841   5.707  14.326  1.00  0.00     0.015 A
HETATM   17  C10 UNL     1      -5.214   5.671  14.669  1.00  0.00     0.016 A
HETATM   18  C11 UNL     1      -5.748   4.586  15.276  1.00  0.00     0.009 A
HETATM   19  C12 UNL     1      -5.000   3.480  15.588  1.00  0.00    -0.050 A
HETATM   20  C19 UNL     1      -3.673   3.512  15.258  1.00  0.00     0.009 A
HETATM   21  C20 UNL     1      -3.097   4.595  14.643  1.00  0.00     0.016 A
BRANCH  19  22
HETATM   22  C13 UNL     1      -5.644   2.337  16.247  1.00  0.00    -0.017 C
HETATM   23  C14 UNL     1      -4.971   1.043  15.888  1.00  0.00     0.020 C
HETATM   24  C15 UNL     1      -7.138   2.259  16.033  1.00  0.00     0.014 C
HETATM   25  C16 UNL     1      -7.510   1.178  17.052  1.00  0.00     0.001 C
HETATM   26  C17 UNL     1      -6.557   1.398  18.207  1.00  0.00     0.001 C
HETATM   27  C18 UNL     1      -5.577   2.460  17.763  1.00  0.00     0.014 C
ENDBRANCH  19  22
ENDBRANCH   1  16
TORSDOF 6
ENDMDL