MODEL 1
REMARK VINA RESULT: -8.586125551      0.000      0.000
REMARK  9 active torsions:
REMARK  status: ('A' for Active; 'I' for Inactive)
REMARK    1  A    between atoms: C4_4  and  C5_5
REMARK    2  A    between atoms: C5_5  and  C6_6
REMARK    3  A    between atoms: C6_6  and  C7_7
REMARK    4  A    between atoms: C7_7  and  C8_8
REMARK    5  A    between atoms: C17_17  and  C18_18
REMARK    6  A    between atoms: C18_18  and  O1_19
REMARK    7  A    between atoms: C18_18  and  C19_21
REMARK    8  A    between atoms: C23_25  and  C24_26
REMARK    9  A    between atoms: C24_26  and  O2_27
ROOT
HETATM    1  C1  UNL     1      -7.459   7.884  12.245  1.00  0.00     0.049 C
HETATM    2  C2  UNL     1      -6.150   7.339  11.714  1.00  0.00    -0.049 C
HETATM    3  C3  UNL     1      -5.306   6.864  12.651  1.00  0.00     0.015 C
HETATM    4  C4  UNL     1      -4.033   6.338  12.249  1.00  0.00    -0.054 C
HETATM    5  C15 UNL     1      -3.924   5.710  10.931  1.00  0.00     0.066 C
HETATM    6  C16 UNL     1      -4.853   6.297   9.974  1.00  0.00    -0.008 C
HETATM    7  C17 UNL     1      -5.917   7.068  10.312  1.00  0.00     0.000 C
ENDROOT
BRANCH   7   8
HETATM    8  C18 UNL     1      -6.766   7.440   9.219  1.00  0.00     0.086 C
BRANCH   8   9
HETATM    9  O1  UNL     1      -7.221   6.432   8.486  1.00  0.00    -0.359 OA
ATOM     10  H1  UNL     1      -8.132   6.498   8.226  1.00  0.00     0.217 HD
ENDBRANCH   8   9
BRANCH   8  11
HETATM   11  C19 UNL     1      -7.239   8.705   8.722  1.00  0.00    -0.002 A
HETATM   12  C20 UNL     1      -6.523   9.887   9.011  1.00  0.00     0.014 A
HETATM   13  C21 UNL     1      -6.993  11.136   8.722  1.00  0.00     0.002 A
HETATM   14  C22 UNL     1      -8.217  11.313   8.120  1.00  0.00     0.009 A
HETATM   15  C23 UNL     1      -8.933  10.183   7.829  1.00  0.00    -0.034 A
HETATM   16  C25 UNL     1      -8.458   8.917   8.123  1.00  0.00     0.023 A
BRANCH  15  17
HETATM   17  C24 UNL     1     -10.259  10.327   7.178  1.00  0.00     0.202 C
BRANCH  17  18
HETATM   18  O2  UNL     1     -11.253   9.681   7.893  1.00  0.00    -0.396 OA
ATOM     19  H2  UNL     1     -10.891   9.101   8.551  1.00  0.00     0.209 HD
ENDBRANCH  17  18
ENDBRANCH  15  17
ENDBRANCH   8  11
ENDBRANCH   7   8
BRANCH   4  20
HETATM   20  C5  UNL     1      -2.955   6.444  13.064  1.00  0.00     0.007 C
BRANCH  20  21
HETATM   21  C6  UNL     1      -2.810   5.582  14.190  1.00  0.00     0.001 C
BRANCH  21  22
HETATM   22  C7  UNL     1      -3.130   4.374  14.368  1.00  0.00     0.011 C
BRANCH  22  23
HETATM   23  C8  UNL     1      -4.184   3.705  15.070  1.00  0.00    -0.036 A
HETATM   24  C9  UNL     1      -5.509   4.053  15.042  1.00  0.00     0.012 A
HETATM   25  C10 UNL     1      -6.484   3.327  15.699  1.00  0.00     0.007 A
HETATM   26  C11 UNL     1      -6.181   2.209  16.426  1.00  0.00    -0.062 A
HETATM   27  C12 UNL     1      -7.235   1.431  17.131  1.00  0.00     0.048 C
HETATM   28  C13 UNL     1      -4.864   1.850  16.464  1.00  0.00     0.007 A
HETATM   29  C14 UNL     1      -3.896   2.553  15.823  1.00  0.00     0.012 A
ENDBRANCH  22  23
ENDBRANCH  21  22
ENDBRANCH  20  21
ENDBRANCH   4  20
TORSDOF 9
ENDMDL