MODEL 5
REMARK VINA RESULT: -8.312409920      2.468      7.246
REMARK  7 active torsions:
REMARK  status: ('A' for Active; 'I' for Inactive)
REMARK    1  A    between atoms: C3_3  and  C4_4
REMARK    2  A    between atoms: C4_4  and  C15_18
REMARK    3  A    between atoms: C5_5  and  C6_6
REMARK    4  A    between atoms: C6_6  and  C7_7
REMARK    5  A    between atoms: C8_9  and  C9_10
REMARK    6  A    between atoms: C14_15  and  O2_16
REMARK    7  A    between atoms: C18_21  and  C19_22
ROOT
HETATM    1  C4  UNL     1      -4.418   6.707  12.558  1.00  0.00    -0.025 C
HETATM    2  C5  UNL     1      -3.259   7.308  12.692  1.00  0.00     0.026 C
ENDROOT
BRANCH   1   3
HETATM    3  C3  UNL     1      -5.163   7.014  11.316  1.00  0.00     0.008 C
HETATM    4  C2  UNL     1      -6.266   7.581  11.091  1.00  0.00    -0.030 C
HETATM    5  C1  UNL     1      -7.276   8.170  11.965  1.00  0.00     0.036 C
ENDBRANCH   1   3
BRANCH   1   6
HETATM    6  C15 UNL     1      -4.884   5.688  13.439  1.00  0.00    -0.026 A
HETATM    7  C16 UNL     1      -4.360   4.397  13.258  1.00  0.00     0.013 A
HETATM    8  C17 UNL     1      -4.724   3.403  14.133  1.00  0.00     0.013 A
HETATM    9  C18 UNL     1      -5.570   3.580  15.182  1.00  0.00    -0.026 A
HETATM   10  C24 UNL     1      -6.095   4.844  15.376  1.00  0.00     0.013 A
HETATM   11  C25 UNL     1      -5.753   5.868  14.518  1.00  0.00     0.013 A
BRANCH   9  12
HETATM   12  C19 UNL     1      -5.940   2.483  16.099  1.00  0.00    -0.030 A
HETATM   13  C20 UNL     1      -5.186   1.432  16.354  1.00  0.00    -0.011 A
HETATM   14  C21 UNL     1      -5.891   0.561  17.314  1.00  0.00     0.055 A
HETATM   15  C22 UNL     1      -7.158   1.267  17.572  1.00  0.00    -0.022 A
HETATM   16  C23 UNL     1      -7.154   2.372  16.855  1.00  0.00     0.008 A
ENDBRANCH   9  12
ENDBRANCH   1   6
BRANCH   2  17
HETATM   17  C6  UNL     1      -2.239   7.349  13.657  1.00  0.00     0.003 C
HETATM   18  C8  UNL     1      -1.022   6.833  13.396  1.00  0.00     0.028 C
BRANCH  17  19
HETATM   19  C7  UNL     1      -2.341   8.056  14.931  1.00  0.00     0.269 C
HETATM   20  O1  UNL     1      -1.235   8.535  15.400  1.00  0.00    -0.301 OA
ENDBRANCH  17  19
BRANCH  18  21
HETATM   21  C9  UNL     1      -0.605   6.214  12.184  1.00  0.00    -0.002 A
HETATM   22  C10 UNL     1      -0.186   6.955  11.101  1.00  0.00     0.014 A
HETATM   23  C11 UNL     1       0.198   6.325   9.943  1.00  0.00     0.001 A
HETATM   24  C12 UNL     1       0.188   4.955   9.798  1.00  0.00     0.003 A
HETATM   25  C13 UNL     1      -0.230   4.217  10.878  1.00  0.00     0.037 A
HETATM   26  C14 UNL     1      -0.622   4.814  12.052  1.00  0.00     0.075 A
BRANCH  26  27
HETATM   27  O2  UNL     1      -1.045   4.080  13.150  1.00  0.00    -0.360 OA
ATOM     28  H2  UNL     1      -1.982   3.960  13.256  1.00  0.00     0.217 HD
ENDBRANCH  26  27
ENDBRANCH  18  21
ENDBRANCH   2  17
TORSDOF 7
ENDMDL