MODEL 3
REMARK VINA RESULT: -7.578893450      1.126      2.108
REMARK  6 active torsions:
REMARK  status: ('A' for Active; 'I' for Inactive)
REMARK    1  A    between atoms: C3_3  and  C5_5
REMARK    2  A    between atoms: C5_5  and  C6_6
REMARK    3  A    between atoms: C6_6  and  C7_7
REMARK    4  A    between atoms: C7_7  and  C8_8
REMARK    5  A    between atoms: C13_13  and  C14_14
REMARK    6  A    between atoms: C14_14  and  C15_15
ROOT
HETATM    1  C14 UNL     1      -5.083   6.587  11.942  1.00  0.00    -0.116 C
ENDROOT
BRANCH   1   2
HETATM    2  C13 UNL     1      -5.428   7.772  11.400  1.00  0.00     0.064 C
HETATM    3  C12 UNL     1      -4.549   8.764  11.097  1.00  0.00    -0.044 C
HETATM    4  C8  UNL     1      -4.938  10.034  10.510  1.00  0.00    -0.055 C
HETATM    5  C11 UNL     1      -3.095   8.795  11.294  1.00  0.00     0.043 C
HETATM    6  C9  UNL     1      -3.868  10.710  10.135  1.00  0.00    -0.019 C
HETATM    7  C10 UNL     1      -2.638   9.943  10.436  1.00  0.00     0.032 C
BRANCH   4   8
HETATM    8  C7  UNL     1      -6.356  10.518  10.353  1.00  0.00     0.039 C
BRANCH   8   9
HETATM    9  C6  UNL     1      -6.583  10.863   8.931  1.00  0.00     0.009 C
BRANCH   9  10
HETATM   10  C5  UNL     1      -6.347   9.691   7.999  1.00  0.00     0.034 C
BRANCH  10  11
HETATM   11  C3  UNL     1      -7.427   8.710   8.030  1.00  0.00    -0.088 C
HETATM   12  C2  UNL     1      -7.166   7.424   7.994  1.00  0.00    -0.029 C
HETATM   13  C1  UNL     1      -5.754   6.974   7.913  1.00  0.00     0.036 C
HETATM   14  C4  UNL     1      -8.854   9.129   8.111  1.00  0.00     0.043 C
ENDBRANCH  10  11
ENDBRANCH   9  10
ENDBRANCH   8   9
ENDBRANCH   4   8
ENDBRANCH   1   2
BRANCH   1  15
HETATM   15  C15 UNL     1      -4.750   5.440  12.466  1.00  0.00     0.045 C
HETATM   16  C16 UNL     1      -5.422   5.272  13.829  1.00  0.00     0.091 C
HETATM   17  C17 UNL     1      -5.288   3.944  14.423  1.00  0.00    -0.038 A
HETATM   18  C18 UNL     1      -6.029   3.733  15.603  1.00  0.00     0.015 A
HETATM   19  C23 UNL     1      -4.511   2.909  14.004  1.00  0.00     0.025 A
HETATM   20  C19 UNL     1      -5.964   2.553  16.290  1.00  0.00    -0.061 A
HETATM   21  C20 UNL     1      -6.771   2.382  17.541  1.00  0.00     0.048 C
HETATM   22  C21 UNL     1      -5.171   1.510  15.859  1.00  0.00     0.007 A
HETATM   23  C22 UNL     1      -4.449   1.710  14.708  1.00  0.00     0.017 A
HETATM   24  C24 UNL     1      -3.773   3.081  12.760  1.00  0.00     0.233 C
HETATM   25  O1  UNL     1      -3.038   2.170  12.330  1.00  0.00    -0.283 OA
HETATM   26  C25 UNL     1      -3.924   4.364  12.029  1.00  0.00     0.236 C
HETATM   27  O2  UNL     1      -3.261   4.487  10.944  1.00  0.00    -0.283 OA
ENDBRANCH   1  15
TORSDOF 6
ENDMDL