MODEL 4
REMARK VINA RESULT: -5.915202722      2.751      3.460
REMARK  4 active torsions:
REMARK  status: ('A' for Active; 'I' for Inactive)
REMARK    1  A    between atoms: C3_3  and  O1_4
REMARK    2  A    between atoms: C3_3  and  C4_6
REMARK    3  A    between atoms: C5_11  and  C6_12
REMARK    4  A    between atoms: C6_12  and  N3_13
ROOT
HETATM    1  C4  UNL     1      -4.391   3.250  15.294  1.00  0.00     0.157 A
HETATM    2  N1  UNL     1      -5.223   3.939  14.486  1.00  0.00    -0.282 N
ATOM      3  H1  UNL     1      -6.218   3.765  14.345  1.00  0.00     0.188 HD
HETATM    4  N2  UNL     1      -4.504   4.874  13.919  1.00  0.00    -0.285 N
ATOM      5  H2  UNL     1      -4.870   5.554  13.252  1.00  0.00     0.188 HD
HETATM    6  C5  UNL     1      -3.225   4.825  14.326  1.00  0.00     0.132 A
HETATM    7  N4  UNL     1      -3.180   3.793  15.192  1.00  0.00    -0.326 N
ATOM      8  H4  UNL     1      -2.348   3.477  15.690  1.00  0.00     0.169 HD
ENDROOT
BRANCH   6   9
HETATM    9  C6  UNL     1      -2.049   5.632  13.995  1.00  0.00     0.389 C
BRANCH   9  10
HETATM   10  N3  UNL     1      -2.280   7.035  13.888  1.00  0.00     0.020 N
HETATM   11  O2  UNL     1      -3.327   7.373  13.115  1.00  0.00    -0.064 OA
HETATM   12  C7  UNL     1      -2.621   7.506  15.242  1.00  0.00     0.312 C
HETATM   13  C8  UNL     1      -1.993   8.848  15.404  1.00  0.00     0.039 C
HETATM   14  C9  UNL     1      -1.464   9.177  14.024  1.00  0.00     0.039 C
HETATM   15  C10 UNL     1      -1.092   7.779  13.520  1.00  0.00     0.312 C
ENDBRANCH   9  10
ENDBRANCH   6   9
BRANCH   1  16
HETATM   16  C3  UNL     1      -4.717   2.108  16.145  1.00  0.00     0.133 C
HETATM   17  C2  UNL     1      -5.701   2.170  17.023  1.00  0.00     0.011 C
HETATM   18  C1  UNL     1      -6.044   1.017  17.895  1.00  0.00     0.039 C
BRANCH  16  19
HETATM   19  O1  UNL     1      -4.000   0.929  16.054  1.00  0.00    -0.238 OA
HETATM   20 CL1  UNL     1      -4.206  -0.249  14.845  1.00  0.00     0.068 Cl
ENDBRANCH  16  19
ENDBRANCH   1  16
TORSDOF 4
ENDMDL