MODEL 2
REMARK VINA RESULT: -5.499896802      3.619      4.624
REMARK  8 active torsions:
REMARK  status: ('A' for Active; 'I' for Inactive)
REMARK    1  A    between atoms: O1_1  and  C1_3
REMARK    2  A    between atoms: C1_3  and  C2_4
REMARK    3  A    between atoms: C1_3  and  N1_10
REMARK    4  A    between atoms: C2_4  and  C3_5
REMARK    5  A    between atoms: C3_5  and  C4_6
REMARK    6  A    between atoms: C4_6  and  C5_7
REMARK    7  A    between atoms: C5_7  and  C6_8
REMARK    8  A    between atoms: N4_18  and  O2_19
ROOT
HETATM    1  N1  UNL     1      -5.017   2.796  15.056  1.00  0.00    -0.213 N
HETATM    2  N2  UNL     1      -4.344   1.807  14.559  1.00  0.00    -0.299 N
ATOM      3  H2  UNL     1      -3.777   1.885  13.715  1.00  0.00     0.186 HD
HETATM    4  C7  UNL     1      -4.462   0.688  15.249  1.00  0.00     0.141 A
HETATM    5  C8  UNL     1      -5.301   0.985  16.304  1.00  0.00     0.099 A
HETATM    6  N3  UNL     1      -5.917   0.501  17.404  1.00  0.00    -0.346 N
ATOM      7  H3  UNL     1      -5.844  -0.457  17.745  1.00  0.00     0.167 HD
HETATM    8  C9  UNL     1      -6.637   1.467  17.976  1.00  0.00     0.216 A
HETATM    9  N4  UNL     1      -6.461   2.572  17.212  1.00  0.00    -0.199 N
HETATM   10  C10 UNL     1      -5.643   2.310  16.172  1.00  0.00     0.185 A
ENDROOT
BRANCH   1  11
HETATM   11  C1  UNL     1      -5.137   4.138  14.599  1.00  0.00     0.163 C
BRANCH  11  12
HETATM   12  O1  UNL     1      -6.356   4.413  14.143  1.00  0.00    -0.345 OA
ATOM     13  H1  UNL     1      -6.940   3.663  14.146  1.00  0.00     0.219 HD
ENDBRANCH  11  12
BRANCH  11  14
HETATM   14  C2  UNL     1      -4.257   5.224  14.528  1.00  0.00     0.058 C
BRANCH  14  15
HETATM   15  C3  UNL     1      -3.019   5.483  14.539  1.00  0.00     0.004 C
BRANCH  15  16
HETATM   16  C4  UNL     1      -2.168   6.627  14.543  1.00  0.00     0.001 C
BRANCH  16  17
HETATM   17  C5  UNL     1      -2.459   7.839  14.916  1.00  0.00     0.012 C
BRANCH  17  18
HETATM   18  C6  UNL     1      -1.844   8.901  15.661  1.00  0.00     0.084 C
HETATM   19 CL1  UNL     1      -1.479  10.431  14.911  1.00  0.00    -0.097 Cl
ENDBRANCH  17  18
ENDBRANCH  16  17
ENDBRANCH  15  16
ENDBRANCH  14  15
ENDBRANCH  11  14
ENDBRANCH   1  11
BRANCH   9  20
HETATM   20  O2  UNL     1      -7.062   3.755  17.512  1.00  0.00    -0.280 OA
ATOM     21  H2  UNL     1      -7.055   4.488  16.908  1.00  0.00     0.245 HD
ENDBRANCH   9  20
TORSDOF 8
ENDMDL