MODEL 4
REMARK VINA RESULT: -6.390011973      2.299      2.386
REMARK  3 active torsions:
REMARK  status: ('A' for Active; 'I' for Inactive)
REMARK    1  A    between atoms: N1_3  and  O1_4
REMARK    2  A    between atoms: C5_9  and  C6_10
REMARK    3  A    between atoms: N2_11  and  C7_13
ROOT
HETATM    1  C6  UNL     1      -5.008   4.620  14.935  1.00  0.00     0.104 C
HETATM    2  N2  UNL     1      -4.702   3.377  15.020  1.00  0.00    -0.347 N
ATOM      3  H2  UNL     1      -3.924   3.017  14.467  1.00  0.00     0.167 HD
ENDROOT
BRANCH   2   4
HETATM    4  C7  UNL     1      -5.413   2.503  15.855  1.00  0.00     0.174 A
HETATM    5  N3  UNL     1      -6.677   2.791  16.215  1.00  0.00    -0.346 N
HETATM    6  C8  UNL     1      -7.409   1.990  17.014  1.00  0.00     0.107 A
ATOM      7  H3  UNL     1      -7.098   3.652  15.868  1.00  0.00     0.167 HD
HETATM    8  C9  UNL     1      -6.819   0.828  17.474  1.00  0.00     0.108 A
HETATM    9  N4  UNL     1      -5.556   0.519  17.128  1.00  0.00    -0.329 N
HETATM   10  C10 UNL     1      -4.845   1.339  16.325  1.00  0.00     0.289 A
ATOM     11  H4  UNL     1      -5.133  -0.342  17.474  1.00  0.00     0.168 HD
HETATM   12  O2  UNL     1      -3.659   1.031  16.009  1.00  0.00    -0.264 OA
ENDBRANCH   2   4
BRANCH   1  13
HETATM   13  C5  UNL     1      -4.238   5.516  14.045  1.00  0.00     0.023 A
HETATM   14  C2  UNL     1      -4.788   6.436  13.094  1.00  0.00     0.044 A
HETATM   15  C1  UNL     1      -6.257   6.653  12.832  1.00  0.00     0.071 C
HETATM   16  N1  UNL     1      -3.842   7.059  12.487  1.00  0.00    -0.260 N
HETATM   17  C3  UNL     1      -2.568   6.604  12.985  1.00  0.00     0.208 A
HETATM   18  C4  UNL     1      -2.928   5.598  13.998  1.00  0.00     0.045 A
HETATM   19 CL1  UNL     1      -1.795   4.677  14.966  1.00  0.00    -0.086 Cl
BRANCH  16  20
HETATM   20  O1  UNL     1      -4.067   8.017  11.506  1.00  0.00    -0.287 OA
ATOM     21  H1  UNL     1      -3.369   8.500  11.079  1.00  0.00     0.244 HD
ENDBRANCH  16  20
ENDBRANCH   1  13
TORSDOF 3
ENDMDL