MODEL 1
REMARK VINA RESULT: -7.531015776      0.000      0.000
REMARK  16 active torsions:
REMARK  status: ('A' for Active; 'I' for Inactive)
REMARK       I    between atoms: C1_2  and  N2_4
REMARK    1  A    between atoms: N2_4  and  C2_6
REMARK    2  A    between atoms: C2_6  and  C3_7
REMARK    3  A    between atoms: C3_7  and  C4_8
REMARK    4  A    between atoms: C4_8  and  C5_9
REMARK    5  A    between atoms: C5_9  and  C6_10
REMARK    6  A    between atoms: C6_10  and  C7_11
REMARK    7  A    between atoms: C8_12  and  C9_13
REMARK    8  A    between atoms: C9_13  and  C10_14
REMARK    9  A    between atoms: C11_15  and  C12_16
REMARK   10  A    between atoms: C12_16  and  C13_17
REMARK   11  A    between atoms: C14_18  and  C15_19
REMARK   12  A    between atoms: C15_19  and  C16_20
REMARK   13  A    between atoms: C16_20  and  C17_21
REMARK   14  A    between atoms: C17_21  and  C18_22
REMARK   15  A    between atoms: C18_22  and  O3_24
REMARK   16  A    between atoms: O3_24  and  C19_25
ROOT
HETATM    1  C10 UNL     1      -2.442  17.203  12.430  1.00  0.00    -0.027 C
HETATM    2  C11 UNL     1      -1.825  16.167  12.943  1.00  0.00    -0.027 C
ENDROOT
BRANCH   1   3
HETATM    3  C9  UNL     1      -2.019  17.994  11.234  1.00  0.00     0.053 C
BRANCH   3   4
HETATM    4  C8  UNL     1      -3.130  18.799  10.703  1.00  0.00    -0.027 C
HETATM    5  C7  UNL     1      -3.409  20.009  11.054  1.00  0.00    -0.030 C
BRANCH   5   6
HETATM    6  C6  UNL     1      -2.676  20.806  12.041  1.00  0.00     0.027 C
BRANCH   6   7
HETATM    7  C5  UNL     1      -3.531  20.801  13.325  1.00  0.00     0.004 C
BRANCH   7   8
HETATM    8  C4  UNL     1      -2.562  20.796  14.464  1.00  0.00     0.002 C
BRANCH   8   9
HETATM    9  C3  UNL     1      -1.573  19.656  14.415  1.00  0.00     0.020 C
BRANCH   9  10
HETATM   10  C2  UNL     1      -0.174  20.204  14.381  1.00  0.00     0.124 C
BRANCH  10  11
HETATM   11  N2  UNL     1       0.689  19.522  13.445  1.00  0.00    -0.345 N
HETATM   12  C1  UNL     1       1.948  20.036  13.121  1.00  0.00     0.328 C
HETATM   13  N1  UNL     1       2.781  19.361  12.194  1.00  0.00    -0.040 NA
HETATM   14  O1  UNL     1       2.376  21.083  13.621  1.00  0.00    -0.251 OA
ATOM     15  H2  UNL     1       0.375  18.652  13.014  1.00  0.00     0.163 HD
ENDBRANCH  10  11
ENDBRANCH   9  10
ENDBRANCH   8   9
ENDBRANCH   7   8
ENDBRANCH   6   7
ENDBRANCH   5   6
ENDBRANCH   3   4
ENDBRANCH   1   3
BRANCH   2  16
HETATM   16  C12 UNL     1      -0.573  15.541  12.467  1.00  0.00     0.053 C
BRANCH  16  17
HETATM   17  C13 UNL     1      -0.846  14.089  12.201  1.00  0.00    -0.027 C
HETATM   18  C14 UNL     1      -2.069  13.620  12.188  1.00  0.00    -0.030 C
BRANCH  18  19
HETATM   19  C15 UNL     1      -2.298  12.153  11.917  1.00  0.00     0.027 C
BRANCH  19  20
HETATM   20  C16 UNL     1      -3.728  11.991  11.540  1.00  0.00     0.013 C
BRANCH  20  21
HETATM   21  C17 UNL     1      -4.413  13.312  11.397  1.00  0.00     0.111 C
BRANCH  21  22
HETATM   22  C18 UNL     1      -4.878  13.531  10.029  1.00  0.00     0.259 C
HETATM   23  O2  UNL     1      -6.039  13.859   9.753  1.00  0.00    -0.265 OA
BRANCH  22  24
HETATM   24  O3  UNL     1      -3.982  13.365   8.976  1.00  0.00    -0.316 OA
BRANCH  24  25
HETATM   25  C19 UNL     1      -3.546  14.449   8.179  1.00  0.00     0.132 A
HETATM   26  C20 UNL     1      -2.240  15.091   8.716  1.00  0.00     0.035 A
HETATM   27  C21 UNL     1      -3.550  15.786   8.784  1.00  0.00     0.035 A
ENDBRANCH  24  25
ENDBRANCH  22  24
ENDBRANCH  21  22
ENDBRANCH  20  21
ENDBRANCH  19  20
ENDBRANCH  18  19
ENDBRANCH  16  17
ENDBRANCH   2  16
TORSDOF 16
ENDMDL