MODEL 2
REMARK VINA RESULT: -6.710826441      1.429      1.982
REMARK  16 active torsions:
REMARK  status: ('A' for Active; 'I' for Inactive)
REMARK    1  A    between atoms: C2_2  and  C3_3
REMARK    2  A    between atoms: C3_3  and  C4_4
REMARK    3  A    between atoms: C4_4  and  C5_5
REMARK    4  A    between atoms: C8_8  and  O1_9
REMARK    5  A    between atoms: O1_9  and  C9_10
REMARK    6  A    between atoms: C9_10  and  C10_11
REMARK    7  A    between atoms: C10_11  and  S1_12
REMARK    8  A    between atoms: S1_12  and  C11_13
REMARK    9  A    between atoms: C11_13  and  C12_14
REMARK   10  A    between atoms: C12_14  and  N1_15
REMARK   11  A    between atoms: N1_15  and  C13_18
REMARK   12  A    between atoms: C13_18  and  C14_19
REMARK   13  A    between atoms: C14_19  and  C15_20
REMARK   14  A    between atoms: C15_20  and  N2_21
REMARK   15  A    between atoms: N2_21  and  C16_24
REMARK   16  A    between atoms: C16_24  and  C17_25
ROOT
HETATM    1  C11 UNL     1      -4.890  15.182   8.715  1.00  0.00     0.101 C
ENDROOT
BRANCH   1   2
HETATM    2  S1  UNL     1      -5.160  16.677   7.680  1.00  0.00    -0.165 SA
BRANCH   2   3
HETATM    3  C10 UNL     1      -3.504  17.125   7.002  1.00  0.00     0.100 C
BRANCH   3   4
HETATM    4  C9  UNL     1      -2.731  17.639   8.193  1.00  0.00     0.186 C
BRANCH   4   5
HETATM    5  O1  UNL     1      -3.609  18.404   8.967  1.00  0.00    -0.350 OA
BRANCH   5   6
HETATM    6  C8  UNL     1      -3.277  18.809  10.248  1.00  0.00     0.068 A
HETATM    7  C7  UNL     1      -3.516  20.056  10.772  1.00  0.00     0.037 A
HETATM    8  C6  UNL     1      -3.161  20.375  12.067  1.00  0.00     0.010 A
HETATM    9  C5  UNL     1      -2.548  19.477  12.924  1.00  0.00    -0.058 A
HETATM   10  C21 UNL     1      -2.307  18.212  12.377  1.00  0.00     0.010 A
HETATM   11  C20 UNL     1      -2.651  17.882  11.101  1.00  0.00     0.037 A
BRANCH   9  12
HETATM   12  C4  UNL     1      -2.175  19.780  14.301  1.00  0.00     0.038 C
BRANCH  12  13
HETATM   13  C3  UNL     1      -0.747  19.852  14.631  1.00  0.00     0.004 C
BRANCH  13  14
HETATM   14  C2  UNL     1       0.160  20.397  13.618  1.00  0.00    -0.004 C
HETATM   15  C1  UNL     1       1.601  20.033  13.658  1.00  0.00     0.005 C
ENDBRANCH  13  14
ENDBRANCH  12  13
ENDBRANCH   9  12
ENDBRANCH   5   6
ENDBRANCH   4   5
ENDBRANCH   3   4
ENDBRANCH   2   3
ENDBRANCH   1   2
BRANCH   1  16
HETATM   16  C12 UNL     1      -6.197  14.459   8.802  1.00  0.00     0.242 C
BRANCH  16  17
HETATM   17  N1  UNL     1      -6.061  13.026   8.860  1.00  0.00    -0.074 N
ATOM     18  H12 UNL     1      -6.676  12.607   9.557  1.00  0.00     0.277 HD
ATOM     19  H11 UNL     1      -6.445  12.567   8.033  1.00  0.00     0.277 HD
BRANCH  17  20
HETATM   20  C13 UNL     1      -4.694  12.691   9.077  1.00  0.00     0.234 C
BRANCH  20  21
HETATM   21  C14 UNL     1      -4.410  11.685  10.132  1.00  0.00     0.055 C
BRANCH  21  22
HETATM   22  C15 UNL     1      -3.553  12.133  11.266  1.00  0.00     0.233 C
BRANCH  22  23
HETATM   23  N2  UNL     1      -4.149  13.388  11.762  1.00  0.00    -0.075 N
ATOM     24  H22 UNL     1      -4.759  13.807  11.059  1.00  0.00     0.277 HD
ATOM     25  H21 UNL     1      -4.840  13.204  12.489  1.00  0.00     0.277 HD
BRANCH  23  26
HETATM   26  C16 UNL     1      -3.164  14.323  12.212  1.00  0.00     0.237 C
BRANCH  26  27
HETATM   27  C17 UNL     1      -1.800  13.891  11.694  1.00  0.00     0.011 A
HETATM   28  C18 UNL     1      -0.830  13.487  12.794  1.00  0.00     0.007 A
HETATM   29  C19 UNL     1      -0.640  14.767  12.038  1.00  0.00     0.007 A
ENDBRANCH  26  27
ENDBRANCH  23  26
ENDBRANCH  22  23
ENDBRANCH  21  22
ENDBRANCH  20  21
ENDBRANCH  17  20
ENDBRANCH  16  17
ENDBRANCH   1  16
TORSDOF 16
ENDMDL