MODEL 1
REMARK VINA RESULT: -6.406921690      0.000      0.000
REMARK  16 active torsions:
REMARK  status: ('A' for Active; 'I' for Inactive)
REMARK    1  A    between atoms: C4_4  and  O1_5
REMARK    2  A    between atoms: O1_5  and  C5_6
REMARK    3  A    between atoms: C5_6  and  C6_7
REMARK    4  A    between atoms: C6_7  and  C7_8
REMARK    5  A    between atoms: C7_8  and  C8_9
REMARK    6  A    between atoms: C8_9  and  N1_10
REMARK    7  A    between atoms: N1_10  and  C9_13
REMARK    8  A    between atoms: C9_13  and  C10_14
REMARK    9  A    between atoms: C10_14  and  C11_15
REMARK   10  A    between atoms: C11_15  and  S1_16
REMARK   11  A    between atoms: S1_16  and  C12_17
REMARK   12  A    between atoms: C12_17  and  C13_18
REMARK   13  A    between atoms: C13_18  and  N2_19
REMARK   14  A    between atoms: N2_19  and  C14_22
REMARK   15  A    between atoms: C14_22  and  C15_23
REMARK   16  A    between atoms: C15_23  and  C16_24
ROOT
HETATM    1  N1  UNL     1      -5.122  13.864   9.505  1.00  0.00    -0.075 N
ATOM      2  H11 UNL     1      -5.059  13.933  10.521  1.00  0.00     0.277 HD
ATOM      3  H12 UNL     1      -6.138  13.811   9.417  1.00  0.00     0.277 HD
ENDROOT
BRANCH   1   4
HETATM    4  C8  UNL     1      -4.476  12.655   9.006  1.00  0.00     0.232 C
BRANCH   4   5
HETATM    5  C7  UNL     1      -4.315  11.705  10.178  1.00  0.00     0.029 C
BRANCH   5   6
HETATM    6  C6  UNL     1      -3.881  12.383  11.439  1.00  0.00     0.028 C
BRANCH   6   7
HETATM    7  C5  UNL     1      -2.455  12.066  11.826  1.00  0.00     0.175 C
BRANCH   7   8
HETATM    8  O1  UNL     1      -1.862  12.985  12.625  1.00  0.00    -0.351 OA
BRANCH   8   9
HETATM    9  C4  UNL     1      -1.610  14.302  12.650  1.00  0.00     0.068 A
HETATM   10  C3  UNL     1      -0.377  14.788  12.134  1.00  0.00     0.037 A
HETATM   11  C2  UNL     1      -0.050  16.105  12.122  1.00  0.00     0.003 A
HETATM   12  C1  UNL     1      -0.923  17.042  12.621  1.00  0.00     0.000 A
HETATM   13  C20 UNL     1      -2.123  16.620  13.126  1.00  0.00     0.003 A
HETATM   14  C19 UNL     1      -2.462  15.271  13.141  1.00  0.00     0.037 A
ENDBRANCH   8   9
ENDBRANCH   7   8
ENDBRANCH   6   7
ENDBRANCH   5   6
ENDBRANCH   4   5
ENDBRANCH   1   4
BRANCH   1  15
HETATM   15  C9  UNL     1      -4.583  15.055   8.847  1.00  0.00     0.233 C
BRANCH  15  16
HETATM   16  C10 UNL     1      -3.549  15.738   9.683  1.00  0.00     0.037 C
BRANCH  16  17
HETATM   17  C11 UNL     1      -2.192  15.614   9.066  1.00  0.00     0.075 C
BRANCH  17  18
HETATM   18  S1  UNL     1      -1.675  17.081   8.252  1.00  0.00    -0.167 SA
BRANCH  18  19
HETATM   19  C12 UNL     1      -0.311  17.994   8.886  1.00  0.00     0.101 C
BRANCH  19  20
HETATM   20  C13 UNL     1      -0.717  19.288   9.583  1.00  0.00     0.242 C
BRANCH  20  21
HETATM   21  N2  UNL     1      -2.090  19.291   9.961  1.00  0.00    -0.074 N
ATOM     22  H22 UNL     1      -2.686  19.158   9.144  1.00  0.00     0.277 HD
ATOM     23  H21 UNL     1      -2.319  18.444  10.481  1.00  0.00     0.277 HD
BRANCH  21  24
HETATM   24  C14 UNL     1      -2.499  20.469  10.702  1.00  0.00     0.232 C
BRANCH  24  25
HETATM   25  C15 UNL     1      -3.205  20.029  11.969  1.00  0.00     0.032 C
BRANCH  25  26
HETATM   26  C16 UNL     1      -2.638  20.838  13.116  1.00  0.00    -0.013 A
HETATM   27  C17 UNL     1      -2.036  20.152  14.259  1.00  0.00     0.005 A
HETATM   28  C18 UNL     1      -3.401  20.737  14.435  1.00  0.00     0.005 A
ENDBRANCH  25  26
ENDBRANCH  24  25
ENDBRANCH  21  24
ENDBRANCH  20  21
ENDBRANCH  19  20
ENDBRANCH  18  19
ENDBRANCH  17  18
ENDBRANCH  16  17
ENDBRANCH  15  16
ENDBRANCH   1  15
TORSDOF 16
ENDMDL