MODEL 4
REMARK VINA RESULT: -7.305688296      1.795      7.582
REMARK  17 active torsions:
REMARK  status: ('A' for Active; 'I' for Inactive)
REMARK    1  A    between atoms: C2_2  and  C3_4
REMARK    2  A    between atoms: C3_4  and  C4_5
REMARK    3  A    between atoms: C4_5  and  C5_6
REMARK    4  A    between atoms: C5_6  and  C6_7
REMARK    5  A    between atoms: C6_7  and  C7_8
REMARK    6  A    between atoms: C7_8  and  O2_9
REMARK    7  A    between atoms: C7_8  and  C8_11
REMARK    8  A    between atoms: C8_11  and  C9_12
REMARK    9  A    between atoms: C9_12  and  C10_13
REMARK   10  A    between atoms: C10_13  and  C11_14
REMARK   11  A    between atoms: C11_14  and  C12_16
REMARK   12  A    between atoms: C13_17  and  C14_18
REMARK   13  A    between atoms: C14_18  and  C15_19
REMARK   14  A    between atoms: C16_20  and  C17_21
REMARK   15  A    between atoms: C17_21  and  C18_22
REMARK   16  A    between atoms: C18_22  and  C19_23
REMARK   17  A    between atoms: C19_23  and  C20_24
ROOT
HETATM    1  C10 UNL     1      -3.206  16.494   9.423  1.00  0.00     0.110 C
ENDROOT
BRANCH   1   2
HETATM    2  C9  UNL     1      -2.272  16.447  10.546  1.00  0.00    -0.020 C
BRANCH   2   3
HETATM    3  C8  UNL     1      -2.647  16.236  11.932  1.00  0.00     0.005 C
BRANCH   3   4
HETATM    4  C7  UNL     1      -1.947  15.377  12.858  1.00  0.00     0.163 C
BRANCH   4   5
HETATM    5  C6  UNL     1      -1.199  14.213  12.430  1.00  0.00     0.008 C
BRANCH   5   6
HETATM    6  C5  UNL     1      -1.600  12.827  12.350  1.00  0.00    -0.005 C
BRANCH   6   7
HETATM    7  C4  UNL     1      -2.756  12.190  11.767  1.00  0.00    -0.020 C
BRANCH   7   8
HETATM    8  C3  UNL     1      -3.505  12.662  10.606  1.00  0.00     0.105 C
BRANCH   8   9
HETATM    9  C2  UNL     1      -4.768  13.390  10.869  1.00  0.00     0.126 C
HETATM   10  C1  UNL     1      -5.624  13.810   9.726  1.00  0.00     0.091 C
HETATM   11  O1  UNL     1      -5.145  13.666  11.979  1.00  0.00    -0.298 OA
ENDBRANCH   8   9
ENDBRANCH   7   8
ENDBRANCH   6   7
ENDBRANCH   5   6
ENDBRANCH   4   5
BRANCH   4  12
HETATM   12  O2  UNL     1      -2.968  14.893  13.824  1.00  0.00    -0.388 OA
ATOM     13  H2  UNL     1      -3.816  15.098  13.448  1.00  0.00     0.210 HD
ENDBRANCH   4  12
ENDBRANCH   3   4
ENDBRANCH   2   3
ENDBRANCH   1   2
BRANCH   1  14
HETATM   14  C11 UNL     1      -3.554  17.960   9.220  1.00  0.00     0.152 C
HETATM   15  O3  UNL     1      -4.435  18.303   8.396  1.00  0.00    -0.293 OA
BRANCH  14  16
HETATM   16  C12 UNL     1      -2.871  18.989   9.977  1.00  0.00     0.046 C
HETATM   17  C13 UNL     1      -3.492  19.722  10.865  1.00  0.00    -0.019 C
BRANCH  17  18
HETATM   18  C14 UNL     1      -2.797  20.783  11.649  1.00  0.00     0.054 C
BRANCH  18  19
HETATM   19  C15 UNL     1      -3.342  20.716  13.014  1.00  0.00    -0.027 C
HETATM   20  C16 UNL     1      -2.819  20.033  13.972  1.00  0.00    -0.030 C
BRANCH  20  21
HETATM   21  C17 UNL     1      -1.609  19.200  13.918  1.00  0.00     0.027 C
BRANCH  21  22
HETATM   22  C18 UNL     1      -0.397  19.986  14.393  1.00  0.00     0.014 C
BRANCH  22  23
HETATM   23  C19 UNL     1       0.371  20.496  13.228  1.00  0.00     0.113 C
BRANCH  23  24
HETATM   24  C20 UNL     1       1.813  20.376  13.416  1.00  0.00     0.172 C
HETATM   25  O4  UNL     1       2.353  19.252  13.600  1.00  0.00    -0.648 OA
HETATM   26  O5  UNL     1       2.633  21.477  13.397  1.00  0.00    -0.648 OA
ENDBRANCH  23  24
ENDBRANCH  22  23
ENDBRANCH  21  22
ENDBRANCH  20  21
ENDBRANCH  18  19
ENDBRANCH  17  18
ENDBRANCH  14  16
ENDBRANCH   1  14
TORSDOF 17
ENDMDL