MODEL 4
REMARK VINA RESULT: -6.399461051      1.928      5.596
REMARK  15 active torsions:
REMARK  status: ('A' for Active; 'I' for Inactive)
REMARK    1  A    between atoms: C4_4  and  O1_5
REMARK    2  A    between atoms: O1_5  and  C5_6
REMARK    3  A    between atoms: C5_6  and  C6_7
REMARK    4  A    between atoms: C6_7  and  O2_8
REMARK    5  A    between atoms: O2_8  and  C7_9
REMARK    6  A    between atoms: C7_9  and  C8_10
REMARK    7  A    between atoms: C8_10  and  C9_11
REMARK    8  A    between atoms: C9_11  and  N1_12
REMARK    9  A    between atoms: N1_12  and  C10_14
REMARK   10  A    between atoms: C10_14  and  C11_15
REMARK   11  A    between atoms: C11_15  and  C12_16
REMARK   12  A    between atoms: C12_16  and  C13_17
REMARK   13  A    between atoms: C13_17  and  N2_18
REMARK   14  A    between atoms: N2_18  and  C14_20
REMARK   15  A    between atoms: C14_20  and  C15_21
ROOT
HETATM    1  N1  UNL     1      -2.062  18.126   9.417  1.00  0.00    -0.382 N
ATOM      2  H1  UNL     1      -1.273  17.837   8.838  1.00  0.00     0.163 HD
ENDROOT
BRANCH   1   3
HETATM    3  C9  UNL     1      -2.054  19.392   9.954  1.00  0.00     0.062 C
BRANCH   3   4
HETATM    4  C8  UNL     1      -3.243  19.740  10.798  1.00  0.00     0.070 C
BRANCH   4   5
HETATM    5  C7  UNL     1      -2.801  20.792  11.792  1.00  0.00     0.172 C
BRANCH   5   6
HETATM    6  O2  UNL     1      -3.557  21.000  12.862  1.00  0.00    -0.389 OA
BRANCH   6   7
HETATM    7  C6  UNL     1      -3.219  20.799  14.126  1.00  0.00     0.194 C
BRANCH   7   8
HETATM    8  C5  UNL     1      -1.942  20.028  14.295  1.00  0.00     0.201 C
BRANCH   8   9
HETATM    9  O1  UNL     1      -2.139  18.659  14.107  1.00  0.00    -0.349 OA
BRANCH   9  10
HETATM   10  C4  UNL     1      -1.272  17.897  13.329  1.00  0.00     0.068 A
HETATM   11  C3  UNL     1      -0.095  18.399  12.817  1.00  0.00     0.037 A
HETATM   12  C2  UNL     1       0.730  17.604  12.053  1.00  0.00     0.003 A
HETATM   13  C1  UNL     1       0.432  16.290  11.762  1.00  0.00     0.000 A
HETATM   14  C21 UNL     1      -0.749  15.785  12.274  1.00  0.00     0.003 A
HETATM   15  C20 UNL     1      -1.578  16.588  13.044  1.00  0.00     0.037 A
ENDBRANCH   9  10
ENDBRANCH   8   9
ENDBRANCH   7   8
ENDBRANCH   6   7
ENDBRANCH   5   6
ENDBRANCH   4   5
ENDBRANCH   3   4
ENDBRANCH   1   3
BRANCH   1  16
HETATM   16  C10 UNL     1      -3.095  17.222   9.627  1.00  0.00     0.060 C
BRANCH  16  17
HETATM   17  C11 UNL     1      -3.978  16.770   8.543  1.00  0.00     0.049 C
BRANCH  17  18
HETATM   18  C12 UNL     1      -4.448  15.365   8.578  1.00  0.00     0.049 C
BRANCH  18  19
HETATM   19  C13 UNL     1      -5.889  15.022   8.627  1.00  0.00     0.056 C
BRANCH  19  20
HETATM   20  N2  UNL     1      -6.276  13.858   9.301  1.00  0.00    -0.402 N
ATOM     21  H2  UNL     1      -7.231  13.772   9.651  1.00  0.00     0.158 HD
BRANCH  20  22
HETATM   22  C14 UNL     1      -5.354  12.790   9.503  1.00  0.00     0.123 C
BRANCH  22  23
HETATM   23  C15 UNL     1      -5.121  12.241  10.853  1.00  0.00     0.003 C
HETATM   24  C16 UNL     1      -5.144  13.120  12.044  1.00  0.00     0.006 C
HETATM   25  C17 UNL     1      -3.882  13.951  11.892  1.00  0.00     0.000 C
HETATM   26  C18 UNL     1      -2.929  13.073  11.094  1.00  0.00     0.000 C
HETATM   27  C19 UNL     1      -3.648  11.759  10.901  1.00  0.00     0.006 C
ENDBRANCH  22  23
ENDBRANCH  20  22
ENDBRANCH  19  20
ENDBRANCH  18  19
ENDBRANCH  17  18
ENDBRANCH  16  17
ENDBRANCH   1  16
TORSDOF 15
ENDMDL