MODEL 3
REMARK VINA RESULT: -6.568633173      2.118      4.076
REMARK  16 active torsions:
REMARK  status: ('A' for Active; 'I' for Inactive)
REMARK    1  A    between atoms: C2_2  and  C3_3
REMARK    2  A    between atoms: C5_5  and  N1_6
REMARK    3  A    between atoms: N1_6  and  C6_9
REMARK    4  A    between atoms: C6_9  and  C7_10
REMARK    5  A    between atoms: C7_10  and  C8_11
REMARK    6  A    between atoms: C8_11  and  N2_12
REMARK    7  A    between atoms: N2_12  and  C9_14
REMARK    8  A    between atoms: C9_14  and  C10_15
REMARK    9  A    between atoms: C10_15  and  C11_16
REMARK   10  A    between atoms: C11_16  and  C12_17
REMARK   11  A    between atoms: C12_17  and  C13_18
REMARK   12  A    between atoms: C13_18  and  C14_19
REMARK   13  A    between atoms: C14_19  and  C16_21
REMARK   14  A    between atoms: C16_21  and  C17_22
REMARK   15  A    between atoms: C17_22  and  O2_24
REMARK   16  A    between atoms: O2_24  and  C18_25
ROOT
HETATM    1  C9  UNL     1      -1.421  14.394  12.312  1.00  0.00     0.055 C
ENDROOT
BRANCH   1   2
HETATM    2  N2  UNL     1      -1.989  13.483  11.425  1.00  0.00    -0.402 N
ATOM      3  H2  UNL     1      -2.064  13.722  10.436  1.00  0.00     0.158 HD
BRANCH   2   4
HETATM    4  C8  UNL     1      -2.462  12.234  11.879  1.00  0.00     0.120 C
BRANCH   4   5
HETATM    5  C7  UNL     1      -3.643  11.866  10.957  1.00  0.00     0.047 C
BRANCH   5   6
HETATM    6  C6  UNL     1      -4.960  12.134  11.607  1.00  0.00     0.234 C
BRANCH   6   7
HETATM    7  N1  UNL     1      -5.371  13.505  11.258  1.00  0.00    -0.070 N
ATOM      8  H12 UNL     1      -4.866  14.234  11.760  1.00  0.00     0.277 HD
ATOM      9  H11 UNL     1      -6.299  13.762  11.593  1.00  0.00     0.277 HD
BRANCH   7  10
HETATM   10  C5  UNL     1      -5.221  13.562   9.798  1.00  0.00     0.190 A
HETATM   11  C3  UNL     1      -4.639  14.930   9.308  1.00  0.00     0.018 A
HETATM   12  C4  UNL     1      -6.014  14.503   8.984  1.00  0.00     0.040 A
BRANCH  11  13
HETATM   13  C2  UNL     1      -3.492  14.848   8.365  1.00  0.00     0.002 C
HETATM   14  C1  UNL     1      -3.397  16.017   7.421  1.00  0.00     0.005 C
ENDBRANCH  11  13
ENDBRANCH   7  10
ENDBRANCH   6   7
ENDBRANCH   5   6
ENDBRANCH   4   5
ENDBRANCH   2   4
ENDBRANCH   1   2
BRANCH   1  15
HETATM   15  C10 UNL     1      -2.213  15.205  13.231  1.00  0.00     0.044 C
BRANCH  15  16
HETATM   16  C11 UNL     1      -2.311  16.690  13.054  1.00  0.00     0.005 C
BRANCH  16  17
HETATM   17  C12 UNL     1      -1.869  17.202  11.762  1.00  0.00     0.001 C
BRANCH  17  18
HETATM   18  C13 UNL     1      -2.810  17.706  10.751  1.00  0.00     0.005 C
BRANCH  18  19
HETATM   19  C14 UNL     1      -2.746  19.126  10.309  1.00  0.00    -0.009 C
HETATM   20  C15 UNL     1      -3.739  19.134   9.062  1.00  0.00     0.010 C
BRANCH  19  21
HETATM   21  C16 UNL     1      -3.523  19.979  11.294  1.00  0.00     0.115 C
BRANCH  21  22
HETATM   22  C17 UNL     1      -2.666  20.788  12.197  1.00  0.00     0.259 C
HETATM   23  O1  UNL     1      -3.187  21.310  13.224  1.00  0.00    -0.265 OA
BRANCH  22  24
HETATM   24  O2  UNL     1      -1.347  20.992  11.964  1.00  0.00    -0.316 OA
BRANCH  24  25
HETATM   25  C18 UNL     1      -0.338  21.101  12.935  1.00  0.00     0.132 A
HETATM   26  C19 UNL     1       1.071  21.097  12.484  1.00  0.00     0.032 A
HETATM   27  C20 UNL     1       1.337  19.853  13.280  1.00  0.00     0.005 A
HETATM   28  C21 UNL     1      -0.102  19.812  13.718  1.00  0.00     0.032 A
ENDBRANCH  24  25
ENDBRANCH  22  24
ENDBRANCH  21  22
ENDBRANCH  19  21
ENDBRANCH  18  19
ENDBRANCH  17  18
ENDBRANCH  16  17
ENDBRANCH  15  16
ENDBRANCH   1  15
TORSDOF 16
ENDMDL