MODEL 1
REMARK VINA RESULT: -6.517009344      0.000      0.000
REMARK  17 active torsions:
REMARK  status: ('A' for Active; 'I' for Inactive)
REMARK    1  A    between atoms: N1_1  and  C1_5
REMARK    2  A    between atoms: C1_5  and  C2_6
REMARK    3  A    between atoms: C2_6  and  C3_7
REMARK    4  A    between atoms: C3_7  and  C4_8
REMARK    5  A    between atoms: C4_8  and  N2_9
REMARK    6  A    between atoms: N2_9  and  C5_12
REMARK    7  A    between atoms: C5_12  and  O1_13
REMARK    8  A    between atoms: O1_13  and  C6_14
REMARK    9  A    between atoms: C6_14  and  C7_15
REMARK   10  A    between atoms: C7_15  and  C8_16
REMARK   11  A    between atoms: C8_16  and  C9_17
REMARK   12  A    between atoms: C14_22  and  C15_23
REMARK   13  A    between atoms: C15_23  and  C16_24
REMARK   14  A    between atoms: C17_25  and  C18_26
REMARK   15  A    between atoms: C18_26  and  C19_27
REMARK   16  A    between atoms: C19_27  and  C20_28
REMARK   17  A    between atoms: C20_28  and  C21_29
ROOT
HETATM    1  C7  UNL     1      -3.549  18.954   9.976  1.00  0.00     0.027 C
ENDROOT
BRANCH   1   2
HETATM    2  C6  UNL     1      -2.802  18.435   8.797  1.00  0.00     0.170 C
BRANCH   2   3
HETATM    3  O1  UNL     1      -3.250  17.199   8.342  1.00  0.00    -0.364 OA
BRANCH   3   4
HETATM    4  C5  UNL     1      -2.612  16.203   9.039  1.00  0.00     0.399 C
BRANCH   4   5
HETATM    5  N2  UNL     1      -3.503  15.289   9.693  1.00  0.00    -0.054 N
ATOM      6  H22 UNL     1      -3.700  15.600  10.645  1.00  0.00     0.279 HD
ATOM      7  H21 UNL     1      -3.030  14.409   9.894  1.00  0.00     0.279 HD
BRANCH   5   8
HETATM    8  C4  UNL     1      -4.718  15.054   8.980  1.00  0.00     0.235 C
BRANCH   8   9
HETATM    9  C3  UNL     1      -5.309  13.706   9.261  1.00  0.00     0.029 C
BRANCH   9  10
HETATM   10  C2  UNL     1      -4.270  12.633   9.207  1.00  0.00     0.029 C
BRANCH  10  11
HETATM   11  C1  UNL     1      -4.241  11.763  10.430  1.00  0.00     0.229 C
BRANCH  11  12
HETATM   12  N1  UNL     1      -5.123  12.233  11.470  1.00  0.00    -0.079 N
ATOM     13  H13 UNL     1      -4.608  12.412  12.333  1.00  0.00     0.274 HD
ATOM     14  H12 UNL     1      -5.449  13.180  11.273  1.00  0.00     0.274 HD
ATOM     15  H11 UNL     1      -5.907  11.603  11.636  1.00  0.00     0.274 HD
ENDBRANCH  11  12
ENDBRANCH  10  11
ENDBRANCH   9  10
ENDBRANCH   8   9
ENDBRANCH   5   8
ENDBRANCH   4   5
ENDBRANCH   3   4
ENDBRANCH   2   3
ENDBRANCH   1   2
BRANCH   1  16
HETATM   16  C8  UNL     1      -3.104  20.185  10.632  1.00  0.00     0.011 C
BRANCH  16  17
HETATM   17  C9  UNL     1      -2.588  20.176  12.010  1.00  0.00     0.012 C
HETATM   18  C10 UNL     1      -3.424  20.736  13.082  1.00  0.00    -0.026 C
HETATM   19  C11 UNL     1      -2.912  20.603  14.332  1.00  0.00    -0.030 C
HETATM   20  C12 UNL     1      -1.604  19.925  14.445  1.00  0.00     0.027 C
HETATM   21  C13 UNL     1      -0.665  20.628  13.491  1.00  0.00     0.009 C
HETATM   22  C14 UNL     1      -1.182  20.761  12.100  1.00  0.00    -0.003 C
BRANCH  22  23
HETATM   23  C15 UNL     1      -0.256  20.083  11.108  1.00  0.00     0.032 C
BRANCH  23  24
HETATM   24  C16 UNL     1       0.336  18.843  11.640  1.00  0.00    -0.030 C
HETATM   25  C17 UNL     1      -0.103  17.627  11.312  1.00  0.00    -0.031 C
BRANCH  25  26
HETATM   26  C18 UNL     1       0.488  16.384  11.843  1.00  0.00     0.027 C
BRANCH  26  27
HETATM   27  C19 UNL     1      -0.518  15.454  12.449  1.00  0.00     0.011 C
BRANCH  27  28
HETATM   28  C20 UNL     1      -1.788  16.108  12.881  1.00  0.00     0.069 C
BRANCH  28  29
HETATM   29  C21 UNL     1      -2.817  15.149  13.327  1.00  0.00     0.231 C
HETATM   30  O2  UNL     1      -3.539  14.630  12.498  1.00  0.00    -0.307 OA
ENDBRANCH  28  29
ENDBRANCH  27  28
ENDBRANCH  26  27
ENDBRANCH  25  26
ENDBRANCH  23  24
ENDBRANCH  22  23
ENDBRANCH  16  17
ENDBRANCH   1  16
TORSDOF 17
ENDMDL