MODEL 2
REMARK VINA RESULT: -7.343401388      1.520      8.028
REMARK  16 active torsions:
REMARK  status: ('A' for Active; 'I' for Inactive)
REMARK    1  A    between atoms: C1_2  and  C2_4
REMARK    2  A    between atoms: C2_4  and  C3_5
REMARK    3  A    between atoms: C3_5  and  C4_6
REMARK    4  A    between atoms: C4_6  and  C5_7
REMARK    5  A    between atoms: C6_8  and  C7_9
REMARK    6  A    between atoms: C7_9  and  C8_10
REMARK    7  A    between atoms: C9_11  and  C10_12
REMARK    8  A    between atoms: C10_12  and  C11_13
REMARK    9  A    between atoms: C12_14  and  C13_15
REMARK   10  A    between atoms: C13_15  and  C14_16
REMARK   11  A    between atoms: C15_17  and  C16_18
REMARK   12  A    between atoms: C16_18  and  C17_19
REMARK   13  A    between atoms: C17_19  and  C18_20
REMARK   14  A    between atoms: C18_20  and  O3_21
REMARK   15  A    between atoms: O3_21  and  C19_22
REMARK   16  A    between atoms: C19_22  and  C20_23
ROOT
HETATM    1  C11 UNL     1      -2.069  18.731   9.681  1.00  0.00    -0.027 C
HETATM    2  C12 UNL     1      -1.739  17.531  10.086  1.00  0.00    -0.027 C
ENDROOT
BRANCH   1   3
HETATM    3  C10 UNL     1      -3.418  19.320   9.802  1.00  0.00     0.053 C
BRANCH   3   4
HETATM    4  C9  UNL     1      -3.588  19.786  11.217  1.00  0.00    -0.027 C
HETATM    5  C8  UNL     1      -2.799  20.689  11.756  1.00  0.00    -0.027 C
BRANCH   5   6
HETATM    6  C7  UNL     1      -3.046  21.096  13.181  1.00  0.00     0.053 C
BRANCH   6   7
HETATM    7  C6  UNL     1      -2.885  19.880  13.992  1.00  0.00    -0.027 C
HETATM    8  C5  UNL     1      -1.743  19.381  14.345  1.00  0.00    -0.030 C
BRANCH   8   9
HETATM    9  C4  UNL     1      -0.431  19.939  13.998  1.00  0.00     0.027 C
BRANCH   9  10
HETATM   10  C3  UNL     1       0.237  19.141  12.883  1.00  0.00     0.014 C
BRANCH  10  11
HETATM   11  C2  UNL     1       0.872  20.067  11.871  1.00  0.00     0.113 C
BRANCH  11  12
HETATM   12  C1  UNL     1       2.304  20.242  12.257  1.00  0.00     0.172 C
HETATM   13  O1  UNL     1       2.747  21.349  12.662  1.00  0.00    -0.648 OA
HETATM   14  O2  UNL     1       3.214  19.197  12.190  1.00  0.00    -0.648 OA
ENDBRANCH  11  12
ENDBRANCH  10  11
ENDBRANCH   9  10
ENDBRANCH   8   9
ENDBRANCH   6   7
ENDBRANCH   5   6
ENDBRANCH   3   4
ENDBRANCH   1   3
BRANCH   2  15
HETATM   15  C13 UNL     1      -2.617  16.532  10.731  1.00  0.00     0.053 C
BRANCH  15  16
HETATM   16  C14 UNL     1      -2.374  16.425  12.184  1.00  0.00    -0.027 C
HETATM   17  C15 UNL     1      -1.659  15.513  12.783  1.00  0.00    -0.030 C
BRANCH  17  18
HETATM   18  C16 UNL     1      -0.972  14.429  12.081  1.00  0.00     0.029 C
BRANCH  18  19
HETATM   19  C17 UNL     1      -1.169  13.129  12.825  1.00  0.00     0.030 C
BRANCH  19  20
HETATM   20  C18 UNL     1      -2.039  12.200  12.054  1.00  0.00     0.168 C
BRANCH  20  21
HETATM   21  O3  UNL     1      -2.647  12.869  11.034  1.00  0.00    -0.381 OA
BRANCH  21  22
HETATM   22  C19 UNL     1      -3.915  12.523  10.695  1.00  0.00     0.280 C
BRANCH  22  23
HETATM   23  C20 UNL     1      -4.984  13.460  11.072  1.00  0.00     0.197 C
HETATM   24  O4  UNL     1      -5.125  13.790  12.269  1.00  0.00    -0.646 OA
HETATM   25  O5  UNL     1      -5.835  13.988  10.145  1.00  0.00    -0.646 OA
ENDBRANCH  22  23
ENDBRANCH  21  22
ENDBRANCH  20  21
ENDBRANCH  19  20
ENDBRANCH  18  19
ENDBRANCH  17  18
ENDBRANCH  15  16
ENDBRANCH   2  15
TORSDOF 16
ENDMDL