MODEL 4
REMARK VINA RESULT: -6.072295334      3.315      5.440
REMARK  5 active torsions:
REMARK  status: ('A' for Active; 'I' for Inactive)
REMARK    1  A    between atoms: C2_2  and  O1_3
REMARK    2  A    between atoms: C2_2  and  C3_5
REMARK    3  A    between atoms: C2_2  and  C4_8
REMARK    4  A    between atoms: C3_5  and  O2_6
REMARK    5  A    between atoms: C8_13  and  C9_14
ROOT
HETATM    1  C4  UNL     1       6.808   8.645  23.947  1.00  0.00     0.038 C
HETATM    2  C5  UNL     1       7.075   7.852  22.692  1.00  0.00    -0.014 C
HETATM    3  C6  UNL     1       6.066   7.657  21.677  1.00  0.00     0.002 C
HETATM    4  C7  UNL     1       5.349   8.622  20.833  1.00  0.00     0.154 C
HETATM    5  O3  UNL     1       6.149   9.581  20.154  1.00  0.00    -0.369 OA
HETATM    6  C8  UNL     1       5.487  10.793  20.473  1.00  0.00     0.081 C
HETATM    7  C10 UNL     1       6.290  11.875  21.053  1.00  0.00     0.069 C
HETATM    8  C11 UNL     1       6.856  11.908  22.399  1.00  0.00     0.276 C
HETATM    9  N1  UNL     1       6.316  10.970  23.391  1.00  0.00     0.095 N
HETATM   10  C12 UNL     1       7.373  10.086  23.979  1.00  0.00     0.289 C
HETATM   11  C13 UNL     1       5.783   9.950  22.597  1.00  0.00     0.234 C
HETATM   12  C14 UNL     1       5.376   9.036  23.703  1.00  0.00     0.055 C
HETATM   13  C15 UNL     1       4.851   9.904  21.554  1.00  0.00     0.087 C
ENDROOT
BRANCH   1  14
HETATM   14  C2  UNL     1       6.998   7.915  25.212  1.00  0.00     0.088 C
HETATM   15  C1  UNL     1       5.701   7.597  25.906  1.00  0.00     0.049 C
BRANCH  14  16
HETATM   16  O1  UNL     1       7.681   6.725  24.924  1.00  0.00    -0.387 OA
ATOM     17  H1  UNL     1       7.843   6.669  23.990  1.00  0.00     0.210 HD
ENDBRANCH  14  16
BRANCH  14  18
HETATM   18  C3  UNL     1       7.922   8.712  26.108  1.00  0.00     0.202 C
BRANCH  18  19
HETATM   19  O2  UNL     1       9.205   8.114  26.109  1.00  0.00    -0.398 OA
ATOM     20  H2  UNL     1       9.838   8.727  26.464  1.00  0.00     0.209 HD
ENDBRANCH  18  19
ENDBRANCH  14  18
ENDBRANCH   1  14
BRANCH   6  21
HETATM   21  C9  UNL     1       4.471  11.215  19.473  1.00  0.00     0.124 C
HETATM   22  S1  UNL     1       5.054  12.605  18.482  1.00  0.00    -0.095 SA
ENDBRANCH   6  21
TORSDOF 5
ENDMDL