MODEL 3
REMARK VINA RESULT: -5.668655323      0.967      1.290
REMARK  7 active torsions:
REMARK  status: ('A' for Active; 'I' for Inactive)
REMARK    1  A    between atoms: C2_2  and  C4_4
REMARK    2  A    between atoms: C4_4  and  C5_5
REMARK    3  A    between atoms: C6_6  and  N1_7
REMARK    4  A    between atoms: C7_11  and  O1_12
REMARK    5  A    between atoms: C8_14  and  O2_15
REMARK    6  A    between atoms: C9_17  and  C10_18
REMARK    7  A    between atoms: C10_18  and  N2_19
ROOT
HETATM    1  C5  UNL     1       6.234   9.684  24.428  1.00  0.00     0.027 C
HETATM    2  C6  UNL     1       6.638  11.066  23.970  1.00  0.00     0.219 C
HETATM    3  C7  UNL     1       6.469  11.001  22.443  1.00  0.00     0.178 C
HETATM    4  C8  UNL     1       5.157  10.270  22.320  1.00  0.00     0.155 C
HETATM    5  C9  UNL     1       5.172   9.254  23.470  1.00  0.00     0.051 C
ENDROOT
BRANCH   5   6
HETATM    6  C10 UNL     1       5.411   7.925  22.828  1.00  0.00     0.280 C
BRANCH   6   7
HETATM    7  N2  UNL     1       6.608   7.240  23.170  1.00  0.00     0.092 N
HETATM    8  C11 UNL     1       7.275   6.926  21.891  1.00  0.00     0.302 C
HETATM    9  C12 UNL     1       6.407   6.138  20.963  1.00  0.00     0.302 C
HETATM   10  N3  UNL     1       5.932   4.907  21.542  1.00  0.00     0.087 N
HETATM   11  C13 UNL     1       6.407   3.761  20.751  1.00  0.00     0.310 C
HETATM   12  C14 UNL     1       6.588   4.780  22.832  1.00  0.00     0.302 C
HETATM   13  C15 UNL     1       6.349   5.927  23.756  1.00  0.00     0.302 C
ENDBRANCH   6   7
ENDBRANCH   5   6
BRANCH   1  14
HETATM   14  C4  UNL     1       5.811   9.550  25.833  1.00  0.00     0.011 C
BRANCH  14  15
HETATM   15  C2  UNL     1       6.822   9.185  26.850  1.00  0.00    -0.022 C
HETATM   16  C1  UNL     1       6.222   8.612  28.121  1.00  0.00     0.009 C
HETATM   17  C3  UNL     1       8.036   8.440  26.391  1.00  0.00     0.009 C
ENDBRANCH  14  15
ENDBRANCH   1  14
BRANCH   4  18
HETATM   18  O2  UNL     1       5.191   9.616  21.079  1.00  0.00    -0.392 OA
ATOM     19  H2  UNL     1       4.699   8.811  21.192  1.00  0.00     0.210 HD
ENDBRANCH   4  18
BRANCH   2  20
HETATM   20  N1  UNL     1       5.724  12.089  24.396  1.00  0.00    -0.072 N
ATOM     21  H13 UNL     1       4.759  11.813  24.217  1.00  0.00     0.274 HD
ATOM     22  H12 UNL     1       5.695  12.150  25.414  1.00  0.00     0.274 HD
ATOM     23  H11 UNL     1       5.924  13.000  23.984  1.00  0.00     0.274 HD
ENDBRANCH   2  20
BRANCH   3  24
HETATM   24  O1  UNL     1       7.542  10.318  21.905  1.00  0.00    -0.391 OA
ATOM     25  H1  UNL     1       7.378  10.167  20.982  1.00  0.00     0.210 HD
ENDBRANCH   3  24
TORSDOF 7
ENDMDL