MODEL 2
REMARK VINA RESULT: -4.855701858      4.962      7.413
REMARK  7 active torsions:
REMARK  status: ('A' for Active; 'I' for Inactive)
REMARK    1  A    between atoms: C2_2  and  O1_5
REMARK    2  A    between atoms: O1_5  and  C5_6
REMARK    3  A    between atoms: C6_7  and  C7_8
REMARK    4  A    between atoms: C7_8  and  O2_9
REMARK    5  A    between atoms: C8_11  and  O3_12
REMARK    6  A    between atoms: C10_15  and  O4_16
REMARK    7  A    between atoms: C11_18  and  N1_19
ROOT
HETATM    1  C5  UNL     1       6.656  15.090  20.291  1.00  0.00     0.167 C
HETATM    2  C6  UNL     1       7.850  15.629  21.026  1.00  0.00     0.069 C
HETATM    3  C8  UNL     1       8.887  15.884  19.919  1.00  0.00     0.129 C
HETATM    4  C9  UNL     1       9.264  14.488  19.474  1.00  0.00     0.066 C
HETATM    5  C10 UNL     1       8.115  13.683  18.957  1.00  0.00     0.156 C
HETATM    6  C11 UNL     1       6.917  13.643  19.863  1.00  0.00     0.280 C
ENDROOT
BRANCH   1   7
HETATM    7  O1  UNL     1       6.464  15.775  19.130  1.00  0.00    -0.373 OA
BRANCH   7   8
HETATM    8  C2  UNL     1       5.285  16.316  18.820  1.00  0.00     0.050 C
HETATM    9  C1  UNL     1       5.551  17.457  17.819  1.00  0.00     0.045 C
HETATM   10  C3  UNL     1       4.568  16.964  19.975  1.00  0.00     0.045 C
HETATM   11  C4  UNL     1       4.275  15.430  18.148  1.00  0.00     0.045 C
ENDBRANCH   7   8
ENDBRANCH   1   7
BRANCH   2  12
HETATM   12  C7  UNL     1       7.635  16.827  21.858  1.00  0.00     0.173 C
BRANCH  12  13
HETATM   13  O2  UNL     1       7.690  17.968  21.066  1.00  0.00    -0.400 OA
ATOM     14  H2  UNL     1       6.826  18.165  20.723  1.00  0.00     0.209 HD
ENDBRANCH  12  13
ENDBRANCH   2  12
BRANCH   6  15
HETATM   15  N1  UNL     1       7.005  12.717  20.906  1.00  0.00     0.098 N
HETATM   16  C12 UNL     1       6.059  11.652  20.724  1.00  0.00     0.273 C
HETATM   17  C13 UNL     1       5.446  11.362  22.078  1.00  0.00     0.032 C
HETATM   18  C14 UNL     1       5.814  12.528  22.948  1.00  0.00     0.032 C
HETATM   19  C15 UNL     1       7.050  13.091  22.232  1.00  0.00     0.273 C
ENDBRANCH   6  15
BRANCH   3  20
HETATM   20  O3  UNL     1      10.002  16.522  20.409  1.00  0.00    -0.395 OA
ATOM     21  H3  UNL     1      10.504  16.931  19.714  1.00  0.00     0.210 HD
ENDBRANCH   3  20
BRANCH   5  22
HETATM   22  O4  UNL     1       8.611  12.445  18.605  1.00  0.00    -0.393 OA
ATOM     23  H4  UNL     1       8.517  11.879  19.361  1.00  0.00     0.210 HD
ENDBRANCH   5  22
TORSDOF 7
ENDMDL