MODEL 2
REMARK VINA RESULT: -6.522019591      2.337      3.847
REMARK  5 active torsions:
REMARK  status: ('A' for Active; 'I' for Inactive)
REMARK    1  A    between atoms: C4_4  and  O1_5
REMARK    2  A    between atoms: C5_7  and  N1_8
REMARK       I    between atoms: N1_8  and  C6_10
REMARK    3  A    between atoms: C6_10  and  C7_12
REMARK    4  A    between atoms: C7_12  and  N2_13
REMARK    5  A    between atoms: C15_22  and  N4_23
ROOT
HETATM    1  C1  UNL     1       5.579   7.041  25.349  1.00  0.00     0.012 C
HETATM    2  C2  UNL     1       6.533   7.754  24.402  1.00  0.00     0.014 C
HETATM    3  C3  UNL     1       7.026   9.008  25.030  1.00  0.00     0.040 C
HETATM    4  C4  UNL     1       6.068  10.121  24.850  1.00  0.00     0.141 C
HETATM    5  C5  UNL     1       5.454  10.288  23.514  1.00  0.00     0.115 C
HETATM    6  C14 UNL     1       5.109   9.049  22.784  1.00  0.00     0.060 C
HETATM    7  C15 UNL     1       6.000   7.882  23.017  1.00  0.00     0.189 C
ENDROOT
BRANCH   5   8
HETATM    8  N1  UNL     1       6.339  11.104  22.699  1.00  0.00    -0.349 N
HETATM    9  C6  UNL     1       6.455  12.493  22.806  1.00  0.00     0.257 C
HETATM   10  O2  UNL     1       5.746  13.081  23.670  1.00  0.00    -0.267 OA
ATOM     11  H1  UNL     1       6.914  10.631  22.002  1.00  0.00     0.163 HD
BRANCH   9  12
HETATM   12  C7  UNL     1       7.348  13.299  21.981  1.00  0.00     0.169 C
BRANCH  12  13
HETATM   13  N2  UNL     1       6.809  14.426  21.336  1.00  0.00    -0.344 N
HETATM   14  C8  UNL     1       6.792  15.665  21.986  1.00  0.00     0.070 C
HETATM   15  C9  UNL     1       7.669  16.739  21.399  1.00  0.00     0.075 C
HETATM   16  C10 UNL     1       6.886  17.600  20.429  1.00  0.00     0.277 C
HETATM   17  N3  UNL     1       6.169  16.700  19.552  1.00  0.00     0.089 N
HETATM   18  C11 UNL     1       5.586  17.456  18.488  1.00  0.00     0.310 C
HETATM   19  C12 UNL     1       6.918  15.556  19.139  1.00  0.00     0.317 C
HETATM   20  C13 UNL     1       6.593  14.353  19.958  1.00  0.00     0.098 C
ENDBRANCH  12  13
ENDBRANCH   9  12
ENDBRANCH   5   8
BRANCH   4  21
HETATM   21  O1  UNL     1       5.084  10.013  25.862  1.00  0.00    -0.394 OA
ATOM     22  H1  UNL     1       4.235  10.143  25.456  1.00  0.00     0.210 HD
ENDBRANCH   4  21
BRANCH   7  23
HETATM   23  N4  UNL     1       5.363   6.632  22.643  1.00  0.00    -0.075 N
ATOM     24  H43 UNL     1       5.643   6.315  21.716  1.00  0.00     0.274 HD
ATOM     25  H42 UNL     1       5.719   5.839  23.177  1.00  0.00     0.274 HD
ATOM     26  H41 UNL     1       4.353   6.739  22.730  1.00  0.00     0.274 HD
ENDBRANCH   7  23
TORSDOF 5
ENDMDL