MODEL 1
REMARK VINA RESULT: -6.306745988      0.000      0.000
REMARK  7 active torsions:
REMARK  status: ('A' for Active; 'I' for Inactive)
REMARK    1  A    between atoms: C2_2  and  O2_4
REMARK    2  A    between atoms: O2_4  and  C3_5
REMARK    3  A    between atoms: C5_7  and  C6_8
REMARK    4  A    between atoms: C6_8  and  O3_9
REMARK    5  A    between atoms: C7_11  and  O4_12
REMARK    6  A    between atoms: C11_18  and  N2_19
REMARK    7  A    between atoms: N2_19  and  C12_21
ROOT
HETATM    1  C3  UNL     1       6.246   6.674  24.266  1.00  0.00     0.168 C
HETATM    2  C4  UNL     1       5.583   7.254  25.507  1.00  0.00     0.046 C
HETATM    3  C5  UNL     1       6.576   8.026  26.345  1.00  0.00     0.071 C
HETATM    4  C7  UNL     1       7.214   9.053  25.491  1.00  0.00     0.363 C
HETATM    5  N1  UNL     1       6.946   9.017  24.111  1.00  0.00     0.126 N
HETATM    6  C8  UNL     1       7.786   9.917  23.361  1.00  0.00     0.276 C
HETATM    7  C9  UNL     1       7.314  10.110  21.937  1.00  0.00     0.032 C
HETATM    8  C10 UNL     1       7.018   8.784  21.267  1.00  0.00     0.029 C
HETATM    9  C11 UNL     1       6.087   8.041  22.165  1.00  0.00     0.113 C
HETATM   10  C15 UNL     1       6.895   7.761  23.447  1.00  0.00     0.277 C
ENDROOT
BRANCH   9  11
HETATM   11  N2  UNL     1       5.373   6.960  21.665  1.00  0.00    -0.411 N
ATOM     12  H2  UNL     1       4.673   6.469  22.220  1.00  0.00     0.154 HD
BRANCH  11  13
HETATM   13  C12 UNL     1       5.680   6.582  20.331  1.00  0.00     0.077 A
HETATM   14  C13 UNL     1       6.526   5.387  20.046  1.00  0.00     0.027 A
HETATM   15  C14 UNL     1       5.074   5.426  19.678  1.00  0.00     0.027 A
ENDBRANCH  11  13
ENDBRANCH   9  11
BRANCH   1  16
HETATM   16  O2  UNL     1       7.109   5.625  24.568  1.00  0.00    -0.314 OA
BRANCH  16  17
HETATM   17  C2  UNL     1       6.919   4.295  24.305  1.00  0.00     0.255 C
HETATM   18  C1  UNL     1       5.979   3.740  23.305  1.00  0.00     0.126 C
HETATM   19  O1  UNL     1       7.593   3.475  24.959  1.00  0.00    -0.266 OA
ENDBRANCH  16  17
ENDBRANCH   1  16
BRANCH   4  20
HETATM   20  O4  UNL     1       8.608   9.024  25.707  1.00  0.00    -0.367 OA
ATOM     21  H4  UNL     1       8.865   9.817  26.163  1.00  0.00     0.212 HD
ENDBRANCH   4  20
BRANCH   3  22
HETATM   22  C6  UNL     1       5.832   8.641  27.500  1.00  0.00     0.173 C
BRANCH  22  23
HETATM   23  O3  UNL     1       5.013   9.640  26.956  1.00  0.00    -0.400 OA
ATOM     24  H3  UNL     1       4.281   9.740  27.552  1.00  0.00     0.209 HD
ENDBRANCH  22  23
ENDBRANCH   3  22
TORSDOF 7
ENDMDL