MODEL 1
REMARK VINA RESULT: -7.610363322      0.000      0.000
REMARK  4 active torsions:
REMARK  status: ('A' for Active; 'I' for Inactive)
REMARK    1  A    between atoms: N1_1  and  C1_5
REMARK    2  A    between atoms: C4_8  and  N2_9
REMARK       I    between atoms: N2_9  and  C5_11
REMARK    3  A    between atoms: C5_11  and  C6_13
REMARK    4  A    between atoms: C7_16  and  N4_17
ROOT
HETATM    1  C6  UNL     1       6.260  11.149  23.224  1.00  0.00     0.204 A
HETATM    2  N3  UNL     1       6.784  10.732  24.386  1.00  0.00    -0.168 N
ATOM      3  H3  UNL     1       7.681  11.035  24.764  1.00  0.00     0.186 HD
HETATM    4  C7  UNL     1       5.955   9.857  24.982  1.00  0.00     0.696 A
HETATM    5  N5  UNL     1       4.903   9.733  24.175  1.00  0.00    -0.130 N
ATOM      6  H5  UNL     1       4.094   9.137  24.349  1.00  0.00     0.205 HD
HETATM    7  N6  UNL     1       5.075  10.506  23.113  1.00  0.00    -0.266 N
ATOM      8  H6  UNL     1       4.419  10.601  22.337  1.00  0.00     0.189 HD
ENDROOT
BRANCH   1   9
HETATM    9  C5  UNL     1       6.879  12.091  22.322  1.00  0.00     0.287 C
HETATM   10  N2  UNL     1       6.536  13.456  22.371  1.00  0.00    -0.350 N
ATOM     11  H2  UNL     1       5.846  13.787  23.046  1.00  0.00     0.163 HD
HETATM   12  O1  UNL     1       7.721  11.696  21.496  1.00  0.00    -0.264 OA
BRANCH  10  13
HETATM   13  C4  UNL     1       7.163  14.383  21.463  1.00  0.00     0.085 C
HETATM   14  C3  UNL     1       6.537  14.179  20.103  1.00  0.00     0.027 C
HETATM   15  C2  UNL     1       5.821  15.446  19.716  1.00  0.00     0.035 C
HETATM   16  C1  UNL     1       6.878  16.525  19.553  1.00  0.00     0.183 C
HETATM   17  C14 UNL     1       7.530  16.750  20.880  1.00  0.00     0.035 C
HETATM   18  C13 UNL     1       7.032  15.790  21.951  1.00  0.00     0.027 C
BRANCH  16  19
HETATM   19  N1  UNL     1       6.274  17.761  19.092  1.00  0.00    -0.075 N
ATOM     20  H13 UNL     1       6.864  18.242  18.412  1.00  0.00     0.274 HD
ATOM     21  H12 UNL     1       5.466  17.588  18.494  1.00  0.00     0.274 HD
ATOM     22  H11 UNL     1       6.040  18.360  19.883  1.00  0.00     0.274 HD
ENDBRANCH  16  19
ENDBRANCH  10  13
ENDBRANCH   1   9
BRANCH   4  23
HETATM   23  N4  UNL     1       6.203   9.212  26.243  1.00  0.00    -0.216 N
HETATM   24  C8  UNL     1       7.295   8.320  26.550  1.00  0.00     0.146 C
HETATM   25  C9  UNL     1       7.757   8.853  27.894  1.00  0.00     0.010 A
HETATM   26  C10 UNL     1       7.131   8.297  29.104  1.00  0.00     0.013 A
HETATM   27  C11 UNL     1       6.509   9.489  28.500  1.00  0.00     0.010 A
HETATM   28  C12 UNL     1       5.420   9.327  27.440  1.00  0.00     0.146 C
ENDBRANCH   4  23
TORSDOF 4
ENDMDL