MODEL 5
REMARK VINA RESULT: -6.353472540      1.033      1.133
REMARK  3 active torsions:
REMARK  status: ('A' for Active; 'I' for Inactive)
REMARK       I    between atoms: C1_2  and  N1_3
REMARK    1  A    between atoms: C1_2  and  C7_13
REMARK    2  A    between atoms: N1_3  and  C2_5
REMARK    3  A    between atoms: C12_20  and  C13_21
ROOT
HETATM    1  O1  UNL     1       8.372  10.092  23.713  1.00  0.00    -0.273 OA
HETATM    2  C1  UNL     1       7.163  10.406  23.607  1.00  0.00     0.226 C
HETATM    3  N1  UNL     1       6.242   9.784  24.506  1.00  0.00    -0.333 N
ATOM      4  H1  UNL     1       5.253  10.026  24.437  1.00  0.00     0.164 HD
ENDROOT
BRANCH   2   5
HETATM    5  C7  UNL     1       6.746  11.381  22.587  1.00  0.00     0.114 C
HETATM    6  C8  UNL     1       5.251  11.215  22.386  1.00  0.00     0.053 C
HETATM    7  C9  UNL     1       5.143   9.948  21.563  1.00  0.00     0.147 C
HETATM    8  S1  UNL     1       3.963  10.157  20.167  1.00  0.00    -0.139 SA
HETATM    9  N3  UNL     1       6.362   9.885  20.880  1.00  0.00    -0.364 N
HETATM   10  C10 UNL     1       5.086   9.521  18.864  1.00  0.00     0.120 C
HETATM   11  C11 UNL     1       6.335   9.310  19.628  1.00  0.00     0.070 C
HETATM   12  C12 UNL     1       7.267  10.890  21.231  1.00  0.00     0.199 C
BRANCH  12  13
HETATM   13  C13 UNL     1       7.395  12.047  20.353  1.00  0.00     0.197 C
HETATM   14  O2  UNL     1       6.799  13.128  20.539  1.00  0.00    -0.646 OA
HETATM   15  O3  UNL     1       8.220  11.957  19.246  1.00  0.00    -0.646 OA
ENDBRANCH  12  13
ENDBRANCH   2   5
BRANCH   3  16
HETATM   16  C2  UNL     1       6.649   8.838  25.497  1.00  0.00     0.286 C
HETATM   17  C3  UNL     1       5.529   8.374  26.387  1.00  0.00     0.054 C
HETATM   18  C4  UNL     1       5.585   9.101  27.733  1.00  0.00     0.005 C
HETATM   19  C5  UNL     1       6.871   8.813  28.463  1.00  0.00     0.028 C
HETATM   20  C6  UNL     1       7.979   8.590  27.458  1.00  0.00     0.235 C
HETATM   21  N2  UNL     1       7.787   9.332  26.246  1.00  0.00    -0.054 N
ATOM     22  H22 UNL     1       8.633   9.343  25.677  1.00  0.00     0.279 HD
ATOM     23  H21 UNL     1       7.708  10.332  26.430  1.00  0.00     0.279 HD
ENDBRANCH   3  16
TORSDOF 3
ENDMDL