MODEL 4
REMARK VINA RESULT: -6.178759993      1.826      2.151
REMARK  4 active torsions:
REMARK  status: ('A' for Active; 'I' for Inactive)
REMARK    1  A    between atoms: C1_2  and  N2_4
REMARK    2  A    between atoms: N2_4  and  N3_6
REMARK    3  A    between atoms: C4_10  and  S2_11
REMARK    4  A    between atoms: S2_11  and  C5_12
ROOT
HETATM    1  N3  UNL     1       5.399   6.294  25.380  1.00  0.00    -0.286 N
ATOM      2  H3  UNL     1       4.973   5.915  26.226  1.00  0.00     0.188 HD
HETATM    3  C2  UNL     1       5.619   7.584  25.298  1.00  0.00     0.107 C
HETATM    4  C3  UNL     1       5.286   8.552  26.372  1.00  0.00     0.111 C
HETATM    5  C4  UNL     1       6.508   9.433  26.535  1.00  0.00     0.198 C
HETATM    6  S3  UNL     1       6.934   9.660  24.798  1.00  0.00     0.245 S
HETATM    7  O1  UNL     1       6.261  10.850  24.221  1.00  0.00    -0.204 OA
HETATM    8  O2  UNL     1       8.415   9.664  24.612  1.00  0.00    -0.204 OA
HETATM    9  N4  UNL     1       6.198   8.230  24.185  1.00  0.00    -0.271 N
ATOM     10  H4  UNL     1       6.184   7.914  23.215  1.00  0.00     0.180 HD
ENDROOT
BRANCH   1  11
HETATM   11  N2  UNL     1       5.736   5.420  24.329  1.00  0.00    -0.277 N
ATOM     12  H2  UNL     1       5.289   5.546  23.421  1.00  0.00     0.189 HD
BRANCH  11  13
HETATM   13  C1  UNL     1       6.672   4.373  24.492  1.00  0.00     0.199 C
HETATM   14  N1  UNL     1       7.948   4.442  23.867  1.00  0.00    -0.068 NA
HETATM   15  S1  UNL     1       6.289   3.067  25.408  1.00  0.00    -0.043 SA
ENDBRANCH  11  13
ENDBRANCH   1  11
BRANCH   5  16
HETATM   16  S2  UNL     1       7.819   8.509  27.323  1.00  0.00    -0.142 SA
BRANCH  16  17
HETATM   17  C5  UNL     1       8.157   9.006  29.004  1.00  0.00     0.048 C
HETATM   18  C6  UNL     1       9.406   8.498  29.632  1.00  0.00     0.015 C
HETATM   19  C7  UNL     1       8.603   7.452  30.367  1.00  0.00     0.002 C
HETATM   20  C8  UNL     1       7.350   8.219  30.014  1.00  0.00     0.015 C
ENDBRANCH  16  17
ENDBRANCH   5  16
TORSDOF 4
ENDMDL