MODEL 4
REMARK VINA RESULT: -6.457524440      2.515      3.595
REMARK  5 active torsions:
REMARK  status: ('A' for Active; 'I' for Inactive)
REMARK    1  A    between atoms: C1_2  and  C2_3
REMARK       I    between atoms: C1_2  and  N2_16
REMARK    2  A    between atoms: C2_3  and  O2_4
REMARK    3  A    between atoms: C2_3  and  C3_6
REMARK    4  A    between atoms: C11_19  and  C12_20
REMARK    5  A    between atoms: C12_20  and  O3_21
ROOT
HETATM    1  C2  UNL     1       6.276   8.767  23.879  1.00  0.00     0.240 C
ENDROOT
BRANCH   1   2
HETATM    2  C1  UNL     1       5.655   8.794  25.229  1.00  0.00     0.250 C
HETATM    3  O1  UNL     1       4.422   9.125  25.334  1.00  0.00    -0.270 OA
HETATM    4  N2  UNL     1       6.320   8.480  26.432  1.00  0.00    -0.350 N
HETATM    5  C9  UNL     1       5.586   8.523  27.673  1.00  0.00     0.126 C
HETATM    6  C14 UNL     1       7.697   8.133  26.450  1.00  0.00     0.126 C
HETATM    7  C10 UNL     1       6.334   9.434  28.610  1.00  0.00     0.027 C
HETATM    8  C11 UNL     1       7.755   8.989  28.829  1.00  0.00     0.012 C
HETATM    9  C13 UNL     1       8.504   8.694  27.584  1.00  0.00     0.027 C
BRANCH   8  10
HETATM   10  C12 UNL     1       7.762   7.827  29.797  1.00  0.00     0.168 C
BRANCH  10  11
HETATM   11  O3  UNL     1       9.006   7.648  30.365  1.00  0.00    -0.400 OA
ATOM     12  H3  UNL     1       8.946   7.203  31.202  1.00  0.00     0.209 HD
ENDBRANCH  10  11
ENDBRANCH   8  10
ENDBRANCH   1   2
BRANCH   1  13
HETATM   13  O2  UNL     1       7.032   7.570  23.778  1.00  0.00    -0.384 OA
ATOM     14  H2  UNL     1       6.740   7.112  22.998  1.00  0.00     0.210 HD
ENDBRANCH   1  13
BRANCH   1  15
HETATM   15  C3  UNL     1       7.235   9.933  23.690  1.00  0.00     0.225 C
HETATM   16  C4  UNL     1       7.325  10.242  22.205  1.00  0.00     0.053 C
HETATM   17  C5  UNL     1       6.444  11.417  22.092  1.00  0.00     0.080 C
HETATM   18  S1  UNL     1       6.984  12.713  20.953  1.00  0.00    -0.162 SA
HETATM   19  C8  UNL     1       6.890  12.147  23.378  1.00  0.00     0.201 C
HETATM   20  C6  UNL     1       6.607  14.108  22.106  1.00  0.00     0.076 C
HETATM   21  C7  UNL     1       6.133  13.390  23.384  1.00  0.00     0.044 C
HETATM   22  N1  UNL     1       6.673  11.142  24.323  1.00  0.00    -0.063 N
ATOM     23  H12 UNL     1       5.703  11.048  24.620  1.00  0.00     0.278 HD
ATOM     24  H11 UNL     1       7.052  11.347  25.248  1.00  0.00     0.278 HD
ENDBRANCH   1  15
TORSDOF 5
ENDMDL