MODEL 4
REMARK VINA RESULT: -6.013375602      2.436      4.062
REMARK  6 active torsions:
REMARK  status: ('A' for Active; 'I' for Inactive)
REMARK    1  A    between atoms: C2_2  and  C3_3
REMARK    2  A    between atoms: C4_4  and  C5_5
REMARK    3  A    between atoms: C5_5  and  N1_6
REMARK    4  A    between atoms: C9_14  and  O1_15
REMARK    5  A    between atoms: C14_21  and  C15_22
REMARK    6  A    between atoms: C15_22  and  O2_23
ROOT
HETATM    1  C3  UNL     1       6.440  10.528  21.838  1.00  0.00     0.254 C
HETATM    2  C4  UNL     1       6.122  11.189  23.123  1.00  0.00     0.049 C
HETATM    3  C6  UNL     1       7.011  10.797  24.280  1.00  0.00     0.023 C
HETATM    4  C7  UNL     1       7.455   9.390  24.122  1.00  0.00     0.026 C
HETATM    5  C8  UNL     1       8.139   9.262  22.787  1.00  0.00     0.290 C
HETATM    6  N2  UNL     1       6.966   9.196  21.930  1.00  0.00     0.129 N
HETATM    7  C9  UNL     1       6.158   8.227  22.560  1.00  0.00     0.393 C
HETATM    8  C10 UNL     1       6.362   8.346  24.068  1.00  0.00     0.125 C
HETATM    9  C11 UNL     1       7.376   7.394  24.650  1.00  0.00     0.049 C
HETATM   10  C12 UNL     1       8.047   8.646  25.242  1.00  0.00     0.002 C
HETATM   11  C13 UNL     1       7.524   8.970  26.588  1.00  0.00     0.014 C
HETATM   12  C14 UNL     1       6.222   8.336  26.943  1.00  0.00     0.033 C
HETATM   13  C16 UNL     1       5.096   8.619  26.026  1.00  0.00     0.175 C
HETATM   14  O3  UNL     1       5.238   8.524  24.721  1.00  0.00    -0.374 OA
ENDROOT
BRANCH   2  15
HETATM   15  C5  UNL     1       6.091  12.696  22.957  1.00  0.00     0.236 C
BRANCH  15  16
HETATM   16  N1  UNL     1       5.761  13.376  24.186  1.00  0.00    -0.079 N
ATOM     17  H13 UNL     1       6.371  13.077  24.948  1.00  0.00     0.274 HD
ATOM     18  H12 UNL     1       6.024  14.360  24.145  1.00  0.00     0.274 HD
ATOM     19  H11 UNL     1       4.779  13.267  24.437  1.00  0.00     0.274 HD
ENDBRANCH  15  16
ENDBRANCH   2  15
BRANCH   1  20
HETATM   20  C2  UNL     1       5.366  10.615  20.829  1.00  0.00    -0.001 C
HETATM   21  C1  UNL     1       5.455  10.408  19.543  1.00  0.00     0.009 C
ENDBRANCH   1  20
BRANCH   7  22
HETATM   22  O1  UNL     1       4.840   8.190  22.207  1.00  0.00    -0.365 OA
ATOM     23  H1  UNL     1       4.232   7.824  22.839  1.00  0.00     0.212 HD
ENDBRANCH   7  22
BRANCH  12  24
HETATM   24  C15 UNL     1       5.839   8.920  28.319  1.00  0.00     0.170 C
BRANCH  24  25
HETATM   25  O2  UNL     1       6.031  10.318  28.255  1.00  0.00    -0.400 OA
ATOM     26  H2  UNL     1       5.818  10.675  29.109  1.00  0.00     0.209 HD
ENDBRANCH  24  25
ENDBRANCH  12  24
TORSDOF 6
ENDMDL