MODEL 1
REMARK VINA RESULT: -5.943809167      0.000      0.000
REMARK  4 active torsions:
REMARK  status: ('A' for Active; 'I' for Inactive)
REMARK    1  A    between atoms: N1_2  and  C3_4
REMARK    2  A    between atoms: C3_4  and  C4_5
REMARK    3  A    between atoms: C5_6  and  C6_7
REMARK    4  A    between atoms: C6_7  and  N2_8
ROOT
HETATM    1  N2  UNL     1     -21.008  65.871  25.464  1.00  0.00    -0.125 N
HETATM    2  C7  UNL     1     -20.463  66.291  24.235  1.00  0.00     0.686 C
HETATM    3  N3  UNL     1     -20.802  67.383  23.736  1.00  0.00    -0.234 N
ATOM      4  H31 UNL     1     -20.407  67.687  22.846  1.00  0.00     0.174 HD
ATOM      5  H32 UNL     1     -21.471  67.946  24.262  1.00  0.00     0.174 HD
HETATM    6  N4  UNL     1     -19.507  65.487  23.483  1.00  0.00    -0.200 N
HETATM    7  C8  UNL     1     -18.730  66.240  22.486  1.00  0.00     0.174 C
HETATM    8  C9  UNL     1     -19.259  64.103  23.589  1.00  0.00     0.101 C
HETATM    9  C10 UNL     1     -18.824  63.530  24.860  1.00  0.00     0.167 C
HETATM   10  N5  UNL     1     -19.478  63.940  26.046  1.00  0.00    -0.361 N
ATOM     11  H5  UNL     1     -19.155  63.414  26.857  1.00  0.00     0.162 HD
HETATM   12  C11 UNL     1     -20.466  64.893  26.396  1.00  0.00     0.194 C
HETATM   13  S1  UNL     1     -21.050  64.922  27.915  1.00  0.00    -0.040 SA
ENDROOT
BRANCH   1  14
HETATM   14  C6  UNL     1     -22.229  66.441  25.932  1.00  0.00     0.182 C
BRANCH  14  15
HETATM   15  C5  UNL     1     -23.457  66.040  25.334  1.00  0.00    -0.059 C
HETATM   16  C4  UNL     1     -24.466  65.665  24.831  1.00  0.00    -0.070 C
BRANCH  16  17
HETATM   17  C3  UNL     1     -25.707  65.156  24.188  1.00  0.00     0.365 C
BRANCH  17  18
HETATM   18  N1  UNL     1     -26.427  66.298  23.671  1.00  0.00     0.090 N
HETATM   19  C1  UNL     1     -27.694  65.897  23.102  1.00  0.00     0.310 C
HETATM   20  C2  UNL     1     -25.643  66.923  22.630  1.00  0.00     0.310 C
ENDBRANCH  17  18
ENDBRANCH  16  17
ENDBRANCH  14  15
ENDBRANCH   1  14
TORSDOF 4
ENDMDL