MODEL 3
REMARK VINA RESULT: -6.541656736      4.668      6.617
REMARK  3 active torsions:
REMARK  status: ('A' for Active; 'I' for Inactive)
REMARK    1  A    between atoms: N2_8  and  C5_9
REMARK    2  A    between atoms: C9_13  and  C10_14
REMARK    3  A    between atoms: C11_15  and  N3_16
REMARK       I    between atoms: N3_16  and  C12_18
ROOT
HETATM    1  C1  UNL     1     -17.007  66.822  25.535  1.00  0.00     0.014 C
HETATM    2  C2  UNL     1     -17.367  65.880  24.863  1.00  0.00    -0.089 C
HETATM    3  C3  UNL     1     -17.792  64.770  24.047  1.00  0.00     0.189 C
HETATM    4  N1  UNL     1     -17.561  63.544  24.789  1.00  0.00    -0.350 N
ATOM      5  H1  UNL     1     -16.744  63.322  25.356  1.00  0.00     0.163 HD
HETATM    6  C4  UNL     1     -18.701  62.710  24.570  1.00  0.00     0.172 C
HETATM    7  S1  UNL     1     -18.657  61.102  24.899  1.00  0.00    -0.041 SA
HETATM    8  N2  UNL     1     -19.774  63.479  24.059  1.00  0.00    -0.339 N
HETATM    9  C9  UNL     1     -19.282  64.774  23.760  1.00  0.00     0.146 C
ENDROOT
BRANCH   9  10
HETATM   10  C10 UNL     1     -19.873  65.865  24.541  1.00  0.00     0.018 C
HETATM   11  C11 UNL     1     -20.408  66.964  24.030  1.00  0.00     0.089 C
BRANCH  11  12
HETATM   12  N3  UNL     1     -20.971  68.005  24.770  1.00  0.00    -0.338 N
HETATM   13  C12 UNL     1     -20.132  68.557  25.769  1.00  0.00     0.217 C
HETATM   14  C13 UNL     1     -20.121  68.167  27.185  1.00  0.00     0.117 C
HETATM   15  O1  UNL     1     -19.363  69.427  25.382  1.00  0.00    -0.274 OA
ATOM     16  H3  UNL     1     -21.920  68.344  24.604  1.00  0.00     0.168 HD
ENDBRANCH  11  12
ENDBRANCH   9  10
BRANCH   8  17
HETATM   17  C5  UNL     1     -21.122  63.004  23.884  1.00  0.00     0.025 C
HETATM   18  C6  UNL     1     -21.546  62.073  25.002  1.00  0.00     0.037 C
HETATM   19  C7  UNL     1     -21.267  62.271  22.546  1.00  0.00     0.037 C
HETATM   20  C8  UNL     1     -22.126  64.148  23.859  1.00  0.00     0.037 C
ENDBRANCH   8  17
TORSDOF 3
ENDMDL