MODEL 4
REMARK VINA RESULT: -6.521831654      2.704      3.343
REMARK  3 active torsions:
REMARK  status: ('A' for Active; 'I' for Inactive)
REMARK    1  A    between atoms: C2_2  and  N1_3
REMARK       I    between atoms: N1_3  and  C3_5
REMARK       I    between atoms: C3_5  and  N4_17
REMARK       I    between atoms: N2_6  and  C4_8
REMARK    2  A    between atoms: C4_8  and  C5_10
REMARK    3  A    between atoms: N4_17  and  C10_19
ROOT
HETATM    1  N1  UNL     1     -20.616  62.341  28.549  1.00  0.00    -0.227 N
ATOM      2  H1  UNL     1     -20.665  61.359  28.821  1.00  0.00     0.177 HD
HETATM    3  C3  UNL     1     -21.184  62.705  27.299  1.00  0.00     0.677 C
HETATM    4  N2  UNL     1     -20.456  62.582  26.221  1.00  0.00    -0.156 N
ATOM      5  H2  UNL     1     -19.502  62.229  26.296  1.00  0.00     0.187 HD
HETATM    6  C4  UNL     1     -20.979  62.935  24.938  1.00  0.00     0.293 C
HETATM    7  O1  UNL     1     -21.714  62.021  24.423  1.00  0.00    -0.268 OA
HETATM    8  N4  UNL     1     -22.506  63.201  27.132  1.00  0.00    -0.218 N
ATOM      9  H4  UNL     1     -22.642  63.979  26.487  1.00  0.00     0.178 HD
ENDROOT
BRANCH   1  10
HETATM   10  C2  UNL     1     -19.979  63.251  29.458  1.00  0.00     0.133 C
HETATM   11  C1  UNL     1     -19.088  62.591  30.467  1.00  0.00     0.027 C
ENDBRANCH   1  10
BRANCH   8  12
HETATM   12  C10 UNL     1     -23.656  62.687  27.803  1.00  0.00     0.036 C
HETATM   13  C11 UNL     1     -24.896  63.104  27.048  1.00  0.00     0.038 C
HETATM   14  C12 UNL     1     -23.663  61.177  27.889  1.00  0.00     0.038 C
HETATM   15  C13 UNL     1     -23.796  63.307  29.195  1.00  0.00     0.038 C
ENDBRANCH   8  12
BRANCH   6  16
HETATM   16  C5  UNL     1     -20.716  64.211  24.256  1.00  0.00     0.418 C
HETATM   17  O2  UNL     1     -20.958  63.996  22.876  1.00  0.00    -0.350 OA
HETATM   18  C6  UNL     1     -19.870  63.263  22.401  1.00  0.00     0.199 C
HETATM   19  C7  UNL     1     -18.784  63.410  23.461  1.00  0.00     0.266 C
HETATM   20  N3  UNL     1     -19.312  64.566  24.193  1.00  0.00    -0.038 N
HETATM   21  C8  UNL     1     -18.677  64.794  25.435  1.00  0.00     0.276 C
HETATM   22  C9  UNL     1     -19.186  65.710  23.304  1.00  0.00     0.276 C
ENDBRANCH   6  16
TORSDOF 3
ENDMDL