MODEL 2
REMARK VINA RESULT: -7.122684511      1.462      2.192
REMARK  5 active torsions:
REMARK  status: ('A' for Active; 'I' for Inactive)
REMARK    1  A    between atoms: N1_2  and  C2_4
REMARK    2  A    between atoms: C5_7  and  N2_8
REMARK    3  A    between atoms: C6_13  and  C7_14
REMARK    4  A    between atoms: C8_15  and  C9_16
REMARK    5  A    between atoms: C9_16  and  N4_17
ROOT
HETATM    1  C2  UNL     1     -27.170  65.829  23.424  1.00  0.00     0.101 A
HETATM    2  C3  UNL     1     -26.659  65.194  24.527  1.00  0.00     0.062 A
HETATM    3  C4  UNL     1     -25.308  65.417  24.854  1.00  0.00     0.004 A
HETATM    4  C5  UNL     1     -24.785  64.758  25.998  1.00  0.00     0.119 C
HETATM    5  C6  UNL     1     -24.566  66.251  24.065  1.00  0.00     0.044 A
HETATM    6  C13 UNL     1     -25.143  66.872  22.949  1.00  0.00     0.111 A
HETATM    7  N6  UNL     1     -26.439  66.647  22.650  1.00  0.00    -0.351 N
ATOM      8  H6  UNL     1     -26.862  67.097  21.839  1.00  0.00     0.166 HD
ENDROOT
BRANCH   5   9
HETATM    9  C7  UNL     1     -23.189  66.561  24.287  1.00  0.00    -0.063 C
HETATM   10  C8  UNL     1     -22.033  66.843  24.450  1.00  0.00    -0.081 C
BRANCH  10  11
HETATM   11  C9  UNL     1     -20.614  67.168  24.666  1.00  0.00     0.223 C
BRANCH  11  12
HETATM   12  N4  UNL     1     -19.988  65.963  25.139  1.00  0.00    -0.341 N
HETATM   13  C10 UNL     1     -19.957  64.788  24.502  1.00  0.00     0.110 A
HETATM   14  C11 UNL     1     -19.263  63.859  25.263  1.00  0.00     0.106 A
HETATM   15  N5  UNL     1     -18.882  64.513  26.373  1.00  0.00    -0.361 N
HETATM   16  C12 UNL     1     -19.328  65.801  26.292  1.00  0.00     0.183 A
ATOM     17  H5  UNL     1     -18.349  64.114  27.145  1.00  0.00     0.166 HD
ENDBRANCH  11  12
ENDBRANCH  10  11
ENDBRANCH   5   9
BRANCH   4  18
HETATM   18  N2  UNL     1     -23.609  64.878  26.385  1.00  0.00    -0.318 N
HETATM   19  N3  UNL     1     -22.628  64.572  27.150  1.00  0.00    -0.345 N
ATOM     20  H32 UNL     1     -23.049  63.855  27.742  1.00  0.00     0.176 HD
ATOM     21  H31 UNL     1     -21.664  64.670  27.468  1.00  0.00     0.176 HD
ATOM     22  H2  UNL     1     -23.224  65.599  25.774  1.00  0.00     0.185 HD
ENDBRANCH   4  18
BRANCH   1  23
HETATM   23  N1  UNL     1     -28.405  65.640  23.103  1.00  0.00    -0.381 N
HETATM   24  C1  UNL     1     -29.313  64.939  24.018  1.00  0.00     0.147 C
ATOM     25  H1  UNL     1     -28.753  65.981  22.207  1.00  0.00     0.160 HD
ENDBRANCH   1  23
TORSDOF 5
ENDMDL