MODEL 4
REMARK VINA RESULT: -6.630167733      2.100      4.746
REMARK  3 active torsions:
REMARK  status: ('A' for Active; 'I' for Inactive)
REMARK    1  A    between atoms: C4_7  and  C5_8
REMARK    2  A    between atoms: C5_8  and  C6_9
REMARK    3  A    between atoms: C6_9  and  N3_12
ROOT
HETATM    1  C1  UNL     1     -25.429  66.905  22.834  1.00  0.00     0.233 C
HETATM    2  N1  UNL     1     -24.739  66.594  23.709  1.00  0.00    -0.395 NA
HETATM    3  C2  UNL     1     -23.924  66.210  24.754  1.00  0.00     0.261 A
HETATM    4  N2  UNL     1     -22.655  66.624  24.998  1.00  0.00    -0.312 N
ATOM      5  H2  UNL     1     -22.142  67.289  24.419  1.00  0.00     0.170 HD
HETATM    6  C3  UNL     1     -22.164  66.039  26.108  1.00  0.00     0.086 A
HETATM    7  C4  UNL     1     -20.960  66.123  26.793  1.00  0.00     0.043 A
HETATM    8  N4  UNL     1     -20.800  65.398  27.925  1.00  0.00    -0.356 N
HETATM    9  C9  UNL     1     -19.610  65.400  28.738  1.00  0.00     0.156 C
HETATM   10  C10 UNL     1     -21.787  64.582  28.412  1.00  0.00     0.009 A
HETATM   11  C11 UNL     1     -21.586  63.783  29.674  1.00  0.00     0.068 C
HETATM   12  C12 UNL     1     -22.987  64.479  27.755  1.00  0.00     0.057 A
HETATM   13  C13 UNL     1     -23.162  65.216  26.600  1.00  0.00     0.068 A
HETATM   14  N5  UNL     1     -24.208  65.353  25.743  1.00  0.00    -0.309 N
HETATM   15  C14 UNL     1     -25.454  64.626  25.943  1.00  0.00     0.161 C
ENDROOT
BRANCH   7  16
HETATM   16  C5  UNL     1     -19.873  66.935  26.270  1.00  0.00     0.097 C
BRANCH  16  17
HETATM   17  C6  UNL     1     -19.742  68.332  26.713  1.00  0.00     0.121 C
HETATM   18  C7  UNL     1     -18.497  68.728  27.440  1.00  0.00     0.046 C
HETATM   19  C8  UNL     1     -20.897  68.873  27.523  1.00  0.00     0.046 C
BRANCH  17  20
HETATM   20  N3  UNL     1     -19.735  69.150  25.475  1.00  0.00    -0.071 N
ATOM     21  H33 UNL     1     -19.224  70.027  25.567  1.00  0.00     0.275 HD
ATOM     22  H32 UNL     1     -19.164  68.754  24.727  1.00  0.00     0.275 HD
ATOM     23  H31 UNL     1     -20.714  69.273  25.218  1.00  0.00     0.275 HD
ENDBRANCH  17  20
ENDBRANCH  16  17
ENDBRANCH   7  16
TORSDOF 3
ENDMDL