MODEL 4
REMARK VINA RESULT: -6.253618202      3.557      4.755
REMARK  6 active torsions:
REMARK  status: ('A' for Active; 'I' for Inactive)
REMARK    1  A    between atoms: C2_2  and  N1_3
REMARK    2  A    between atoms: C9_11  and  O1_12
REMARK    3  A    between atoms: C9_11  and  C10_14
REMARK    4  A    between atoms: C11_15  and  C12_16
REMARK    5  A    between atoms: C12_16  and  C14_18
REMARK    6  A    between atoms: C14_18  and  O2_19
ROOT
HETATM    1  N1  UNL     1     -21.997  64.620  24.847  1.00  0.00    -0.024 N
HETATM    2  C3  UNL     1     -22.130  64.928  26.258  1.00  0.00     0.277 C
HETATM    3  C4  UNL     1     -21.130  65.553  24.211  1.00  0.00     0.269 C
HETATM    4  C5  UNL     1     -20.106  64.930  23.312  1.00  0.00     0.264 C
HETATM    5  N2  UNL     1     -19.378  63.891  23.996  1.00  0.00    -0.068 N
HETATM    6  C6  UNL     1     -18.471  64.532  24.960  1.00  0.00     0.272 C
HETATM    7  C7  UNL     1     -18.535  63.183  23.051  1.00  0.00     0.272 C
HETATM    8  C8  UNL     1     -20.190  62.955  24.687  1.00  0.00     0.319 C
HETATM    9  C9  UNL     1     -21.649  63.250  24.695  1.00  0.00     0.317 C
ENDROOT
BRANCH   9  10
HETATM   10  O1  UNL     1     -22.264  62.761  23.529  1.00  0.00    -0.354 OA
ATOM     11  H1  UNL     1     -23.206  62.799  23.647  1.00  0.00     0.213 HD
ENDBRANCH   9  10
BRANCH   9  12
HETATM   12  C10 UNL     1     -22.283  62.507  25.810  1.00  0.00    -0.036 C
HETATM   13  C11 UNL     1     -22.794  61.917  26.731  1.00  0.00    -0.095 C
BRANCH  13  14
HETATM   14  C12 UNL     1     -23.401  61.214  27.868  1.00  0.00     0.084 C
HETATM   15  C13 UNL     1     -24.834  61.721  28.080  1.00  0.00     0.025 C
BRANCH  14  16
HETATM   16  C14 UNL     1     -22.591  61.598  29.093  1.00  0.00     0.180 C
BRANCH  16  17
HETATM   17  O2  UNL     1     -23.261  62.449  29.939  1.00  0.00    -0.400 OA
ATOM     18  H2  UNL     1     -24.188  62.255  30.008  1.00  0.00     0.209 HD
ENDBRANCH  16  17
ENDBRANCH  14  16
ENDBRANCH  13  14
ENDBRANCH   9  12
BRANCH   1  19
HETATM   19  C2  UNL     1     -23.335  64.800  24.264  1.00  0.00     0.237 C
HETATM   20  C1  UNL     1     -24.171  65.695  25.141  1.00  0.00     0.035 C
ENDBRANCH   1  19
TORSDOF 6
ENDMDL