MODEL 2
REMARK VINA RESULT: -6.476400383      2.194      5.300
REMARK  3 active torsions:
REMARK  status: ('A' for Active; 'I' for Inactive)
REMARK    1  A    between atoms: C3_3  and  O1_4
REMARK    2  A    between atoms: C3_3  and  C4_6
REMARK    3  A    between atoms: C4_6  and  N1_7
ROOT
HETATM    1  C1  UNL     1     -20.422  66.699  23.808  1.00  0.00     0.043 C
HETATM    2  C2  UNL     1     -19.510  66.508  24.989  1.00  0.00     0.224 C
HETATM    3  C3  UNL     1     -19.427  65.041  25.431  1.00  0.00     0.134 C
HETATM    4  C10 UNL     1     -20.478  65.471  26.397  1.00  0.00     0.279 C
HETATM    5  N2  UNL     1     -20.095  66.862  26.235  1.00  0.00    -0.057 N
HETATM    6  C11 UNL     1     -19.200  67.375  27.249  1.00  0.00     0.238 C
HETATM    7  C12 UNL     1     -19.057  68.833  26.815  1.00  0.00     0.029 C
HETATM    8  C13 UNL     1     -20.408  69.140  26.235  1.00  0.00     0.029 C
HETATM    9  C14 UNL     1     -21.146  67.820  26.251  1.00  0.00     0.238 C
ENDROOT
BRANCH   3  10
HETATM   10  O1  UNL     1     -18.161  64.821  25.963  1.00  0.00    -0.384 OA
ATOM     11  H1  UNL     1     -17.658  64.321  25.330  1.00  0.00     0.210 HD
ENDBRANCH   3  10
BRANCH   3  12
HETATM   12  C4  UNL     1     -19.799  64.171  24.306  1.00  0.00     0.278 C
BRANCH  12  13
HETATM   13  N1  UNL     1     -20.338  62.895  24.597  1.00  0.00    -0.064 N
HETATM   14  C5  UNL     1     -19.710  62.188  25.678  1.00  0.00     0.272 C
HETATM   15  C6  UNL     1     -21.757  62.960  24.879  1.00  0.00     0.263 C
HETATM   16  C7  UNL     1     -22.583  63.236  23.660  1.00  0.00     0.195 C
HETATM   17  O2  UNL     1     -22.323  62.257  22.684  1.00  0.00    -0.388 OA
HETATM   18  C8  UNL     1     -21.002  62.467  22.273  1.00  0.00     0.195 C
HETATM   19  C9  UNL     1     -20.109  62.050  23.410  1.00  0.00     0.263 C
ENDBRANCH  12  13
ENDBRANCH   3  12
TORSDOF 3
ENDMDL