MODEL 1
REMARK VINA RESULT: -6.498676281      0.000      0.000
REMARK  2 active torsions:
REMARK  status: ('A' for Active; 'I' for Inactive)
REMARK    1  A    between atoms: C4_7  and  C6_9
REMARK    2  A    between atoms: C6_9  and  N2_10
ROOT
HETATM    1  C1  UNL     1     -20.643  69.054  25.780  1.00  0.00     0.053 C
HETATM    2  C2  UNL     1     -20.517  67.549  25.950  1.00  0.00     0.312 C
HETATM    3  C3  UNL     1     -20.047  67.015  24.645  1.00  0.00     0.253 C
HETATM    4  O1  UNL     1     -20.753  67.337  23.679  1.00  0.00    -0.271 OA
HETATM    5  N1  UNL     1     -18.926  66.211  24.398  1.00  0.00    -0.332 N
ATOM      6  H1  UNL     1     -18.703  66.066  23.413  1.00  0.00     0.165 HD
HETATM    7  C4  UNL     1     -18.056  65.567  25.318  1.00  0.00     0.124 C
HETATM    8  C5  UNL     1     -16.938  66.584  25.627  1.00  0.00     0.064 C
HETATM    9  N3  UNL     1     -18.608  65.134  26.521  1.00  0.00    -0.362 N
ATOM     10  H3  UNL     1     -18.438  64.171  26.809  1.00  0.00     0.158 HD
HETATM   11  C10 UNL     1     -19.374  65.938  27.348  1.00  0.00     0.223 C
HETATM   12  C11 UNL     1     -20.748  65.299  27.612  1.00  0.00     0.073 C
HETATM   13  C12 UNL     1     -18.691  65.924  28.730  1.00  0.00     0.073 C
HETATM   14  N4  UNL     1     -19.567  67.303  27.010  1.00  0.00     0.125 N
HETATM   15  C13 UNL     1     -19.920  68.156  28.118  1.00  0.00     0.314 C
ENDROOT
BRANCH   7  16
HETATM   16  C6  UNL     1     -17.307  64.405  24.684  1.00  0.00     0.288 C
BRANCH  16  17
HETATM   17  N2  UNL     1     -18.071  63.322  24.248  1.00  0.00    -0.074 N
HETATM   18  C7  UNL     1     -17.185  62.139  24.238  1.00  0.00     0.271 C
HETATM   19  C8  UNL     1     -19.231  62.954  24.970  1.00  0.00     0.271 C
HETATM   20  C9  UNL     1     -18.463  63.473  22.836  1.00  0.00     0.271 C
ENDBRANCH  16  17
ENDBRANCH   7  16
TORSDOF 2
ENDMDL