MODEL 3
REMARK VINA RESULT: -5.659405567      3.015      5.065
REMARK  4 active torsions:
REMARK  status: ('A' for Active; 'I' for Inactive)
REMARK    1  A    between atoms: C2_2  and  C3_3
REMARK    2  A    between atoms: C3_3  and  N1_4
REMARK    3  A    between atoms: N2_6  and  C5_7
REMARK    4  A    between atoms: C5_7  and  N3_9
ROOT
HETATM    1  N1  UNL     1     -23.162  64.710  27.113  1.00  0.00    -0.318 N
HETATM    2  C4  UNL     1     -22.106  65.492  26.551  1.00  0.00     0.214 C
HETATM    3  N2  UNL     1     -22.472  66.341  25.453  1.00  0.00    -0.118 N
HETATM    4  C7  UNL     1     -23.756  66.218  24.829  1.00  0.00     0.689 C
HETATM    5  N4  UNL     1     -23.981  66.906  23.799  1.00  0.00    -0.230 N
ATOM      6  H4  UNL     1     -23.226  67.511  23.476  1.00  0.00     0.177 HD
HETATM    7  C8  UNL     1     -25.178  66.922  23.046  1.00  0.00     0.165 C
HETATM    8  N5  UNL     1     -24.739  65.336  25.356  1.00  0.00    -0.165 N
ATOM      9  H5  UNL     1     -25.652  65.252  24.909  1.00  0.00     0.186 HD
HETATM   10  C9  UNL     1     -24.430  64.582  26.506  1.00  0.00     0.193 C
HETATM   11  S2  UNL     1     -25.488  63.542  27.194  1.00  0.00    -0.040 SA
ENDROOT
BRANCH   3  12
HETATM   12  C5  UNL     1     -21.473  67.293  25.039  1.00  0.00     0.194 C
HETATM   13  S1  UNL     1     -21.100  68.434  26.211  1.00  0.00    -0.040 SA
BRANCH  12  14
HETATM   14  N3  UNL     1     -20.807  67.384  23.834  1.00  0.00    -0.370 N
HETATM   15  C6  UNL     1     -19.830  66.307  23.521  1.00  0.00     0.148 C
ATOM     16  H3  UNL     1     -20.978  68.154  23.188  1.00  0.00     0.161 HD
ENDBRANCH  12  14
ENDBRANCH   3  12
BRANCH   1  17
HETATM   17  C3  UNL     1     -22.896  64.010  28.376  1.00  0.00     0.132 C
BRANCH  17  18
HETATM   18  C2  UNL     1     -21.921  62.885  28.187  1.00  0.00     0.016 C
HETATM   19  C1  UNL     1     -22.159  61.771  29.190  1.00  0.00     0.006 C
ENDBRANCH  17  18
ENDBRANCH   1  17
TORSDOF 4
ENDMDL