MODEL 2
REMARK VINA RESULT: -7.642224641      3.605      8.212
REMARK  5 active torsions:
REMARK  status: ('A' for Active; 'I' for Inactive)
REMARK    1  A    between atoms: C2_2  and  C4_4
REMARK    2  A    between atoms: C4_4  and  C6_6
REMARK    3  A    between atoms: C6_6  and  C7_7
REMARK       I    between atoms: C7_7  and  N1_9
REMARK    4  A    between atoms: N1_9  and  N2_10
REMARK       I    between atoms: N2_10  and  C8_12
REMARK       I    between atoms: C8_12  and  N3_14
REMARK    5  A    between atoms: N3_14  and  C9_16
ROOT
HETATM    1  N2  UNL     1      24.591  13.466  24.689  1.00  0.00    -0.181 N
ATOM      2  H2  UNL     1      23.687  13.863  24.947  1.00  0.00     0.207 HD
HETATM    3  C8  UNL     1      25.544  14.416  24.241  1.00  0.00     0.350 C
HETATM    4  O2  UNL     1      26.694  14.038  23.913  1.00  0.00    -0.244 OA
HETATM    5  N3  UNL     1      25.158  15.780  24.181  1.00  0.00    -0.293 N
ATOM      6  H3  UNL     1      24.838  16.173  23.296  1.00  0.00     0.172 HD
ENDROOT
BRANCH   1   7
HETATM    7  N1  UNL     1      24.673  12.148  24.830  1.00  0.00    -0.283 NA
HETATM    8  C7  UNL     1      24.771  10.802  24.997  1.00  0.00     0.313 C
HETATM    9  O1  UNL     1      25.344  10.207  25.934  1.00  0.00    -0.255 OA
BRANCH   8  10
HETATM   10  C6  UNL     1      24.096   9.972  23.915  1.00  0.00     0.126 C
BRANCH  10  11
HETATM   11  C4  UNL     1      23.221   8.897  24.424  1.00  0.00    -0.005 C
HETATM   12  C5  UNL     1      21.960   8.895  23.597  1.00  0.00     0.011 C
BRANCH  11  13
HETATM   13  C2  UNL     1      23.833   7.550  24.502  1.00  0.00    -0.019 C
HETATM   14  C1  UNL     1      24.195   7.283  25.970  1.00  0.00     0.010 C
HETATM   15  C3  UNL     1      22.884   6.438  24.113  1.00  0.00     0.010 C
ENDBRANCH  11  13
ENDBRANCH  10  11
ENDBRANCH   8  10
ENDBRANCH   1   7
BRANCH   5  16
HETATM   16  C9  UNL     1      25.206  16.542  25.240  1.00  0.00     0.108 A
HETATM   17  C10 UNL     1      24.061  16.702  25.984  1.00  0.00     0.050 A
HETATM   18  C11 UNL     1      24.080  17.529  27.100  1.00  0.00     0.024 A
HETATM   19  C12 UNL     1      25.255  18.161  27.422  1.00  0.00     0.026 A
HETATM   20 BR1  UNL     1      25.251  19.287  28.959  1.00  0.00    -0.050 Br
HETATM   21  C13 UNL     1      26.389  17.987  26.667  1.00  0.00     0.108 A
HETATM   22  N4  UNL     1      26.337  17.175  25.583  1.00  0.00    -0.351 N
ATOM     23  H4  UNL     1      27.176  17.042  25.017  1.00  0.00     0.166 HD
ENDBRANCH   5  16
TORSDOF 5
ENDMDL