MODEL 5
REMARK VINA RESULT: -8.095340520      3.343      4.743
REMARK  3 active torsions:
REMARK  status: ('A' for Active; 'I' for Inactive)
REMARK       I    between atoms: N1_2  and  C2_4
REMARK       I    between atoms: C2_4  and  N2_6
REMARK    1  A    between atoms: N2_6  and  C3_8
REMARK    2  A    between atoms: C11_16  and  C12_17
REMARK    3  A    between atoms: C12_17  and  N3_18
REMARK       I    between atoms: N3_18  and  C13_20
REMARK       I    between atoms: C13_20  and  N4_22
ROOT
HETATM    1  C3  UNL     1      28.341  14.884  23.895  1.00  0.00     0.037 C
HETATM    2  C4  UNL     1      28.850  14.336  22.579  1.00  0.00     0.033 C
HETATM    3  C5  UNL     1      29.261  12.898  22.633  1.00  0.00     0.034 C
HETATM    4  C6  UNL     1      28.399  12.031  23.492  1.00  0.00     0.123 C
HETATM    5  C7  UNL     1      29.101  11.890  24.826  1.00  0.00     0.037 C
HETATM    6  C8  UNL     1      28.779  13.109  25.661  1.00  0.00    -0.007 C
HETATM    7  C9  UNL     1      29.175  14.390  25.053  1.00  0.00     0.036 C
HETATM    8  C10 UNL     1      27.282  13.077  25.866  1.00  0.00     0.044 C
HETATM    9  C11 UNL     1      26.634  13.198  24.501  1.00  0.00     0.080 C
HETATM   10  C16 UNL     1      26.884  14.621  24.051  1.00  0.00     0.070 C
HETATM   11  O3  UNL     1      27.093  12.348  23.562  1.00  0.00    -0.373 OA
ENDROOT
BRANCH   9  12
HETATM   12  C12 UNL     1      25.173  12.923  24.723  1.00  0.00     0.162 C
BRANCH  12  13
HETATM   13  N3  UNL     1      24.838  11.546  24.839  1.00  0.00    -0.340 N
HETATM   14  C13 UNL     1      23.977  10.966  23.888  1.00  0.00     0.317 C
HETATM   15  O2  UNL     1      23.523  11.671  22.960  1.00  0.00    -0.247 OA
HETATM   16  N4  UNL     1      23.588   9.600  23.925  1.00  0.00    -0.343 N
HETATM   17  C14 UNL     1      24.075   8.732  24.972  1.00  0.00     0.154 C
HETATM   18  C15 UNL     1      22.703   9.031  22.928  1.00  0.00     0.154 C
ATOM     19  H3  UNL     1      25.217  10.985  25.602  1.00  0.00     0.164 HD
ENDBRANCH  12  13
ENDBRANCH   9  12
BRANCH   1  20
HETATM   20  N2  UNL     1      28.538  16.322  23.842  1.00  0.00    -0.334 N
HETATM   21  C2  UNL     1      29.745  16.979  23.551  1.00  0.00     0.316 C
HETATM   22  N1  UNL     1      29.853  18.405  23.513  1.00  0.00    -0.347 N
HETATM   23  O1  UNL     1      30.780  16.324  23.311  1.00  0.00    -0.247 OA
HETATM   24  C1  UNL     1      31.099  19.069  23.213  1.00  0.00     0.151 C
ATOM     25  H1  UNL     1      29.025  18.969  23.704  1.00  0.00     0.163 HD
ATOM     26  H2  UNL     1      27.726  16.909  24.033  1.00  0.00     0.165 HD
ENDBRANCH   1  20
TORSDOF 3
ENDMDL