MODEL 2
REMARK VINA RESULT: -7.557457433      3.086      4.424
REMARK  7 active torsions:
REMARK  status: ('A' for Active; 'I' for Inactive)
REMARK    1  A    between atoms: C3_3  and  C4_4
REMARK    2  A    between atoms: C4_4  and  C5_5
REMARK       I    between atoms: C5_5  and  N1_7
REMARK    3  A    between atoms: N1_7  and  N2_9
REMARK    4  A    between atoms: N2_9  and  C6_11
REMARK    5  A    between atoms: C6_11  and  N3_13
REMARK    6  A    between atoms: N3_13  and  C7_15
REMARK    7  A    between atoms: C7_15  and  C8_16
ROOT
HETATM    1  C1  UNL     1      24.624   7.470  26.472  1.00  0.00     0.112 C
HETATM    2  C2  UNL     1      23.797   7.920  25.352  1.00  0.00    -0.111 C
HETATM    3  C3  UNL     1      23.107   8.312  24.434  1.00  0.00    -0.098 C
ENDROOT
BRANCH   3   4
HETATM    4  C4  UNL     1      22.258   8.790  23.344  1.00  0.00     0.198 C
BRANCH   4   5
HETATM    5  C5  UNL     1      22.649  10.170  23.016  1.00  0.00     0.247 C
HETATM    6  O1  UNL     1      22.348  10.673  21.916  1.00  0.00    -0.271 OA
HETATM    7  N1  UNL     1      23.373  10.936  23.953  1.00  0.00    -0.267 N
ATOM      8  H1  UNL     1      23.611  10.507  24.848  1.00  0.00     0.190 HD
BRANCH   7   9
HETATM    9  N2  UNL     1      23.786  12.270  23.716  1.00  0.00    -0.274 N
ATOM     10  H2  UNL     1      23.185  12.905  23.192  1.00  0.00     0.189 HD
BRANCH   9  11
HETATM   11  C6  UNL     1      25.021  12.715  24.203  1.00  0.00     0.186 C
HETATM   12  S1  UNL     1      25.226  14.271  24.598  1.00  0.00    -0.040 SA
BRANCH  11  13
HETATM   13  N3  UNL     1      26.103  11.808  24.352  1.00  0.00    -0.365 N
ATOM     14  H3  UNL     1      26.013  10.867  23.967  1.00  0.00     0.161 HD
BRANCH  13  15
HETATM   15  C7  UNL     1      27.320  12.168  25.026  1.00  0.00     0.131 C
BRANCH  15  16
HETATM   16  C8  UNL     1      27.336  11.597  26.419  1.00  0.00    -0.023 C
HETATM   17  C9  UNL     1      26.111  10.797  26.719  1.00  0.00     0.015 C
HETATM   18  C10 UNL     1      26.179  10.206  28.112  1.00  0.00    -0.013 C
HETATM   19  C11 UNL     1      27.424   9.356  28.239  1.00  0.00     0.009 C
HETATM   20  C15 UNL     1      26.272  11.343  29.113  1.00  0.00     0.009 C
HETATM   21  C12 UNL     1      28.652  10.177  27.974  1.00  0.00    -0.013 C
HETATM   22  C13 UNL     1      28.714  11.315  28.954  1.00  0.00     0.009 C
HETATM   23  C17 UNL     1      28.560  10.723  26.558  1.00  0.00     0.015 C
HETATM   24  C14 UNL     1      27.488  12.165  28.794  1.00  0.00    -0.013 C
HETATM   25  C16 UNL     1      27.445  12.751  27.426  1.00  0.00     0.015 C
ENDBRANCH  15  16
ENDBRANCH  13  15
ENDBRANCH  11  13
ENDBRANCH   9  11
ENDBRANCH   7   9
ENDBRANCH   4   5
ENDBRANCH   3   4
TORSDOF 7
ENDMDL