MODEL 4
REMARK VINA RESULT: -6.983428759      4.902      8.749
REMARK  4 active torsions:
REMARK  status: ('A' for Active; 'I' for Inactive)
REMARK    1  A    between atoms: C2_2  and  C3_3
REMARK    2  A    between atoms: C5_5  and  C6_6
REMARK       I    between atoms: C6_6  and  N1_8
REMARK    3  A    between atoms: N1_8  and  N2_10
REMARK       I    between atoms: N2_10  and  C7_12
REMARK       I    between atoms: C7_12  and  N3_14
REMARK    4  A    between atoms: N3_14  and  C8_16
ROOT
HETATM    1  N2  UNL     1      30.048  14.544  23.932  1.00  0.00    -0.249 N
ATOM      2  H2  UNL     1      30.650  14.317  24.725  1.00  0.00     0.192 HD
HETATM    3  C7  UNL     1      28.762  13.984  23.843  1.00  0.00     0.335 C
HETATM    4  O2  UNL     1      28.033  14.262  22.877  1.00  0.00    -0.246 OA
HETATM    5  N3  UNL     1      28.306  13.114  24.839  1.00  0.00    -0.336 N
ATOM      6  H3  UNL     1      28.903  12.882  25.633  1.00  0.00     0.164 HD
ENDROOT
BRANCH   1   7
HETATM    7  N1  UNL     1      30.500  15.406  22.942  1.00  0.00    -0.266 N
HETATM    8  C6  UNL     1      30.896  16.722  23.315  1.00  0.00     0.240 C
HETATM    9  O1  UNL     1      30.838  17.101  24.509  1.00  0.00    -0.271 OA
ATOM     10  H1  UNL     1      30.548  15.103  21.970  1.00  0.00     0.190 HD
BRANCH   8  11
HETATM   11  C5  UNL     1      31.378  17.658  22.296  1.00  0.00     0.084 A
HETATM   12  C3  UNL     1      30.266  18.559  21.734  1.00  0.00    -0.001 A
HETATM   13  C4  UNL     1      31.374  19.123  22.505  1.00  0.00     0.020 A
BRANCH  12  14
HETATM   14  C2  UNL     1      30.198  18.580  20.245  1.00  0.00     0.001 C
HETATM   15  C1  UNL     1      30.421  19.973  19.665  1.00  0.00     0.005 C
ENDBRANCH  12  14
ENDBRANCH   8  11
ENDBRANCH   1   7
BRANCH   5  16
HETATM   16  C8  UNL     1      27.004  12.556  24.735  1.00  0.00     0.096 C
HETATM   17  C9  UNL     1      26.786  11.222  25.464  1.00  0.00     0.042 C
HETATM   18  C10 UNL     1      25.327  11.692  25.586  1.00  0.00     0.069 C
HETATM   19 BR1  UNL     1      24.433  11.384  23.914  1.00  0.00    -0.090 Br
HETATM   20  C11 UNL     1      25.926  13.108  25.642  1.00  0.00    -0.014 C
HETATM   21  C12 UNL     1      26.335  13.410  27.054  1.00  0.00     0.018 C
HETATM   22  C13 UNL     1      25.130  14.156  24.943  1.00  0.00     0.018 C
ENDBRANCH   5  16
TORSDOF 4
ENDMDL