MODEL 1
REMARK VINA RESULT: -8.383392933      0.000      0.000
REMARK  3 active torsions:
REMARK  status: ('A' for Active; 'I' for Inactive)
REMARK    1  A    between atoms: C2_2  and  N1_3
REMARK    2  A    between atoms: C5_6  and  N2_7
REMARK       I    between atoms: N2_7  and  C6_9
REMARK       I    between atoms: C6_9  and  N3_11
REMARK    3  A    between atoms: N3_11  and  C7_13
ROOT
HETATM    1  N2  UNL     1      25.666  12.974  24.562  1.00  0.00    -0.332 N
ATOM      2  H2  UNL     1      25.046  13.537  25.144  1.00  0.00     0.165 HD
HETATM    3  C6  UNL     1      26.837  13.589  24.068  1.00  0.00     0.317 C
HETATM    4  O1  UNL     1      27.616  12.922  23.350  1.00  0.00    -0.247 OA
HETATM    5  N3  UNL     1      27.161  14.931  24.355  1.00  0.00    -0.338 N
ATOM      6  H3  UNL     1      26.515  15.460  24.942  1.00  0.00     0.164 HD
ENDROOT
BRANCH   1   7
HETATM    7  C5  UNL     1      25.286  11.617  24.304  1.00  0.00     0.155 C
HETATM    8  C4  UNL     1      23.856  11.467  23.810  1.00  0.00     0.053 C
HETATM    9  C3  UNL     1      23.636   9.981  23.964  1.00  0.00     0.126 C
HETATM   10  N1  UNL     1      24.464   9.630  25.105  1.00  0.00    -0.370 N
HETATM   11  C17 UNL     1      25.297  10.724  25.454  1.00  0.00     0.096 C
HETATM   12  N4  UNL     1      25.913  10.855  26.564  1.00  0.00    -0.387 N
ATOM     13  H42 UNL     1      25.922  10.230  27.369  1.00  0.00     0.157 HD
ATOM     14  H41 UNL     1      26.513  11.641  26.815  1.00  0.00     0.157 HD
BRANCH  10  15
HETATM   15  C2  UNL     1      24.408   8.320  25.765  1.00  0.00     0.119 C
HETATM   16  C1  UNL     1      23.726   7.328  24.882  1.00  0.00     0.026 C
ENDBRANCH  10  15
ENDBRANCH   1   7
BRANCH   5  17
HETATM   17  C7  UNL     1      28.341  15.605  23.877  1.00  0.00     0.094 C
HETATM   18  C8  UNL     1      28.377  15.812  22.400  1.00  0.00     0.011 C
HETATM   19  C9  UNL     1      27.580  17.004  21.929  1.00  0.00     0.011 C
HETATM   20  C16 UNL     1      29.843  16.129  22.058  1.00  0.00     0.032 C
HETATM   21  C10 UNL     1      27.986  18.280  22.657  1.00  0.00    -0.012 C
HETATM   22  C11 UNL     1      27.757  18.039  24.125  1.00  0.00     0.011 C
HETATM   23  C15 UNL     1      29.412  18.560  22.307  1.00  0.00     0.030 C
HETATM   24  C12 UNL     1      28.616  16.896  24.593  1.00  0.00     0.011 C
HETATM   25  C13 UNL     1      30.064  17.275  24.277  1.00  0.00     0.032 C
HETATM   26  C14 UNL     1      30.239  17.380  22.789  1.00  0.00     0.038 C
HETATM   27 CL1  UNL     1      31.952  17.724  22.438  1.00  0.00    -0.119 Cl
ENDBRANCH   5  17
TORSDOF 3
ENDMDL