MODEL 1
REMARK VINA RESULT: -7.930647064      0.000      0.000
REMARK  6 active torsions:
REMARK  status: ('A' for Active; 'I' for Inactive)
REMARK    1  A    between atoms: N1_2  and  C2_4
REMARK    2  A    between atoms: C2_4  and  N2_6
REMARK    3  A    between atoms: N2_6  and  N3_8
REMARK       I    between atoms: N3_8  and  C3_10
REMARK    4  A    between atoms: C3_10  and  C4_12
REMARK    5  A    between atoms: C4_12  and  C5_13
REMARK    6  A    between atoms: C5_13  and  C6_14
ROOT
HETATM    1  N3  UNL     1      24.707  14.595  25.003  1.00  0.00    -0.268 N
ATOM      2  H3  UNL     1      24.044  13.909  25.365  1.00  0.00     0.190 HD
HETATM    3  C3  UNL     1      25.966  14.167  24.543  1.00  0.00     0.236 C
HETATM    4  O1  UNL     1      26.782  14.998  24.103  1.00  0.00    -0.272 OA
ENDROOT
BRANCH   3   5
HETATM    5  C4  UNL     1      26.373  12.724  24.560  1.00  0.00     0.109 C
BRANCH   5   6
HETATM    6  C5  UNL     1      25.829  12.040  25.791  1.00  0.00     0.048 C
BRANCH   6   7
HETATM    7  C6  UNL     1      25.201  10.732  25.464  1.00  0.00    -0.051 A
HETATM    8  C7  UNL     1      24.356  10.677  24.341  1.00  0.00     0.027 A
HETATM    9  C8  UNL     1      23.710   9.509  24.021  1.00  0.00     0.017 A
HETATM   10 BR1  UNL     1      22.552   9.391  22.496  1.00  0.00    -0.051 Br
HETATM   11  C9  UNL     1      23.910   8.411  24.819  1.00  0.00    -0.044 A
HETATM   12  C10 UNL     1      23.207   7.145  24.477  1.00  0.00     0.049 C
HETATM   13  C11 UNL     1      24.734   8.461  25.918  1.00  0.00     0.015 A
HETATM   14  C12 UNL     1      25.407   9.644  26.265  1.00  0.00    -0.055 A
HETATM   15  C13 UNL     1      26.325   9.686  27.420  1.00  0.00     0.049 C
ENDBRANCH   6   7
ENDBRANCH   5   6
ENDBRANCH   3   5
BRANCH   1  16
HETATM   16  N2  UNL     1      24.356  15.925  24.972  1.00  0.00    -0.274 N
ATOM     17  H2  UNL     1      24.071  16.292  24.063  1.00  0.00     0.189 HD
BRANCH  16  18
HETATM   18  C2  UNL     1      24.343  16.840  26.037  1.00  0.00     0.186 C
HETATM   19  S1  UNL     1      25.721  17.580  26.488  1.00  0.00    -0.040 SA
BRANCH  18  20
HETATM   20  N1  UNL     1      23.142  17.156  26.755  1.00  0.00    -0.370 N
HETATM   21  C1  UNL     1      22.973  16.783  28.154  1.00  0.00     0.148 C
ATOM     22  H1  UNL     1      22.390  17.651  26.277  1.00  0.00     0.161 HD
ENDBRANCH  18  20
ENDBRANCH  16  18
ENDBRANCH   1  16
TORSDOF 6
ENDMDL