MODEL 5
REMARK VINA RESULT: -8.497487258      4.946      7.521
REMARK  3 active torsions:
REMARK  status: ('A' for Active; 'I' for Inactive)
REMARK       I    between atoms: N1_2  and  C2_4
REMARK       I    between atoms: C2_4  and  N2_6
REMARK    1  A    between atoms: C5_9  and  C6_10
REMARK    2  A    between atoms: C6_10  and  N3_11
REMARK       I    between atoms: N3_11  and  C7_13
REMARK       I    between atoms: C7_13  and  N4_15
REMARK    3  A    between atoms: N4_15  and  C8_17
ROOT
HETATM    1  N3  UNL     1      26.814  17.269  24.164  1.00  0.00    -0.343 N
ATOM      2  H3  UNL     1      27.104  18.245  24.222  1.00  0.00     0.164 HD
HETATM    3  C7  UNL     1      26.166  16.689  25.277  1.00  0.00     0.316 C
HETATM    4  O2  UNL     1      25.823  15.480  25.164  1.00  0.00    -0.247 OA
HETATM    5  N4  UNL     1      25.922  17.441  26.453  1.00  0.00    -0.334 N
ATOM      6  H4  UNL     1      26.228  18.414  26.472  1.00  0.00     0.165 HD
ENDROOT
BRANCH   1   7
HETATM    7  C6  UNL     1      27.084  16.535  22.939  1.00  0.00     0.130 C
BRANCH   7   8
HETATM    8  C5  UNL     1      28.570  16.534  22.714  1.00  0.00     0.023 C
HETATM    9  C4  UNL     1      28.926  16.906  21.285  1.00  0.00     0.028 C
HETATM   10  C3  UNL     1      30.398  17.239  21.424  1.00  0.00     0.128 C
HETATM   11  N2  UNL     1      30.501  17.847  22.734  1.00  0.00    -0.334 N
HETATM   12  C2  UNL     1      31.620  18.552  23.251  1.00  0.00     0.317 C
HETATM   13  C17 UNL     1      29.265  17.636  23.486  1.00  0.00     0.134 C
HETATM   14  N1  UNL     1      31.632  19.116  24.553  1.00  0.00    -0.347 N
HETATM   15  O1  UNL     1      32.659  18.686  22.521  1.00  0.00    -0.247 OA
HETATM   16  C1  UNL     1      32.784  19.827  25.051  1.00  0.00     0.151 C
ATOM     17  H1  UNL     1      30.810  19.016  25.147  1.00  0.00     0.163 HD
ENDBRANCH   7   8
ENDBRANCH   1   7
BRANCH   5  18
HETATM   18  C8  UNL     1      25.270  16.916  27.618  1.00  0.00     0.035 C
HETATM   19  C9  UNL     1      23.877  16.488  27.208  1.00  0.00     0.031 C
HETATM   20  C10 UNL     1      22.924  17.038  28.236  1.00  0.00     0.007 C
HETATM   21  C11 UNL     1      23.829  17.364  29.407  1.00  0.00    -0.012 C
HETATM   22  C12 UNL     1      24.233  16.048  30.032  1.00  0.00     0.009 C
HETATM   23  C16 UNL     1      25.026  17.979  28.668  1.00  0.00     0.035 C
HETATM   24  C13 UNL     1      25.647  15.667  29.743  1.00  0.00    -0.016 C
HETATM   25  C14 UNL     1      25.852  14.220  30.135  1.00  0.00     0.010 C
HETATM   26  C15 UNL     1      26.012  15.789  28.276  1.00  0.00     0.035 C
ENDBRANCH   5  18
TORSDOF 3
ENDMDL