MODEL 4
REMARK VINA RESULT: -7.106604411      3.225      7.318
REMARK  6 active torsions:
REMARK  status: ('A' for Active; 'I' for Inactive)
REMARK    1  A    between atoms: C2_2  and  N1_3
REMARK       I    between atoms: N1_3  and  C3_5
REMARK       I    between atoms: C3_5  and  N2_7
REMARK    2  A    between atoms: N2_7  and  C4_9
REMARK    3  A    between atoms: C4_9  and  C5_10
REMARK    4  A    between atoms: C9_17  and  N4_18
REMARK    5  A    between atoms: C10_20  and  O2_21
REMARK    6  A    between atoms: C10_20  and  C11_23
ROOT
HETATM    1  C5  UNL     1      25.449  15.207  25.373  1.00  0.00     0.025 A
HETATM    2  C6  UNL     1      24.590  15.352  26.439  1.00  0.00     0.037 A
HETATM    3  C7  UNL     1      24.424  16.578  27.004  1.00  0.00     0.027 A
HETATM    4 BR1  UNL     1      23.171  16.763  28.489  1.00  0.00    -0.050 Br
HETATM    5  C8  UNL     1      25.054  17.759  26.578  1.00  0.00     0.108 A
HETATM    6  N3  UNL     1      25.898  17.587  25.502  1.00  0.00    -0.350 N
ATOM      7  H3  UNL     1      26.398  18.387  25.115  1.00  0.00     0.166 HD
HETATM    8  C9  UNL     1      26.064  16.369  24.961  1.00  0.00     0.118 A
ENDROOT
BRANCH   1   9
HETATM    9  C4  UNL     1      25.927  13.972  24.651  1.00  0.00     0.108 C
BRANCH   9  10
HETATM   10  N2  UNL     1      24.868  13.255  24.083  1.00  0.00    -0.318 N
HETATM   11  C3  UNL     1      24.189  12.117  24.120  1.00  0.00     0.323 C
HETATM   12  N1  UNL     1      23.134  11.810  23.190  1.00  0.00    -0.323 N
HETATM   13  O1  UNL     1      24.355  11.156  24.961  1.00  0.00    -0.247 OA
ATOM     14  H1  UNL     1      22.907  12.513  22.488  1.00  0.00     0.169 HD
ATOM     15  H2  UNL     1      24.457  13.836  23.353  1.00  0.00     0.170 HD
BRANCH  12  16
HETATM   16  C2  UNL     1      22.394  10.614  23.177  1.00  0.00     0.061 C
HETATM   17  C1  UNL     1      22.837   9.663  22.069  1.00  0.00     0.055 C
ENDBRANCH  12  16
ENDBRANCH   9  10
ENDBRANCH   1   9
BRANCH   8  18
HETATM   18  N4  UNL     1      26.767  16.281  23.851  1.00  0.00    -0.326 N
HETATM   19  C10 UNL     1      27.613  17.255  23.447  1.00  0.00     0.120 C
ATOM     20  H4  UNL     1      26.669  15.447  23.273  1.00  0.00     0.169 HD
BRANCH  19  21
HETATM   21  O2  UNL     1      26.798  17.268  22.041  1.00  0.00    -0.349 OA
ATOM     22  H2  UNL     1      27.629  17.444  21.616  1.00  0.00     0.219 HD
ENDBRANCH  19  21
BRANCH  19  23
HETATM   23  C11 UNL     1      28.467  18.251  23.014  1.00  0.00     0.052 C
HETATM   24  C12 UNL     1      29.728  18.357  23.951  1.00  0.00     0.018 C
HETATM   25  C13 UNL     1      28.986  18.251  21.599  1.00  0.00     0.018 C
ENDBRANCH  19  23
ENDBRANCH   8  18
TORSDOF 6
ENDMDL