MODEL 3
REMARK VINA RESULT: -7.666298608      4.192      8.792
REMARK  16 active torsions:
REMARK  status: ('A' for Active; 'I' for Inactive)
REMARK    1  A    between atoms: C3_7  and  N3_8
REMARK    2  A    between atoms: C10_15  and  O1_17
REMARK    3  A    between atoms: C12_19  and  C13_20
REMARK    4  A    between atoms: C13_20  and  C14_21
REMARK    5  A    between atoms: C14_21  and  C15_22
REMARK    6  A    between atoms: C15_22  and  C16_23
REMARK    7  A    between atoms: C16_23  and  N4_24
REMARK    8  A    between atoms: N4_24  and  C17_26
REMARK    9  A    between atoms: C17_26  and  C18_27
REMARK   10  A    between atoms: C18_27  and  C19_28
REMARK   11  A    between atoms: C19_28  and  C20_29
REMARK   12  A    between atoms: C20_29  and  N5_30
REMARK   13  A    between atoms: N5_30  and  C23_33
REMARK   14  A    between atoms: C23_33  and  C24_34
REMARK   15  A    between atoms: C24_34  and  C25_35
REMARK   16  A    between atoms: C25_35  and  N6_36
ROOT
HETATM    1  C13 UNL     1      43.268   8.426 110.197  1.00  0.00     0.015 C
ENDROOT
BRANCH   1   2
HETATM    2  C12 UNL     1      41.807   8.706 109.994  1.00  0.00     0.087 C
HETATM    3  C2  UNL     1      41.597  10.051 109.436  1.00  0.00     0.081 C
HETATM    4  N1  UNL     1      41.713  11.080 110.193  1.00  0.00    -0.384 N
HETATM    5  N2  UNL     1      41.252  10.206 108.043  1.00  0.00    -0.351 N
HETATM    6  C1  UNL     1      41.509  12.420 109.712  1.00  0.00     0.147 C
ATOM      7  H1  UNL     1      41.958  10.943 111.173  1.00  0.00     0.160 HD
HETATM    8  C3  UNL     1      40.446   9.252 107.324  1.00  0.00     0.299 C
ATOM      9  H2  UNL     1      41.593  11.028 107.545  1.00  0.00     0.163 HD
HETATM   10  C7  UNL     1      39.997   8.202 108.293  1.00  0.00     0.030 C
HETATM   11  C8  UNL     1      39.071   8.712 109.375  1.00  0.00     0.022 C
HETATM   12  C9  UNL     1      39.435   6.964 107.639  1.00  0.00     0.022 C
HETATM   13  C10 UNL     1      41.249   7.709 109.029  1.00  0.00     0.075 C
HETATM   14  C11 UNL     1      42.287   7.193 108.061  1.00  0.00     0.047 C
BRANCH   8  15
HETATM   15  N3  UNL     1      39.522   9.833 106.451  1.00  0.00    -0.057 N
HETATM   16  C4  UNL     1      39.590   9.223 105.110  1.00  0.00     0.274 C
HETATM   17  C5  UNL     1      38.149   9.918 106.787  1.00  0.00     0.274 C
HETATM   18  C6  UNL     1      39.939  11.230 106.195  1.00  0.00     0.274 C
ENDBRANCH   8  15
BRANCH  13  19
HETATM   19  O1  UNL     1      40.906   6.575 109.812  1.00  0.00    -0.389 OA
ATOM     20  H1  UNL     1      41.693   6.075 109.990  1.00  0.00     0.210 HD
ENDBRANCH  13  19
ENDBRANCH   1   2
BRANCH   1  21
HETATM   21  C14 UNL     1      43.679   8.028 111.568  1.00  0.00     0.002 C
BRANCH  21  22
HETATM   22  C15 UNL     1      42.602   8.214 112.598  1.00  0.00     0.019 C
BRANCH  22  23
HETATM   23  C16 UNL     1      42.240   6.914 113.294  1.00  0.00     0.113 C
BRANCH  23  24
HETATM   24  N4  UNL     1      42.254   7.036 114.716  1.00  0.00    -0.421 N
ATOM     25  H4  UNL     1      42.243   7.947 115.174  1.00  0.00     0.153 HD
BRANCH  24  26
HETATM   26  C17 UNL     1      42.285   5.835 115.462  1.00  0.00     0.113 C
BRANCH  26  27
HETATM   27  C18 UNL     1      42.119   5.918 116.928  1.00  0.00     0.021 C
BRANCH  27  28
HETATM   28  C19 UNL     1      42.266   4.690 117.746  1.00  0.00     0.029 C
BRANCH  28  29
HETATM   29  C20 UNL     1      42.612   3.478 116.979  1.00  0.00     0.236 C
BRANCH  29  30
HETATM   30  N5  UNL     1      43.792   2.759 117.487  1.00  0.00    -0.075 N
HETATM   31  C21 UNL     1      43.676   2.981 118.965  1.00  0.00     0.272 C
HETATM   32  C22 UNL     1      43.584   1.369 117.305  1.00  0.00     0.272 C
BRANCH  30  33
HETATM   33  C23 UNL     1      45.027   3.320 117.098  1.00  0.00     0.238 C
BRANCH  33  34
HETATM   34  C24 UNL     1      45.867   4.009 118.101  1.00  0.00     0.047 C
BRANCH  34  35
HETATM   35  C25 UNL     1      45.985   5.494 117.989  1.00  0.00     0.123 C
BRANCH  35  36
HETATM   36  N6  UNL     1      45.920   5.828 116.558  1.00  0.00    -0.367 N
HETATM   37  C26 UNL     1      45.554   6.995 116.203  1.00  0.00     0.196 C
HETATM   38  N7  UNL     1      45.499   7.299 114.800  1.00  0.00    -0.067 NA
HETATM   39  N8  UNL     1      45.206   7.983 117.152  1.00  0.00    -0.067 NA
ATOM     40  H6  UNL     1      46.166   5.130 115.856  1.00  0.00     0.161 HD
ENDBRANCH  35  36
ENDBRANCH  34  35
ENDBRANCH  33  34
ENDBRANCH  30  33
ENDBRANCH  29  30
ENDBRANCH  28  29
ENDBRANCH  27  28
ENDBRANCH  26  27
ENDBRANCH  24  26
ENDBRANCH  23  24
ENDBRANCH  22  23
ENDBRANCH  21  22
ENDBRANCH   1  21
TORSDOF 16
ENDMDL