MODEL 5
REMARK VINA RESULT: -8.053870501      1.915      4.536
REMARK  15 active torsions:
REMARK  status: ('A' for Active; 'I' for Inactive)
REMARK    1  A    between atoms: C2_2  and  C3_3
REMARK    2  A    between atoms: C3_3  and  C4_4
REMARK    3  A    between atoms: C3_3  and  C6_6
REMARK    4  A    between atoms: C6_6  and  C7_7
REMARK       I    between atoms: C7_7  and  N1_9
REMARK    5  A    between atoms: C12_14  and  C13_15
REMARK       I    between atoms: C13_15  and  N2_17
REMARK    6  A    between atoms: N2_17  and  C14_19
REMARK    7  A    between atoms: C14_19  and  C15_20
REMARK    8  A    between atoms: C14_19  and  C19_28
REMARK    9  A    between atoms: C14_19  and  C22_35
REMARK   10  A    between atoms: C15_20  and  C16_21
REMARK   11  A    between atoms: C16_21  and  C17_22
REMARK   12  A    between atoms: C17_22  and  N3_23
REMARK   13  A    between atoms: C19_28  and  C20_29
REMARK   14  A    between atoms: C20_29  and  C21_30
REMARK   15  A    between atoms: C22_35  and  N8_36
ROOT
HETATM    1  C14 UNL     1      41.501  12.387 110.330  1.00  0.00     0.057 C
ENDROOT
BRANCH   1   2
HETATM    2  N2  UNL     1      41.147  12.014 109.005  1.00  0.00    -0.348 N
HETATM    3  C13 UNL     1      40.470  12.658 107.963  1.00  0.00     0.241 C
HETATM    4  O2  UNL     1      39.985  13.810 108.013  1.00  0.00    -0.271 OA
ATOM      5  H2  UNL     1      41.451  11.072 108.760  1.00  0.00     0.163 HD
BRANCH   3   6
HETATM    6  C12 UNL     1      40.246  12.014 106.629  1.00  0.00     0.183 C
HETATM    7  N1  UNL     1      40.464  10.580 106.657  1.00  0.00    -0.334 N
HETATM    8  C7  UNL     1      41.627   9.827 106.949  1.00  0.00     0.221 C
HETATM    9  C8  UNL     1      39.166  10.051 106.303  1.00  0.00     0.089 C
HETATM   10  O1  UNL     1      42.708  10.391 107.245  1.00  0.00    -0.273 OA
HETATM   11  C9  UNL     1      38.789  10.961 105.127  1.00  0.00     0.032 C
HETATM   12  C11 UNL     1      38.236  10.932 107.119  1.00  0.00     0.032 C
HETATM   13  C10 UNL     1      38.810  12.034 106.218  1.00  0.00     0.021 C
BRANCH   8  14
HETATM   14  C6  UNL     1      41.590   8.352 106.908  1.00  0.00     0.107 C
BRANCH  14  15
HETATM   15  C3  UNL     1      42.155   7.718 108.146  1.00  0.00    -0.007 C
BRANCH  15  16
HETATM   16  C2  UNL     1      43.556   7.216 108.005  1.00  0.00     0.000 C
HETATM   17  C1  UNL     1      44.310   7.669 109.256  1.00  0.00     0.005 C
ENDBRANCH  15  16
BRANCH  15  18
HETATM   18  C4  UNL     1      41.271   6.570 108.561  1.00  0.00     0.000 C
HETATM   19  C5  UNL     1      39.897   6.695 107.965  1.00  0.00     0.005 C
ENDBRANCH  15  18
ENDBRANCH  14  15
ENDBRANCH   8  14
ENDBRANCH   3   6
ENDBRANCH   1   2
BRANCH   1  20
HETATM   20  C15 UNL     1      40.765  13.519 110.930  1.00  0.00     0.034 C
BRANCH  20  21
HETATM   21  C16 UNL     1      40.730  13.687 112.389  1.00  0.00     0.022 C
BRANCH  21  22
HETATM   22  C17 UNL     1      40.666  15.211 112.695  1.00  0.00     0.122 C
BRANCH  22  23
HETATM   23  N3  UNL     1      40.620  15.991 111.495  1.00  0.00    -0.367 N
HETATM   24  C18 UNL     1      40.324  17.231 111.430  1.00  0.00     0.196 C
HETATM   25  N4  UNL     1      39.991  18.042 112.546  1.00  0.00    -0.067 NA
HETATM   26  N5  UNL     1      40.326  17.848 110.150  1.00  0.00    -0.067 NA
ATOM     27  H3  UNL     1      40.841  15.516 110.620  1.00  0.00     0.161 HD
ENDBRANCH  22  23
ENDBRANCH  21  22
ENDBRANCH  20  21
ENDBRANCH   1  20
BRANCH   1  28
HETATM   28  C19 UNL     1      41.134  11.149 111.184  1.00  0.00     0.040 C
BRANCH  28  29
HETATM   29  C20 UNL     1      42.130  10.049 111.135  1.00  0.00     0.075 C
BRANCH  29  30
HETATM   30  C21 UNL     1      41.871   9.057 112.241  1.00  0.00     0.086 C
HETATM   31  N6  UNL     1      41.718   9.405 113.466  1.00  0.00    -0.391 N
ATOM     32  H62 UNL     1      41.775  10.396 113.701  1.00  0.00     0.157 HD
ATOM     33  H61 UNL     1      41.543   8.734 114.213  1.00  0.00     0.157 HD
HETATM   34  N7  UNL     1      41.793   7.682 111.915  1.00  0.00    -0.088 NA
ENDBRANCH  29  30
ENDBRANCH  28  29
ENDBRANCH   1  28
BRANCH   1  35
HETATM   35  C22 UNL     1      42.987  12.501 110.501  1.00  0.00     0.266 C
BRANCH  35  36
HETATM   36  N8  UNL     1      43.764  13.525 109.985  1.00  0.00    -0.076 N
HETATM   37  C23 UNL     1      43.222  14.531 109.144  1.00  0.00     0.271 C
HETATM   38  C24 UNL     1      44.864  12.903 109.248  1.00  0.00     0.271 C
HETATM   39  C25 UNL     1      44.487  14.281 111.051  1.00  0.00     0.271 C
ENDBRANCH  35  36
ENDBRANCH   1  35
TORSDOF 15
ENDMDL