MODEL 3
REMARK VINA RESULT: -7.987929667      3.119      6.401
REMARK  17 active torsions:
REMARK  status: ('A' for Active; 'I' for Inactive)
REMARK    1  A    between atoms: N2_5  and  C4_6
REMARK    2  A    between atoms: C4_6  and  N3_8
REMARK       I    between atoms: N3_8  and  C5_10
REMARK       I    between atoms: C5_10  and  N7_33
REMARK       I    between atoms: N4_11  and  C6_13
REMARK    3  A    between atoms: C6_13  and  C7_15
REMARK    4  A    between atoms: C7_15  and  C8_16
REMARK    5  A    between atoms: C8_16  and  C9_17
REMARK    6  A    between atoms: C9_17  and  C10_18
REMARK    7  A    between atoms: C10_18  and  C11_19
REMARK    8  A    between atoms: C11_19  and  C12_20
REMARK    9  A    between atoms: C12_20  and  C13_21
REMARK   10  A    between atoms: C13_21  and  C14_22
REMARK   11  A    between atoms: C14_22  and  C15_23
REMARK   12  A    between atoms: C15_23  and  C16_24
REMARK   13  A    between atoms: C16_24  and  C17_25
REMARK   14  A    between atoms: C17_25  and  C18_26
REMARK   15  A    between atoms: C18_26  and  C19_27
REMARK   16  A    between atoms: C19_27  and  N5_28
REMARK       I    between atoms: N5_28  and  C20_30
REMARK   17  A    between atoms: N7_33  and  N8_35
ROOT
HETATM    1  N3  UNL     1      42.131  12.293 106.095  1.00  0.00    -0.165 N
ATOM      2  H3  UNL     1      42.966  12.185 105.519  1.00  0.00     0.186 HD
HETATM    3  C5  UNL     1      40.906  11.965 105.489  1.00  0.00     0.702 C
HETATM    4  N4  UNL     1      40.572  10.724 105.335  1.00  0.00    -0.158 N
ATOM      5  H4  UNL     1      39.674  10.522 104.893  1.00  0.00     0.187 HD
HETATM    6  C6  UNL     1      41.371   9.631 105.740  1.00  0.00     0.235 C
HETATM    7  O1  UNL     1      42.637   9.785 105.663  1.00  0.00    -0.273 OA
HETATM    8  N7  UNL     1      40.011  12.950 104.980  1.00  0.00    -0.118 N
ATOM      9  H7  UNL     1      40.036  13.898 105.355  1.00  0.00     0.207 HD
ENDROOT
BRANCH   6  10
HETATM   10  C7  UNL     1      40.804   8.332 106.243  1.00  0.00     0.103 C
BRANCH  10  11
HETATM   11  C8  UNL     1      41.900   7.375 106.527  1.00  0.00     0.009 C
BRANCH  11  12
HETATM   12  C9  UNL     1      42.354   7.274 107.947  1.00  0.00     0.000 C
BRANCH  12  13
HETATM   13  C10 UNL     1      43.806   7.638 108.088  1.00  0.00     0.000 C
BRANCH  13  14
HETATM   14  C11 UNL     1      44.344   7.558 109.463  1.00  0.00     0.000 C
BRANCH  14  15
HETATM   15  C12 UNL     1      43.864   8.647 110.384  1.00  0.00     0.000 C
BRANCH  15  16
HETATM   16  C13 UNL     1      43.467   7.916 111.683  1.00  0.00     0.000 C
BRANCH  16  17
HETATM   17  C14 UNL     1      42.187   8.450 112.228  1.00  0.00     0.000 C
BRANCH  17  18
HETATM   18  C15 UNL     1      41.090   8.259 111.215  1.00  0.00     0.000 C
BRANCH  18  19
HETATM   19  C16 UNL     1      40.355   9.520 110.908  1.00  0.00     0.000 C
BRANCH  19  20
HETATM   20  C17 UNL     1      39.863   9.591 109.459  1.00  0.00     0.002 C
BRANCH  20  21
HETATM   21  C18 UNL     1      38.883   8.455 109.254  1.00  0.00     0.020 C
BRANCH  21  22
HETATM   22  C19 UNL     1      37.784   8.769 108.303  1.00  0.00     0.124 C
BRANCH  22  23
HETATM   23  N5  UNL     1      37.640  10.152 107.950  1.00  0.00    -0.345 N
HETATM   24  C20 UNL     1      37.573  10.571 106.603  1.00  0.00     0.328 C
HETATM   25  N6  UNL     1      37.431  11.934 106.274  1.00  0.00    -0.040 NA
HETATM   26  O2  UNL     1      37.640   9.721 105.690  1.00  0.00    -0.251 OA
ATOM     27  H5  UNL     1      37.585  10.851 108.691  1.00  0.00     0.163 HD
ENDBRANCH  22  23
ENDBRANCH  21  22
ENDBRANCH  20  21
ENDBRANCH  19  20
ENDBRANCH  18  19
ENDBRANCH  17  18
ENDBRANCH  16  17
ENDBRANCH  15  16
ENDBRANCH  14  15
ENDBRANCH  13  14
ENDBRANCH  12  13
ENDBRANCH  11  12
ENDBRANCH  10  11
ENDBRANCH   6  10
BRANCH   1  28
HETATM   28  C4  UNL     1      42.329  12.748 107.393  1.00  0.00     0.188 C
HETATM   29  S1  UNL     1      42.927  11.574 108.477  1.00  0.00    -0.040 SA
BRANCH  28  30
HETATM   30  N2  UNL     1      42.092  14.017 107.891  1.00  0.00    -0.355 N
HETATM   31  C3  UNL     1      43.279  14.912 108.060  1.00  0.00     0.144 C
HETATM   32  C2  UNL     1      42.829  16.246 107.444  1.00  0.00     0.136 C
HETATM   33  N1  UNL     1      41.882  16.800 108.350  1.00  0.00    -0.414 N
HETATM   34  C1  UNL     1      41.184  17.962 107.890  1.00  0.00     0.143 C
HETATM   35  C22 UNL     1      41.139  15.891 109.141  1.00  0.00     0.136 C
HETATM   36  C21 UNL     1      40.863  14.624 108.279  1.00  0.00     0.144 C
ENDBRANCH  28  30
ENDBRANCH   1  28
BRANCH   8  37
HETATM   37  N8  UNL     1      39.100  12.630 103.971  1.00  0.00    -0.235 N
HETATM   38  N9  UNL     1      38.259  13.440 103.479  1.00  0.00    -0.330 N
ATOM     39  H92 UNL     1      38.261  14.387 103.858  1.00  0.00     0.178 HD
ATOM     40  H91 UNL     1      37.594  13.207 102.742  1.00  0.00     0.178 HD
ATOM     41  H8  UNL     1      39.113  11.679 103.604  1.00  0.00     0.208 HD
ENDBRANCH   8  37
TORSDOF 17
ENDMDL