MODEL 5
REMARK VINA RESULT: -8.437730857      3.808      7.538
REMARK  17 active torsions:
REMARK  status: ('A' for Active; 'I' for Inactive)
REMARK    1  A    between atoms: C2_2  and  C3_3
REMARK    2  A    between atoms: C3_3  and  C4_4
REMARK    3  A    between atoms: C3_3  and  C5_7
REMARK    4  A    between atoms: C3_3  and  C19_25
REMARK    5  A    between atoms: C4_4  and  O1_5
REMARK    6  A    between atoms: C5_7  and  C6_8
REMARK    7  A    between atoms: C7_9  and  C8_10
REMARK    8  A    between atoms: C8_10  and  C9_11
REMARK    9  A    between atoms: C9_11  and  C10_12
REMARK   10  A    between atoms: C10_12  and  N1_13
REMARK   11  A    between atoms: N1_13  and  C13_16
REMARK   12  A    between atoms: C13_16  and  C14_17
REMARK   13  A    between atoms: C19_25  and  C20_26
REMARK   14  A    between atoms: C20_26  and  C21_27
REMARK   15  A    between atoms: C21_27  and  N3_28
REMARK       I    between atoms: N3_28  and  C22_30
REMARK   16  A    between atoms: C22_30  and  C23_32
REMARK   17  A    between atoms: C24_37  and  N6_38
ROOT
HETATM    1  C3  UNL     1      42.312  15.421 109.081  1.00  0.00     0.001 C
ENDROOT
BRANCH   1   2
HETATM    2  C2  UNL     1      42.217  16.888 108.919  1.00  0.00    -0.025 C
HETATM    3  C1  UNL     1      41.544  17.434 107.936  1.00  0.00     0.008 C
ENDBRANCH   1   2
BRANCH   1   4
HETATM    4  C4  UNL     1      43.653  15.091 109.707  1.00  0.00     0.177 C
BRANCH   4   5
HETATM    5  O1  UNL     1      44.364  16.247 110.062  1.00  0.00    -0.400 OA
ATOM      6  H1  UNL     1      45.166  16.339 109.560  1.00  0.00     0.209 HD
ENDBRANCH   4   5
ENDBRANCH   1   4
BRANCH   1   7
HETATM    7  C5  UNL     1      41.241  14.886 109.963  1.00  0.00     0.042 C
BRANCH   7   8
HETATM    8  C6  UNL     1      41.792  13.924 110.954  1.00  0.00    -0.029 C
HETATM    9  C7  UNL     1      41.211  12.763 111.184  1.00  0.00    -0.031 C
BRANCH   9  10
HETATM   10  C8  UNL     1      41.777  11.818 112.168  1.00  0.00     0.028 C
BRANCH  10  11
HETATM   11  C9  UNL     1      41.710  10.374 111.801  1.00  0.00     0.032 C
BRANCH  11  12
HETATM   12  C10 UNL     1      42.732   9.776 110.950  1.00  0.00     0.237 C
BRANCH  12  13
HETATM   13  N1  UNL     1      42.446   8.766 110.001  1.00  0.00    -0.073 N
HETATM   14  C11 UNL     1      43.471   8.199 109.221  1.00  0.00     0.272 C
HETATM   15  C12 UNL     1      41.869   7.624 110.769  1.00  0.00     0.272 C
BRANCH  13  16
HETATM   16  C13 UNL     1      41.417   9.297 109.129  1.00  0.00     0.269 C
BRANCH  16  17
HETATM   17  C14 UNL     1      40.312   8.438 108.707  1.00  0.00     0.211 C
HETATM   18  C15 UNL     1      39.031   9.275 108.998  1.00  0.00     0.034 C
HETATM   19  C16 UNL     1      37.814   8.486 108.653  1.00  0.00     0.004 C
HETATM   20  C17 UNL     1      37.834   7.934 107.248  1.00  0.00     0.027 C
HETATM   21  C18 UNL     1      39.168   7.248 107.042  1.00  0.00     0.233 C
HETATM   22  N2  UNL     1      40.196   8.250 107.247  1.00  0.00    -0.069 N
ATOM     23  H22 UNL     1      40.021   9.119 106.740  1.00  0.00     0.277 HD
ATOM     24  H21 UNL     1      41.082   8.019 106.797  1.00  0.00     0.277 HD
ENDBRANCH  16  17
ENDBRANCH  13  16
ENDBRANCH  12  13
ENDBRANCH  11  12
ENDBRANCH  10  11
ENDBRANCH   9  10
ENDBRANCH   7   8
ENDBRANCH   1   7
BRANCH   1  25
HETATM   25  C19 UNL     1      42.222  14.830 107.678  1.00  0.00     0.017 C
BRANCH  25  26
HETATM   26  C20 UNL     1      43.162  13.656 107.487  1.00  0.00     0.021 C
BRANCH  26  27
HETATM   27  C21 UNL     1      42.366  12.521 106.932  1.00  0.00     0.123 C
BRANCH  27  28
HETATM   28  N3  UNL     1      41.176  12.904 106.216  1.00  0.00    -0.354 N
HETATM   29  C22 UNL     1      40.313  11.979 105.593  1.00  0.00     0.287 C
HETATM   30  O2  UNL     1      40.556  10.723 105.633  1.00  0.00    -0.264 OA
ATOM     31  H3  UNL     1      40.945  13.896 106.158  1.00  0.00     0.162 HD
BRANCH  29  32
HETATM   32  C23 UNL     1      39.130  12.472 104.896  1.00  0.00     0.206 A
HETATM   33  N4  UNL     1      39.132  13.194 103.768  1.00  0.00    -0.266 N
HETATM   34  N5  UNL     1      37.893  13.479 103.400  1.00  0.00    -0.130 N
ATOM     35  H4  UNL     1      39.970  13.484 103.263  1.00  0.00     0.189 HD
HETATM   36  C24 UNL     1      37.053  12.928 104.309  1.00  0.00     0.696 A
ATOM     37  H5  UNL     1      37.619  14.018 102.578  1.00  0.00     0.205 HD
HETATM   38  N7  UNL     1      37.836  12.314 105.221  1.00  0.00    -0.165 N
HETATM   39  C26 UNL     1      37.384  11.583 106.387  1.00  0.00     0.177 C
BRANCH  36  40
HETATM   40  N6  UNL     1      35.762  12.963 104.333  1.00  0.00    -0.229 N
HETATM   41  C25 UNL     1      35.049  13.883 103.472  1.00  0.00     0.165 C
ATOM     42  H6  UNL     1      35.246  12.343 104.958  1.00  0.00     0.177 HD
ENDBRANCH  36  40
ENDBRANCH  29  32
ENDBRANCH  27  28
ENDBRANCH  26  27
ENDBRANCH  25  26
ENDBRANCH   1  25
TORSDOF 17
ENDMDL