MODEL 3
REMARK VINA RESULT: -7.884139854      4.007      7.583
REMARK  19 active torsions:
REMARK  status: ('A' for Active; 'I' for Inactive)
REMARK    1  A    between atoms: C2_2  and  N1_3
REMARK    2  A    between atoms: N1_3  and  C3_4
REMARK    3  A    between atoms: N1_3  and  C13_17
REMARK    4  A    between atoms: C3_4  and  C4_5
REMARK    5  A    between atoms: C4_5  and  C5_6
REMARK    6  A    between atoms: C5_6  and  C6_7
REMARK    7  A    between atoms: C6_7  and  C7_8
REMARK    8  A    between atoms: C7_8  and  C8_9
REMARK    9  A    between atoms: C8_9  and  C9_10
REMARK   10  A    between atoms: C9_10  and  C10_11
REMARK   11  A    between atoms: C10_11  and  N2_12
REMARK   12  A    between atoms: C13_17  and  O1_18
REMARK   13  A    between atoms: C13_17  and  N4_20
REMARK   14  A    between atoms: N4_20  and  C14_21
REMARK   15  A    between atoms: C14_21  and  C15_22
REMARK   16  A    between atoms: C15_22  and  C16_23
REMARK   17  A    between atoms: C16_23  and  C17_24
REMARK   18  A    between atoms: C17_24  and  N5_25
REMARK       I    between atoms: N5_25  and  C18_27
REMARK       I    between atoms: N7_29  and  C19_31
REMARK   19  A    between atoms: C19_31  and  C20_33
REMARK       I    between atoms: N8_35  and  C22_36
ROOT
HETATM    1  C14 UNL     1      39.914   9.297 110.057  1.00  0.00     0.159 C
ENDROOT
BRANCH   1   2
HETATM    2  N4  UNL     1      39.516   8.577 108.957  1.00  0.00    -0.382 NA
BRANCH   2   3
HETATM    3  C13 UNL     1      39.142   7.889 107.898  1.00  0.00     0.299 C
BRANCH   3   4
HETATM    4  N1  UNL     1      39.088   8.366 106.473  1.00  0.00    -0.312 N
BRANCH   4   5
HETATM    5  C2  UNL     1      37.819   8.051 105.872  1.00  0.00     0.128 C
HETATM    6  C1  UNL     1      37.466   8.917 104.715  1.00  0.00     0.027 C
ENDBRANCH   4   5
BRANCH   4   7
HETATM    7  C3  UNL     1      40.270   8.919 105.936  1.00  0.00     0.095 C
BRANCH   7   8
HETATM    8  C4  UNL     1      41.538   8.236 105.768  1.00  0.00     0.013 C
BRANCH   8   9
HETATM    9  C5  UNL     1      42.557   8.161 106.801  1.00  0.00    -0.025 C
BRANCH   9  10
HETATM   10  C6  UNL     1      42.687   7.087 107.770  1.00  0.00     0.027 C
BRANCH  10  11
HETATM   11  C7  UNL     1      43.094   7.550 109.171  1.00  0.00     0.004 C
BRANCH  11  12
HETATM   12  C8  UNL     1      44.355   8.351 109.197  1.00  0.00     0.002 C
BRANCH  12  13
HETATM   13  C9  UNL     1      44.247   9.529 110.154  1.00  0.00     0.020 C
BRANCH  13  14
HETATM   14  C10 UNL     1      43.336  10.581 109.581  1.00  0.00     0.120 C
BRANCH  14  15
HETATM   15  N2  UNL     1      43.561  11.886 110.185  1.00  0.00    -0.382 N
HETATM   16  C11 UNL     1      44.363  12.760 109.671  1.00  0.00     0.085 C
HETATM   17  C12 UNL     1      44.514  14.056 110.369  1.00  0.00     0.085 C
HETATM   18  N3  UNL     1      45.090  12.509 108.471  1.00  0.00    -0.088 NA
ATOM     19  H2  UNL     1      43.067  12.121 111.046  1.00  0.00     0.160 HD
ENDBRANCH  14  15
ENDBRANCH  13  14
ENDBRANCH  12  13
ENDBRANCH  11  12
ENDBRANCH  10  11
ENDBRANCH   9  10
ENDBRANCH   8   9
ENDBRANCH   7   8
ENDBRANCH   4   7
ENDBRANCH   3   4
BRANCH   3  20
HETATM   20  O1  UNL     1      38.735   6.648 107.901  1.00  0.00    -0.321 OA
ATOM     21  H1  UNL     1      39.086   6.238 107.119  1.00  0.00     0.222 HD
ENDBRANCH   3  20
ENDBRANCH   2   3
ENDBRANCH   1   2
BRANCH   1  22
HETATM   22  C15 UNL     1      40.494   8.698 111.288  1.00  0.00     0.061 C
BRANCH  22  23
HETATM   23  C16 UNL     1      40.847   9.681 112.369  1.00  0.00     0.026 C
BRANCH  23  24
HETATM   24  C17 UNL     1      41.908   9.249 113.304  1.00  0.00     0.122 C
BRANCH  24  25
HETATM   25  N5  UNL     1      42.721   8.136 112.963  1.00  0.00    -0.364 N
HETATM   26  C18 UNL     1      43.232   7.345 114.088  1.00  0.00     0.190 C
HETATM   27  N6  UNL     1      44.619   7.239 114.267  1.00  0.00    -0.063 NA
HETATM   28  N7  UNL     1      42.355   6.822 114.824  1.00  0.00    -0.301 N
HETATM   29  C19 UNL     1      42.406   6.036 115.944  1.00  0.00     0.231 C
ATOM     30  H7  UNL     1      41.403   7.029 114.522  1.00  0.00     0.171 HD
HETATM   31  O2  UNL     1      41.518   6.278 116.853  1.00  0.00    -0.273 OA
ATOM     32  H5  UNL     1      42.937   7.901 111.993  1.00  0.00     0.162 HD
BRANCH  29  33
HETATM   33  C20 UNL     1      43.343   4.964 116.226  1.00  0.00     0.114 C
HETATM   34  C21 UNL     1      42.804   3.909 117.207  1.00  0.00     0.141 C
HETATM   35  N8  UNL     1      44.132   3.803 117.749  1.00  0.00    -0.354 N
HETATM   36  C22 UNL     1      44.863   2.802 118.429  1.00  0.00     0.184 C
HETATM   37  C23 UNL     1      44.381   5.159 117.286  1.00  0.00     0.141 C
HETATM   38  N9  UNL     1      44.917   2.818 119.713  1.00  0.00    -0.374 N
HETATM   39  N10 UNL     1      45.551   1.762 117.757  1.00  0.00    -0.064 NA
ATOM     40  H92 UNL     1      44.421   3.567 120.197  1.00  0.00     0.158 HD
ATOM     41  H91 UNL     1      45.445   2.096 120.204  1.00  0.00     0.158 HD
ENDBRANCH  29  33
ENDBRANCH  24  25
ENDBRANCH  23  24
ENDBRANCH  22  23
ENDBRANCH   1  22
TORSDOF 19
ENDMDL