MODEL 4
REMARK VINA RESULT: -8.258339201      2.240      4.692
REMARK  16 active torsions:
REMARK  status: ('A' for Active; 'I' for Inactive)
REMARK    1  A    between atoms: C3_3  and  C4_4
REMARK    2  A    between atoms: C4_4  and  N1_5
REMARK       I    between atoms: N2_8  and  C7_9
REMARK       I    between atoms: C7_9  and  N3_11
REMARK    3  A    between atoms: N3_11  and  C8_13
REMARK    4  A    between atoms: C8_13  and  C9_14
REMARK    5  A    between atoms: C9_14  and  C10_15
REMARK    6  A    between atoms: C10_15  and  C11_16
REMARK    7  A    between atoms: C11_16  and  C12_17
REMARK    8  A    between atoms: C12_17  and  C13_18
REMARK    9  A    between atoms: C13_18  and  C14_19
REMARK   10  A    between atoms: C14_19  and  N4_20
REMARK       I    between atoms: N4_20  and  C15_22
REMARK   11  A    between atoms: N8_31  and  C18_32
REMARK   12  A    between atoms: C19_33  and  C20_34
REMARK   13  A    between atoms: C20_34  and  C21_35
REMARK   14  A    between atoms: C21_35  and  C22_36
REMARK   15  A    between atoms: C22_36  and  C23_37
REMARK   16  A    between atoms: N9_39  and  N10_41
ROOT
HETATM    1  C1  UNL     1      39.944  17.805 112.654  1.00  0.00     0.019 C
HETATM    2  C2  UNL     1      40.141  16.693 113.058  1.00  0.00    -0.057 C
HETATM    3  C3  UNL     1      40.381  15.313 113.532  1.00  0.00     0.117 C
HETATM    4  N9  UNL     1      40.591  15.177 114.759  1.00  0.00    -0.298 N
ATOM      5  H9  UNL     1      40.760  14.247 115.143  1.00  0.00     0.187 HD
ENDROOT
BRANCH   3   6
HETATM    6  C4  UNL     1      40.332  14.253 112.516  1.00  0.00     0.156 C
BRANCH   6   7
HETATM    7  N1  UNL     1      41.380  14.142 111.589  1.00  0.00    -0.258 N
HETATM    8  C5  UNL     1      42.627  13.725 112.023  1.00  0.00     0.110 C
HETATM    9  C6  UNL     1      43.265  12.641 111.172  1.00  0.00     0.199 C
HETATM   10  N2  UNL     1      42.232  11.797 110.576  1.00  0.00    -0.127 N
HETATM   11  C7  UNL     1      42.222  10.418 110.742  1.00  0.00     0.337 C
HETATM   12  C17 UNL     1      41.252  12.516 109.770  1.00  0.00     0.703 C
HETATM   13  O1  UNL     1      43.213   9.947 111.418  1.00  0.00    -0.246 OA
HETATM   14  N3  UNL     1      41.293   9.502 110.272  1.00  0.00    -0.342 N
ATOM     15  H3  UNL     1      40.486   9.848 109.753  1.00  0.00     0.164 HD
HETATM   16  N7  UNL     1      40.764  12.032 108.762  1.00  0.00    -0.232 N
HETATM   17  N8  UNL     1      41.001  13.850 110.272  1.00  0.00    -0.092 N
ATOM     18  H72 UNL     1      40.941  11.092 108.408  1.00  0.00     0.174 HD
ATOM     19  H71 UNL     1      40.079  12.534 108.197  1.00  0.00     0.174 HD
BRANCH  14  20
HETATM   20  C8  UNL     1      41.419   8.052 110.488  1.00  0.00     0.124 C
BRANCH  20  21
HETATM   21  C9  UNL     1      41.025   7.283 109.292  1.00  0.00     0.020 C
BRANCH  21  22
HETATM   22  C10 UNL     1      40.899   7.913 107.977  1.00  0.00     0.002 C
BRANCH  22  23
HETATM   23  C11 UNL     1      41.736   7.563 106.828  1.00  0.00     0.000 C
BRANCH  23  24
HETATM   24  C12 UNL     1      41.746   8.379 105.591  1.00  0.00     0.002 C
BRANCH  24  25
HETATM   25  C13 UNL     1      40.957   9.625 105.662  1.00  0.00     0.020 C
BRANCH  25  26
HETATM   26  C14 UNL     1      41.668  10.926 105.707  1.00  0.00     0.122 C
BRANCH  26  27
HETATM   27  N4  UNL     1      40.953  12.102 105.350  1.00  0.00    -0.365 N
HETATM   28  C15 UNL     1      39.571  12.288 105.352  1.00  0.00     0.183 C
HETATM   29  N5  UNL     1      38.790  12.125 106.512  1.00  0.00    -0.064 NA
HETATM   30  N6  UNL     1      38.970  12.655 104.259  1.00  0.00    -0.369 N
HETATM   31  C16 UNL     1      37.556  12.866 104.175  1.00  0.00     0.148 C
ATOM     32  H6  UNL     1      39.534  12.798 103.421  1.00  0.00     0.161 HD
ATOM     33  H4  UNL     1      41.516  12.902 105.059  1.00  0.00     0.162 HD
ENDBRANCH  26  27
ENDBRANCH  25  26
ENDBRANCH  24  25
ENDBRANCH  23  24
ENDBRANCH  22  23
ENDBRANCH  21  22
ENDBRANCH  20  21
ENDBRANCH  14  20
BRANCH  17  34
HETATM   34  C18 UNL     1      40.370  14.863 109.483  1.00  0.00     0.131 C
HETATM   35  C19 UNL     1      41.100  15.823 108.682  1.00  0.00    -0.007 C
BRANCH  35  36
HETATM   36  C20 UNL     1      42.086  16.780 109.212  1.00  0.00     0.028 C
BRANCH  36  37
HETATM   37  C21 UNL     1      41.390  18.163 109.417  1.00  0.00     0.004 C
BRANCH  37  38
HETATM   38  C22 UNL     1      40.602  18.585 108.242  1.00  0.00    -0.000 C
BRANCH  38  39
HETATM   39  C23 UNL     1      39.246  19.171 108.543  1.00  0.00    -0.005 C
HETATM   40  C24 UNL     1      38.346  18.171 109.212  1.00  0.00     0.005 C
ENDBRANCH  38  39
ENDBRANCH  37  38
ENDBRANCH  36  37
ENDBRANCH  35  36
ENDBRANCH  17  34
ENDBRANCH   6   7
ENDBRANCH   3   6
BRANCH   4  41
HETATM   41  N10 UNL     1      40.597  16.308 115.624  1.00  0.00    -0.344 N
ATOM     42 2H10 UNL     1      41.477  16.591 116.055  1.00  0.00     0.176 HD
ATOM     43 1H10 UNL     1      39.737  16.825 115.810  1.00  0.00     0.176 HD
ENDBRANCH   4  41
TORSDOF 16
ENDMDL