MODEL 5
REMARK VINA RESULT: -8.894682242      3.852      5.432
REMARK  15 active torsions:
REMARK  status: ('A' for Active; 'I' for Inactive)
REMARK    1  A    between atoms: N2_9  and  C7_11
REMARK    2  A    between atoms: C7_11  and  C8_12
REMARK    3  A    between atoms: C8_12  and  C9_13
REMARK    4  A    between atoms: C9_13  and  C10_14
REMARK    5  A    between atoms: C10_14  and  N3_15
REMARK    6  A    between atoms: N3_15  and  C11_16
REMARK    7  A    between atoms: C11_16  and  C12_17
REMARK    8  A    between atoms: C12_17  and  N4_18
REMARK       I    between atoms: C13_20  and  N6_22
REMARK    9  A    between atoms: N6_22  and  C14_24
REMARK   10  A    between atoms: C14_24  and  C15_25
REMARK   11  A    between atoms: C15_25  and  C16_26
REMARK   12  A    between atoms: C16_26  and  C17_27
REMARK   13  A    between atoms: C17_27  and  C18_28
REMARK   14  A    between atoms: C18_28  and  C19_29
REMARK   15  A    between atoms: C19_29  and  N7_30
ROOT
HETATM    1  N3  UNL     1      42.566   8.291 110.139  1.00  0.00    -0.062 N
HETATM    2  C21 UNL     1      41.257   7.638 110.036  1.00  0.00     0.238 C
HETATM    3  C22 UNL     1      41.229   6.531 109.041  1.00  0.00     0.028 C
HETATM    4  C23 UNL     1      41.615   7.135 107.707  1.00  0.00     0.004 C
HETATM    5  C24 UNL     1      43.074   7.499 107.841  1.00  0.00     0.033 C
HETATM    6  C25 UNL     1      43.506   7.691 109.282  1.00  0.00     0.186 C
HETATM    7  C26 UNL     1      44.889   8.267 109.363  1.00  0.00     0.040 C
ENDROOT
BRANCH   1   8
HETATM    8  C10 UNL     1      42.366   9.702 110.036  1.00  0.00     0.238 C
BRANCH   8   9
HETATM    9  C9  UNL     1      41.082  10.286 109.676  1.00  0.00     0.030 C
BRANCH   9  10
HETATM   10  C8  UNL     1      41.146  11.796 109.523  1.00  0.00     0.021 C
BRANCH  10  11
HETATM   11  C7  UNL     1      41.264  12.526 110.845  1.00  0.00     0.121 C
BRANCH  11  12
HETATM   12  N2  UNL     1      41.126  13.938 110.741  1.00  0.00    -0.376 N
HETATM   13  C6  UNL     1      40.759  14.772 111.616  1.00  0.00     0.103 A
HETATM   14  C5  UNL     1      40.383  14.412 113.000  1.00  0.00     0.065 A
HETATM   15  N10 UNL     1      40.682  16.155 111.313  1.00  0.00    -0.329 N
HETATM   16  C4  UNL     1      40.007  15.326 113.869  1.00  0.00     0.093 A
HETATM   17  N1  UNL     1      39.924  16.702 113.581  1.00  0.00    -0.352 N
HETATM   18  C3  UNL     1      40.269  17.142 112.270  1.00  0.00     0.102 A
ATOM     19  H1  UNL     1      39.625  17.369 114.293  1.00  0.00     0.166 HD
HETATM   20  C2  UNL     1      40.200  18.417 111.973  1.00  0.00     0.017 C
HETATM   21  C1  UNL     1      39.772  19.408 112.968  1.00  0.00     0.040 C
ATOM     22  H10 UNL     1      40.930  16.462 110.373  1.00  0.00     0.169 HD
ATOM     23  H2  UNL     1      41.356  14.334 109.830  1.00  0.00     0.161 HD
ENDBRANCH  11  12
ENDBRANCH  10  11
ENDBRANCH   9  10
ENDBRANCH   8   9
ENDBRANCH   1   8
BRANCH   1  24
HETATM   24  C11 UNL     1      42.956   8.074 111.517  1.00  0.00     0.257 C
BRANCH  24  25
HETATM   25  C12 UNL     1      41.891   7.883 112.514  1.00  0.00     0.150 C
BRANCH  25  26
HETATM   26  N4  UNL     1      42.443   8.075 113.844  1.00  0.00    -0.363 N
HETATM   27  C13 UNL     1      42.753   7.048 114.538  1.00  0.00     0.184 C
HETATM   28  N5  UNL     1      42.532   5.745 113.955  1.00  0.00    -0.064 NA
HETATM   29  N6  UNL     1      43.302   7.085 115.857  1.00  0.00    -0.365 N
ATOM     30  H6  UNL     1      42.662   6.990 116.645  1.00  0.00     0.162 HD
ATOM     31  H4  UNL     1      42.581   9.014 114.218  1.00  0.00     0.162 HD
BRANCH  29  32
HETATM   32  C14 UNL     1      44.682   7.245 116.137  1.00  0.00     0.122 C
BRANCH  32  33
HETATM   33  C15 UNL     1      45.552   6.054 116.003  1.00  0.00     0.020 C
BRANCH  33  34
HETATM   34  C16 UNL     1      45.204   4.840 116.796  1.00  0.00     0.002 C
BRANCH  34  35
HETATM   35  C17 UNL     1      45.949   4.680 118.045  1.00  0.00     0.002 C
BRANCH  35  36
HETATM   36  C18 UNL     1      45.205   4.974 119.326  1.00  0.00     0.020 C
BRANCH  36  37
HETATM   37  C19 UNL     1      43.753   5.187 119.248  1.00  0.00     0.122 C
BRANCH  37  38
HETATM   38  N7  UNL     1      42.924   4.027 119.198  1.00  0.00    -0.367 N
HETATM   39  C20 UNL     1      41.875   3.945 118.429  1.00  0.00     0.196 C
HETATM   40  N8  UNL     1      41.079   2.767 118.412  1.00  0.00    -0.067 NA
HETATM   41  N9  UNL     1      41.570   5.068 117.625  1.00  0.00    -0.067 NA
ATOM     42  H7  UNL     1      43.162   3.229 119.788  1.00  0.00     0.161 HD
ENDBRANCH  37  38
ENDBRANCH  36  37
ENDBRANCH  35  36
ENDBRANCH  34  35
ENDBRANCH  33  34
ENDBRANCH  32  33
ENDBRANCH  29  32
ENDBRANCH  25  26
ENDBRANCH  24  25
ENDBRANCH   1  24
TORSDOF 15
ENDMDL