MODEL 5
REMARK VINA RESULT: -7.010805822      6.475      9.763
REMARK  20 active torsions:
REMARK  status: ('A' for Active; 'I' for Inactive)
REMARK    1  A    between atoms: C2_2  and  C3_3
REMARK    2  A    between atoms: C3_3  and  C4_4
REMARK    3  A    between atoms: C4_4  and  C5_5
REMARK    4  A    between atoms: C5_5  and  C6_6
REMARK    5  A    between atoms: C6_6  and  C7_7
REMARK    6  A    between atoms: C7_7  and  C8_8
REMARK    7  A    between atoms: C8_8  and  C9_9
REMARK    8  A    between atoms: C9_9  and  C10_10
REMARK    9  A    between atoms: C10_10  and  C11_11
REMARK   10  A    between atoms: C11_11  and  C12_12
REMARK   11  A    between atoms: C12_12  and  C13_13
REMARK   12  A    between atoms: C14_14  and  C15_15
REMARK   13  A    between atoms: C16_16  and  C17_17
REMARK   14  A    between atoms: C17_17  and  C18_18
REMARK   15  A    between atoms: C18_18  and  N1_19
REMARK   16  A    between atoms: N1_19  and  C19_21
REMARK   17  A    between atoms: C19_21  and  O1_22
REMARK   18  A    between atoms: C20_24  and  N2_25
REMARK   19  A    between atoms: N3_28  and  C23_29
REMARK   20  A    between atoms: C23_29  and  C24_30
ROOT
HETATM    1  C19 UNL     1      42.447   6.307 114.173  1.00  0.00     0.162 C
HETATM    2  C20 UNL     1      42.793   5.238 115.048  1.00  0.00     0.287 C
ENDROOT
BRANCH   1   3
HETATM    3  N1  UNL     1      42.305   7.663 114.367  1.00  0.00    -0.369 N
ATOM      4  H1  UNL     1      41.999   8.015 115.274  1.00  0.00     0.161 HD
BRANCH   3   5
HETATM    5  C18 UNL     1      42.591   8.603 113.279  1.00  0.00     0.134 C
BRANCH   5   6
HETATM    6  C17 UNL     1      41.580   9.682 113.125  1.00  0.00     0.114 C
BRANCH   6   7
HETATM    7  C16 UNL     1      40.663   9.414 111.989  1.00  0.00    -0.091 C
HETATM    8  C15 UNL     1      39.942   9.179 111.051  1.00  0.00    -0.015 C
BRANCH   8   9
HETATM    9  C14 UNL     1      39.126   8.886 109.932  1.00  0.00    -0.015 C
HETATM   10  C13 UNL     1      38.431   8.602 108.980  1.00  0.00    -0.092 C
BRANCH  10  11
HETATM   11  C12 UNL     1      37.604   8.223 107.845  1.00  0.00     0.095 C
BRANCH  11  12
HETATM   12  C11 UNL     1      38.009   9.028 106.636  1.00  0.00     0.012 C
BRANCH  12  13
HETATM   13  C10 UNL     1      38.976   8.210 105.823  1.00  0.00     0.001 C
BRANCH  13  14
HETATM   14  C9  UNL     1      40.207   9.010 105.406  1.00  0.00     0.000 C
BRANCH  14  15
HETATM   15  C8  UNL     1      40.250  10.315 106.165  1.00  0.00     0.000 C
BRANCH  15  16
HETATM   16  C7  UNL     1      41.665  10.551 106.665  1.00  0.00     0.000 C
BRANCH  16  17
HETATM   17  C6  UNL     1      41.748  10.444 108.169  1.00  0.00     0.000 C
BRANCH  17  18
HETATM   18  C5  UNL     1      42.974   9.701 108.629  1.00  0.00     0.000 C
BRANCH  18  19
HETATM   19  C4  UNL     1      42.650   8.286 108.964  1.00  0.00     0.000 C
BRANCH  19  20
HETATM   20  C3  UNL     1      43.217   7.315 107.961  1.00  0.00    -0.000 C
BRANCH  20  21
HETATM   21  C2  UNL     1      42.075   6.576 107.260  1.00  0.00    -0.005 C
HETATM   22  C1  UNL     1      41.019   6.095 108.203  1.00  0.00     0.005 C
ENDBRANCH  20  21
ENDBRANCH  19  20
ENDBRANCH  18  19
ENDBRANCH  17  18
ENDBRANCH  16  17
ENDBRANCH  15  16
ENDBRANCH  14  15
ENDBRANCH  13  14
ENDBRANCH  12  13
ENDBRANCH  11  12
ENDBRANCH  10  11
ENDBRANCH   8   9
ENDBRANCH   6   7
ENDBRANCH   5   6
ENDBRANCH   3   5
ENDBRANCH   1   3
BRANCH   1  23
HETATM   23  O1  UNL     1      42.220   5.914 112.940  1.00  0.00    -0.345 OA
ATOM     24  H1  UNL     1      42.246   4.972 112.821  1.00  0.00     0.219 HD
ENDBRANCH   1  23
BRANCH   2  25
HETATM   25  N2  UNL     1      43.105   5.307 116.408  1.00  0.00     0.065 N
HETATM   26  C21 UNL     1      43.853   6.563 116.719  1.00  0.00     0.304 C
HETATM   27  C22 UNL     1      44.691   6.374 117.943  1.00  0.00     0.303 C
HETATM   28  N3  UNL     1      45.829   5.498 117.627  1.00  0.00     0.102 N
HETATM   29  C25 UNL     1      45.404   4.422 116.780  1.00  0.00     0.330 C
HETATM   30  C26 UNL     1      43.915   4.171 116.770  1.00  0.00     0.350 C
HETATM   31  N5  UNL     1      43.427   3.613 117.980  1.00  0.00    -0.330 N
HETATM   32  C27 UNL     1      42.104   4.109 118.133  1.00  0.00     0.196 C
ATOM     33  H5  UNL     1      43.924   2.985 118.611  1.00  0.00     0.164 HD
HETATM   34  N6  UNL     1      41.167   3.623 118.870  1.00  0.00    -0.370 N
HETATM   35  N7  UNL     1      42.043   5.258 117.289  1.00  0.00    -0.180 N
ATOM     36  H62 UNL     1      41.210   2.802 119.473  1.00  0.00     0.159 HD
ATOM     37  H61 UNL     1      40.217   3.980 118.980  1.00  0.00     0.159 HD
ATOM     38  H7  UNL     1      41.303   5.959 117.333  1.00  0.00     0.197 HD
BRANCH  28  39
HETATM   39  C23 UNL     1      46.361   5.033 118.876  1.00  0.00     0.371 C
BRANCH  39  40
HETATM   40  C24 UNL     1      46.940   6.133 119.657  1.00  0.00     0.259 C
HETATM   41  N4  UNL     1      46.709   6.213 121.064  1.00  0.00    -0.061 NA
HETATM   42  O2  UNL     1      47.640   7.031 119.157  1.00  0.00    -0.275 OA
ENDBRANCH  39  40
ENDBRANCH  28  39
ENDBRANCH   2  25
TORSDOF 20
ENDMDL