MODEL 1
REMARK VINA RESULT: -8.663730611      0.000      0.000
REMARK  17 active torsions:
REMARK  status: ('A' for Active; 'I' for Inactive)
REMARK    1  A    between atoms: C2_2  and  C3_3
REMARK    2  A    between atoms: C3_3  and  C4_4
REMARK    3  A    between atoms: C4_4  and  C5_5
REMARK    4  A    between atoms: C5_5  and  C6_6
REMARK    5  A    between atoms: C6_6  and  C7_7
REMARK    6  A    between atoms: C7_7  and  C8_8
REMARK    7  A    between atoms: C8_8  and  C9_9
REMARK    8  A    between atoms: C9_9  and  C10_10
REMARK    9  A    between atoms: C10_10  and  N1_11
REMARK   10  A    between atoms: N1_11  and  C11_12
REMARK   11  A    between atoms: C11_12  and  C12_13
REMARK       I    between atoms: C12_13  and  N2_15
REMARK   12  A    between atoms: N2_15  and  C13_17
REMARK   13  A    between atoms: C13_17  and  C14_18
REMARK   14  A    between atoms: C14_18  and  N3_19
REMARK   15  A    between atoms: C14_18  and  N4_23
REMARK   16  A    between atoms: C21_34  and  C23_36
REMARK   17  A    between atoms: C23_36  and  N6_37
ROOT
HETATM    1  N1  UNL     1      41.393   9.779 110.674  1.00  0.00    -0.035 N
HETATM    2  C15 UNL     1      42.719   9.384 110.338  1.00  0.00     0.241 C
HETATM    3  C16 UNL     1      43.316  10.346 109.280  1.00  0.00     0.056 C
HETATM    4  C17 UNL     1      43.470  11.653 109.998  1.00  0.00     0.241 C
HETATM    5  N5  UNL     1      42.199  12.130 110.449  1.00  0.00    -0.042 N
HETATM    6  C18 UNL     1      42.500  13.099 111.518  1.00  0.00     0.239 C
HETATM    7  C19 UNL     1      43.478  14.150 111.094  1.00  0.00     0.029 C
HETATM    8  C20 UNL     1      42.879  14.987 109.995  1.00  0.00     0.014 C
HETATM    9  C21 UNL     1      41.697  14.350 109.369  1.00  0.00    -0.004 C
HETATM   10  C22 UNL     1      40.440  15.019 109.959  1.00  0.00     0.018 C
HETATM   11  C25 UNL     1      41.596  12.882 109.370  1.00  0.00     0.250 C
HETATM   12  C26 UNL     1      41.268  11.201 110.929  1.00  0.00     0.473 C
ENDROOT
BRANCH   1  13
HETATM   13  C10 UNL     1      40.462   9.530 109.598  1.00  0.00     0.240 C
BRANCH  13  14
HETATM   14  C9  UNL     1      39.567   8.385 109.575  1.00  0.00     0.028 C
BRANCH  14  15
HETATM   15  C8  UNL     1      39.747   7.354 108.500  1.00  0.00     0.002 C
BRANCH  15  16
HETATM   16  C7  UNL     1      41.156   6.784 108.493  1.00  0.00     0.000 C
BRANCH  16  17
HETATM   17  C6  UNL     1      41.770   6.719 107.130  1.00  0.00     0.000 C
BRANCH  17  18
HETATM   18  C5  UNL     1      42.223   8.085 106.643  1.00  0.00     0.000 C
BRANCH  18  19
HETATM   19  C4  UNL     1      41.546   8.399 105.335  1.00  0.00     0.000 C
BRANCH  19  20
HETATM   20  C3  UNL     1      40.349   9.293 105.570  1.00  0.00    -0.000 C
BRANCH  20  21
HETATM   21  C2  UNL     1      39.237   9.053 104.580  1.00  0.00    -0.005 C
HETATM   22  C1  UNL     1      38.097   8.378 105.348  1.00  0.00     0.005 C
ENDBRANCH  20  21
ENDBRANCH  19  20
ENDBRANCH  18  19
ENDBRANCH  17  18
ENDBRANCH  16  17
ENDBRANCH  15  16
ENDBRANCH  14  15
ENDBRANCH  13  14
ENDBRANCH   1  13
BRANCH   1  23
HETATM   23  C11 UNL     1      40.943   9.106 111.858  1.00  0.00     0.341 C
BRANCH  23  24
HETATM   24  C12 UNL     1      41.776   8.046 112.438  1.00  0.00     0.243 C
HETATM   25  O1  UNL     1      42.051   6.964 111.914  1.00  0.00    -0.272 OA
HETATM   26  N2  UNL     1      42.305   8.314 113.730  1.00  0.00    -0.356 N
ATOM     27  H2  UNL     1      42.105   9.194 114.206  1.00  0.00     0.162 HD
BRANCH  26  28
HETATM   28  C13 UNL     1      43.133   7.305 114.346  1.00  0.00     0.184 C
BRANCH  28  29
HETATM   29  C14 UNL     1      42.305   6.201 114.966  1.00  0.00     0.395 C
BRANCH  29  30
HETATM   30  N3  UNL     1      41.814   6.577 116.273  1.00  0.00    -0.049 N
ATOM     31  H33 UNL     1      42.394   7.302 116.696  1.00  0.00     0.276 HD
ATOM     32  H32 UNL     1      40.938   7.096 116.207  1.00  0.00     0.276 HD
ATOM     33  H31 UNL     1      41.723   5.767 116.886  1.00  0.00     0.276 HD
ENDBRANCH  29  30
BRANCH  29  34
HETATM   34  N4  UNL     1      43.157   5.044 115.089  1.00  0.00    -0.049 N
ATOM     35  H43 UNL     1      42.768   4.213 114.644  1.00  0.00     0.276 HD
ATOM     36  H42 UNL     1      44.005   5.111 114.524  1.00  0.00     0.276 HD
ATOM     37  H41 UNL     1      43.348   4.913 116.082  1.00  0.00     0.276 HD
ENDBRANCH  29  34
ENDBRANCH  28  29
ENDBRANCH  26  28
ENDBRANCH  23  24
ENDBRANCH   1  23
BRANCH   9  38
HETATM   38  C23 UNL     1      41.721  14.775 107.882  1.00  0.00     0.132 C
BRANCH  38  39
HETATM   39  N6  UNL     1      41.621  13.647 107.019  1.00  0.00    -0.366 N
HETATM   40  C24 UNL     1      42.637  13.052 106.498  1.00  0.00     0.196 C
HETATM   41  N7  UNL     1      43.941  13.551 106.804  1.00  0.00    -0.067 NA
HETATM   42  N8  UNL     1      42.539  11.937 105.642  1.00  0.00    -0.067 NA
ATOM     43  H6  UNL     1      40.691  13.288 106.801  1.00  0.00     0.161 HD
ENDBRANCH  38  39
ENDBRANCH   9  38
TORSDOF 17
ENDMDL