MODEL 2
REMARK VINA RESULT: -8.637858933      1.385      1.713
REMARK  14 active torsions:
REMARK  status: ('A' for Active; 'I' for Inactive)
REMARK    1  A    between atoms: N1_2  and  C2_3
REMARK       I    between atoms: N1_2  and  C23_37
REMARK    2  A    between atoms: C2_3  and  C3_4
REMARK    3  A    between atoms: C3_4  and  C4_5
REMARK    4  A    between atoms: C4_5  and  C5_6
REMARK    5  A    between atoms: C5_6  and  C6_7
REMARK    6  A    between atoms: C6_7  and  C7_8
REMARK    7  A    between atoms: C7_8  and  C8_9
REMARK    8  A    between atoms: C8_9  and  C9_10
REMARK    9  A    between atoms: C9_10  and  N2_11
REMARK       I    between atoms: N2_11  and  C10_13
REMARK       I    between atoms: C10_13  and  N3_15
REMARK       I    between atoms: N4_18  and  C13_19
REMARK   10  A    between atoms: C15_25  and  C16_26
REMARK       I    between atoms: C16_26  and  N7_28
REMARK   11  A    between atoms: N7_28  and  C17_30
REMARK   12  A    between atoms: C17_30  and  C18_31
REMARK   13  A    between atoms: C18_31  and  C19_32
REMARK   14  A    between atoms: C19_32  and  N8_33
ROOT
HETATM    1  N2  UNL     1      39.168   8.128 106.906  1.00  0.00    -0.343 N
ATOM      2  H2  UNL     1      38.937   7.685 106.017  1.00  0.00     0.164 HD
HETATM    3  C10 UNL     1      39.457   9.506 106.897  1.00  0.00     0.319 C
HETATM    4  O1  UNL     1      39.761  10.092 108.000  1.00  0.00    -0.247 OA
HETATM    5  N3  UNL     1      39.447  10.327 105.754  1.00  0.00    -0.318 N
HETATM    6  C11 UNL     1      39.128   9.801 104.460  1.00  0.00     0.148 C
HETATM    7  C12 UNL     1      37.970  10.587 103.846  1.00  0.00     0.145 C
HETATM    8  N4  UNL     1      38.039  11.979 104.252  1.00  0.00    -0.352 N
HETATM    9  C13 UNL     1      36.920  12.848 104.267  1.00  0.00     0.184 C
HETATM   10  N5  UNL     1      35.890  12.512 104.950  1.00  0.00    -0.374 N
ATOM     11  H51 UNL     1      35.084  13.137 104.962  1.00  0.00     0.158 HD
ATOM     12  H52 UNL     1      35.892  11.633 105.467  1.00  0.00     0.158 HD
HETATM   13  N6  UNL     1      36.918  14.067 103.550  1.00  0.00    -0.064 NA
HETATM   14  C14 UNL     1      39.320  12.474 104.654  1.00  0.00     0.160 C
HETATM   15  C15 UNL     1      39.765  11.726 105.885  1.00  0.00     0.199 C
ENDROOT
BRANCH  15  16
HETATM   16  C16 UNL     1      41.203  11.943 106.211  1.00  0.00     0.242 C
HETATM   17  O2  UNL     1      42.120  11.556 105.445  1.00  0.00    -0.271 OA
HETATM   18  N7  UNL     1      41.566  12.601 107.407  1.00  0.00    -0.359 N
ATOM     19  H7  UNL     1      40.839  12.922 108.046  1.00  0.00     0.162 HD
BRANCH  18  20
HETATM   20  C17 UNL     1      42.944  12.823 107.735  1.00  0.00     0.124 C
BRANCH  20  21
HETATM   21  C18 UNL     1      43.323  12.541 109.155  1.00  0.00     0.047 C
BRANCH  21  22
HETATM   22  C19 UNL     1      42.020  12.271 109.900  1.00  0.00     0.237 C
BRANCH  22  23
HETATM   23  N8  UNL     1      41.918  13.020 111.119  1.00  0.00    -0.079 N
HETATM   24  C20 UNL     1      43.209  13.676 111.334  1.00  0.00     0.271 C
HETATM   25  C21 UNL     1      40.872  13.999 110.972  1.00  0.00     0.271 C
HETATM   26  C22 UNL     1      41.675  12.184 112.283  1.00  0.00     0.271 C
ENDBRANCH  22  23
ENDBRANCH  21  22
ENDBRANCH  20  21
ENDBRANCH  18  20
ENDBRANCH  15  16
BRANCH   1  27
HETATM   27  C9  UNL     1      39.176   7.286 108.108  1.00  0.00     0.128 C
BRANCH  27  28
HETATM   28  C8  UNL     1      40.002   6.079 107.952  1.00  0.00     0.046 C
BRANCH  28  29
HETATM   29  C7  UNL     1      41.394   6.188 108.408  1.00  0.00    -0.029 C
BRANCH  29  30
HETATM   30  C6  UNL     1      42.432   6.915 107.687  1.00  0.00    -0.031 C
BRANCH  30  31
HETATM   31  C5  UNL     1      42.843   8.280 108.038  1.00  0.00     0.027 C
BRANCH  31  32
HETATM   32  C4  UNL     1      44.179   8.276 108.830  1.00  0.00     0.005 C
BRANCH  32  33
HETATM   33  C3  UNL     1      43.991   7.860 110.254  1.00  0.00     0.020 C
BRANCH  33  34
HETATM   34  C2  UNL     1      43.268   9.007 110.954  1.00  0.00     0.125 C
BRANCH  34  35
HETATM   35  N1  UNL     1      42.102   8.507 111.656  1.00  0.00    -0.360 N
HETATM   36  C1  UNL     1      40.774   8.666 111.085  1.00  0.00     0.152 C
HETATM   37  C23 UNL     1      42.183   7.847 112.915  1.00  0.00     0.183 C
HETATM   38  N9  UNL     1      42.219   8.538 114.024  1.00  0.00    -0.374 N
HETATM   39  N10 UNL     1      42.228   6.443 113.014  1.00  0.00    -0.064 NA
ATOM     40  H92 UNL     1      42.186   9.555 113.953  1.00  0.00     0.158 HD
ATOM     41  H91 UNL     1      42.277   8.065 114.926  1.00  0.00     0.158 HD
ENDBRANCH  34  35
ENDBRANCH  33  34
ENDBRANCH  32  33
ENDBRANCH  31  32
ENDBRANCH  30  31
ENDBRANCH  29  30
ENDBRANCH  28  29
ENDBRANCH  27  28
ENDBRANCH   1  27
TORSDOF 14
ENDMDL