MODEL 4
REMARK VINA RESULT: -5.630794549      4.254      5.220
REMARK  5 active torsions:
REMARK  status: ('A' for Active; 'I' for Inactive)
REMARK    1  A    between atoms: N2_4  and  C1_6
REMARK    2  A    between atoms: C1_6  and  N3_7
REMARK    3  A    between atoms: C1_6  and  C3_16
REMARK       I    between atoms: N3_7  and  C2_9
REMARK       I    between atoms: C2_9  and  N4_11
REMARK    4  A    between atoms: N4_11  and  N5_13
REMARK       I    between atoms: C3_16  and  N6_18
REMARK    5  A    between atoms: N6_18  and  N7_20
ROOT
HETATM    1  C1  UNL     1      44.879  88.623  34.550  1.00  0.00     0.295 C
ENDROOT
BRANCH   1   2
HETATM    2  N2  UNL     1      44.656  88.422  33.148  1.00  0.00    -0.311 N
HETATM    3  N1  UNL     1      43.524  88.238  32.667  1.00  0.00    -0.347 N
ATOM      4  H12 UNL     1      42.733  88.232  33.311  1.00  0.00     0.176 HD
ATOM      5  H11 UNL     1      43.365  88.095  31.670  1.00  0.00     0.176 HD
ATOM      6  H2  UNL     1      45.459  88.430  32.518  1.00  0.00     0.182 HD
ENDBRANCH   1   2
BRANCH   1   7
HETATM    7  N3  UNL     1      45.850  89.705  34.664  1.00  0.00    -0.311 N
HETATM    8  C2  UNL     1      45.694  90.944  34.020  1.00  0.00     0.336 C
HETATM    9  O1  UNL     1      44.692  91.162  33.311  1.00  0.00    -0.246 OA
HETATM   10  N4  UNL     1      46.668  91.952  34.169  1.00  0.00    -0.258 N
ATOM     11  H4  UNL     1      47.485  91.766  34.751  1.00  0.00     0.191 HD
ATOM     12  H3  UNL     1      46.679  89.556  35.238  1.00  0.00     0.166 HD
BRANCH  10  13
HETATM   13  N5  UNL     1      46.550  93.200  33.544  1.00  0.00    -0.341 N
ATOM     14  H52 UNL     1      46.469  93.219  32.527  1.00  0.00     0.177 HD
ATOM     15  H51 UNL     1      46.542  94.072  34.072  1.00  0.00     0.177 HD
ENDBRANCH  10  13
ENDBRANCH   1   7
BRANCH   1  16
HETATM   16  C3  UNL     1      45.512  87.417  35.120  1.00  0.00     0.280 C
HETATM   17  O2  UNL     1      45.649  86.378  34.431  1.00  0.00    -0.267 OA
HETATM   18  N6  UNL     1      45.988  87.395  36.467  1.00  0.00    -0.265 N
ATOM     19  H6  UNL     1      45.883  88.232  37.040  1.00  0.00     0.190 HD
BRANCH  18  20
HETATM   20  N7  UNL     1      46.581  86.283  37.019  1.00  0.00    -0.273 N
HETATM   21  C4  UNL     1      47.165  86.345  38.186  1.00  0.00     0.215 C
HETATM   22  N8  UNL     1      47.181  87.577  38.883  1.00  0.00    -0.065 NA
HETATM   23  N9  UNL     1      47.783  85.224  38.780  1.00  0.00    -0.065 NA
ATOM     24  H7  UNL     1      46.566  85.399  36.510  1.00  0.00     0.189 HD
ENDBRANCH  18  20
ENDBRANCH   1  16
TORSDOF 5
ENDMDL