MODEL 4
REMARK VINA RESULT: -5.460120118      1.889      2.109
REMARK  5 active torsions:
REMARK  status: ('A' for Active; 'I' for Inactive)
REMARK       I    between atoms: C2_2  and  N1_4
REMARK    1  A    between atoms: N1_4  and  C3_6
REMARK    2  A    between atoms: C3_6  and  N2_7
REMARK    3  A    between atoms: C3_6  and  C4_11
REMARK       I    between atoms: C4_11  and  N3_13
REMARK    4  A    between atoms: N3_13  and  N4_15
REMARK       I    between atoms: N4_15  and  C5_16
REMARK       I    between atoms: C5_16  and  N5_18
REMARK    5  A    between atoms: N5_18  and  N6_20
ROOT
HETATM    1  C4  UNL     1      44.946  90.200  33.948  1.00  0.00     0.296 C
HETATM    2  O2  UNL     1      44.353  90.536  32.846  1.00  0.00    -0.267 OA
HETATM    3  N3  UNL     1      44.825  88.792  34.267  1.00  0.00    -0.194 N
ATOM      4  H3  UNL     1      45.300  88.429  35.094  1.00  0.00     0.205 HD
ENDROOT
BRANCH   1   5
HETATM    5  C3  UNL     1      45.633  91.170  34.753  1.00  0.00     0.379 C
BRANCH   5   6
HETATM    6  N1  UNL     1      46.735  91.825  34.082  1.00  0.00    -0.326 N
HETATM    7  C2  UNL     1      47.419  92.938  34.732  1.00  0.00     0.215 C
HETATM    8  C1  UNL     1      48.526  93.566  33.925  1.00  0.00     0.117 C
HETATM    9  O1  UNL     1      47.131  93.364  35.818  1.00  0.00    -0.274 OA
ATOM     10  H1  UNL     1      47.033  91.510  33.159  1.00  0.00     0.165 HD
ENDBRANCH   5   6
BRANCH   5  11
HETATM   11  N2  UNL     1      44.597  92.256  34.993  1.00  0.00    -0.049 N
ATOM     12  H23 UNL     1      44.412  92.433  35.980  1.00  0.00     0.277 HD
ATOM     13  H22 UNL     1      44.926  93.193  34.761  1.00  0.00     0.277 HD
ATOM     14  H21 UNL     1      43.772  91.970  34.466  1.00  0.00     0.277 HD
ENDBRANCH   5  11
ENDBRANCH   1   5
BRANCH   3  15
HETATM   15  N4  UNL     1      44.132  87.980  33.537  1.00  0.00    -0.261 NA
HETATM   16  C5  UNL     1      43.429  87.076  32.741  1.00  0.00     0.430 C
HETATM   17  O3  UNL     1      43.855  85.989  32.191  1.00  0.00    -0.227 OA
HETATM   18  N5  UNL     1      42.021  87.252  32.412  1.00  0.00    -0.245 N
ATOM     19  H5  UNL     1      41.498  88.072  32.719  1.00  0.00     0.192 HD
BRANCH  18  20
HETATM   20  N6  UNL     1      41.414  86.229  31.646  1.00  0.00    -0.340 N
ATOM     21  H62 UNL     1      41.829  85.298  31.597  1.00  0.00     0.177 HD
ATOM     22  H61 UNL     1      40.554  86.473  31.155  1.00  0.00     0.177 HD
ENDBRANCH  18  20
ENDBRANCH   3  15
TORSDOF 5
ENDMDL