MODEL 5
REMARK VINA RESULT: -4.679631439      2.454      3.398
REMARK  4 active torsions:
REMARK  status: ('A' for Active; 'I' for Inactive)
REMARK    1  A    between atoms: N1_1  and  N2_4
REMARK    2  A    between atoms: N2_4  and  C1_6
REMARK    3  A    between atoms: C1_6  and  C2_8
REMARK    4  A    between atoms: C2_8  and  N3_9
ROOT
HETATM    1  C2  UNL     1      45.339  92.112  34.734  1.00  0.00     0.236 C
HETATM    2  N6  UNL     1      46.064  92.745  33.650  1.00  0.00    -0.315 N
ATOM      3  H6  UNL     1      45.837  93.027  32.696  1.00  0.00     0.166 HD
HETATM    4  C4  UNL     1      47.211  92.808  34.461  1.00  0.00     0.295 C
HETATM    5  O1  UNL     1      48.467  92.979  34.288  1.00  0.00    -0.264 OA
HETATM    6  C5  UNL     1      46.388  92.595  35.629  1.00  0.00     0.272 C
HETATM    7  O2  UNL     1      46.586  92.778  36.849  1.00  0.00    -0.282 OA
ENDROOT
BRANCH   1   8
HETATM    8  C1  UNL     1      45.211  90.652  34.598  1.00  0.00     0.149 C
HETATM    9  S1  UNL     1      44.547  90.015  33.250  1.00  0.00    -0.059 SA
BRANCH   8  10
HETATM   10  N2  UNL     1      45.651  89.780  35.600  1.00  0.00    -0.296 N
ATOM     11  H2  UNL     1      46.579  89.919  36.000  1.00  0.00     0.187 HD
BRANCH  10  12
HETATM   12  N1  UNL     1      44.858  88.713  36.077  1.00  0.00    -0.344 N
ATOM     13  H12 UNL     1      44.924  87.819  35.592  1.00  0.00     0.176 HD
ATOM     14  H11 UNL     1      44.234  88.811  36.879  1.00  0.00     0.176 HD
ENDBRANCH  10  12
ENDBRANCH   8  10
ENDBRANCH   1   8
BRANCH   1  15
HETATM   15  N3  UNL     1      44.057  92.802  34.866  1.00  0.00    -0.328 N
HETATM   16  C3  UNL     1      43.117  92.497  35.649  1.00  0.00     0.199 C
HETATM   17  N4  UNL     1      41.944  93.336  35.593  1.00  0.00    -0.067 NA
HETATM   18  N5  UNL     1      43.073  91.435  36.574  1.00  0.00    -0.067 NA
ATOM     19  H3  UNL     1      43.907  93.611  34.264  1.00  0.00     0.165 HD
ENDBRANCH   1  15
TORSDOF 4
ENDMDL