MODEL 2
REMARK VINA RESULT: -5.898169053      1.876      2.342
REMARK  4 active torsions:
REMARK  status: ('A' for Active; 'I' for Inactive)
REMARK    1  A    between atoms: C1_2  and  C2_4
REMARK    2  A    between atoms: C2_4  and  N2_5
REMARK    3  A    between atoms: C2_4  and  N3_9
REMARK    4  A    between atoms: N3_9  and  C3_11
ROOT
HETATM    1  C3  UNL     1      44.864  91.223  35.077  1.00  0.00     0.187 A
HETATM    2  N4  UNL     1      45.756  90.334  34.615  1.00  0.00    -0.277 N
ATOM      3  H4  UNL     1      46.562  90.671  34.088  1.00  0.00     0.189 HD
HETATM    4  N5  UNL     1      45.624  89.036  34.821  1.00  0.00    -0.250 N
ATOM      5  H5  UNL     1      46.331  88.403  34.448  1.00  0.00     0.192 HD
HETATM    6  C4  UNL     1      44.588  88.521  35.507  1.00  0.00     0.341 A
HETATM    7  O2  UNL     1      44.480  87.277  35.694  1.00  0.00    -0.245 OA
HETATM    8  N6  UNL     1      43.687  89.411  35.974  1.00  0.00    -0.271 N
ATOM      9  H6  UNL     1      42.887  89.057  36.499  1.00  0.00     0.174 HD
HETATM   10  C5  UNL     1      43.786  90.726  35.786  1.00  0.00     0.294 A
HETATM   11  O3  UNL     1      42.918  91.542  36.240  1.00  0.00    -0.264 OA
ENDROOT
BRANCH   1  12
HETATM   12  N3  UNL     1      44.948  92.483  34.902  1.00  0.00    -0.336 N
ATOM     13  H3  UNL     1      44.099  92.936  34.565  1.00  0.00     0.163 HD
BRANCH  12  14
HETATM   14  C2  UNL     1      46.056  93.349  35.110  1.00  0.00     0.373 C
BRANCH  14  15
HETATM   15  C1  UNL     1      47.135  93.167  34.115  1.00  0.00     0.281 C
HETATM   16  N1  UNL     1      46.836  92.685  32.816  1.00  0.00    -0.059 NA
HETATM   17  O1  UNL     1      48.311  93.437  34.414  1.00  0.00    -0.273 OA
ENDBRANCH  14  15
BRANCH  14  18
HETATM   18  N2  UNL     1      46.618  92.992  36.423  1.00  0.00    -0.050 N
ATOM     19  H23 UNL     1      47.632  92.882  36.408  1.00  0.00     0.277 HD
ATOM     20  H22 UNL     1      46.579  93.756  37.096  1.00  0.00     0.277 HD
ATOM     21  H21 UNL     1      46.129  92.154  36.739  1.00  0.00     0.277 HD
ENDBRANCH  14  18
ENDBRANCH  12  14
ENDBRANCH   1  12
TORSDOF 4
ENDMDL