MODEL 3
REMARK VINA RESULT: -6.400477527      1.535      1.537
REMARK  5 active torsions:
REMARK  status: ('A' for Active; 'I' for Inactive)
REMARK       I    between atoms: C2_2  and  N1_4
REMARK       I    between atoms: N1_4  and  C3_6
REMARK    1  A    between atoms: C3_6  and  C4_8
REMARK    2  A    between atoms: C5_9  and  N2_10
REMARK    3  A    between atoms: N5_17  and  N6_18
REMARK    4  A    between atoms: N6_18  and  N7_20
REMARK    5  A    between atoms: N7_20  and  N8_21
ROOT
HETATM    1  C4  UNL     1      45.631  92.115  34.735  1.00  0.00     0.190 A
HETATM    2  C5  UNL     1      46.546  92.885  34.054  1.00  0.00     0.151 A
HETATM    3  N3  UNL     1      46.550  94.124  34.606  1.00  0.00    -0.268 N
ATOM      4  H3  UNL     1      47.124  94.916  34.317  1.00  0.00     0.190 HD
HETATM    5  N4  UNL     1      45.689  94.109  35.565  1.00  0.00    -0.218 N
ATOM      6  H4  UNL     1      45.485  94.914  36.157  1.00  0.00     0.210 HD
HETATM    7  N5  UNL     1      45.091  92.913  35.697  1.00  0.00    -0.160 N
ENDROOT
BRANCH   1   8
HETATM    8  C3  UNL     1      45.292  90.715  34.487  1.00  0.00     0.282 C
HETATM    9  N1  UNL     1      45.435  89.690  35.414  1.00  0.00    -0.292 N
HETATM   10  C2  UNL     1      45.073  88.357  35.068  1.00  0.00     0.220 C
ATOM     11  H1  UNL     1      45.799  89.893  36.344  1.00  0.00     0.172 HD
HETATM   12  C1  UNL     1      45.203  87.217  36.020  1.00  0.00     0.117 C
HETATM   13  O1  UNL     1      44.619  88.071  33.923  1.00  0.00    -0.274 OA
HETATM   14  O2  UNL     1      44.830  90.368  33.349  1.00  0.00    -0.265 OA
ENDBRANCH   1   8
BRANCH   2  15
HETATM   15  N2  UNL     1      47.305  92.552  33.056  1.00  0.00    -0.382 N
ATOM     16  H22 UNL     1      47.200  91.675  32.545  1.00  0.00     0.157 HD
ATOM     17  H21 UNL     1      48.079  93.070  32.642  1.00  0.00     0.157 HD
ENDBRANCH   2  15
BRANCH   7  18
HETATM   18  N6  UNL     1      44.131  92.621  36.641  1.00  0.00    -0.204 N
ATOM     19  H6  UNL     1      44.412  92.515  37.616  1.00  0.00     0.208 HD
BRANCH  18  20
HETATM   20  N7  UNL     1      42.768  92.463  36.297  1.00  0.00    -0.012 NA
BRANCH  20  21
HETATM   21  N8  UNL     1      42.356  93.577  35.519  1.00  0.00    -0.327 N
ATOM     22  H82 UNL     1      41.561  93.577  34.880  1.00  0.00     0.174 HD
ATOM     23  H81 UNL     1      42.981  94.361  35.706  1.00  0.00     0.174 HD
ENDBRANCH  20  21
ENDBRANCH  18  20
ENDBRANCH   7  18
TORSDOF 5
ENDMDL