MODEL 3
REMARK VINA RESULT: -5.900734021      1.784      3.481
REMARK  3 active torsions:
REMARK  status: ('A' for Active; 'I' for Inactive)
REMARK    1  A    between atoms: N1_1  and  N2_4
REMARK       I    between atoms: N2_4  and  C1_6
REMARK    2  A    between atoms: C1_6  and  C2_8
REMARK    3  A    between atoms: C2_8  and  N3_9
REMARK       I    between atoms: N3_9  and  C3_11
ROOT
HETATM    1  C2  UNL     1      45.943  91.488  34.723  1.00  0.00     0.293 C
HETATM    2  N5  UNL     1      45.088  91.692  33.567  1.00  0.00    -0.248 N
ATOM      3  H5  UNL     1      44.960  92.478  32.930  1.00  0.00     0.178 HD
HETATM    4  S1  UNL     1      44.379  90.157  33.654  1.00  0.00     0.322 S
HETATM    5  O3  UNL     1      42.973  90.114  34.175  1.00  0.00    -0.183 OA
HETATM    6  O4  UNL     1      44.569  89.347  32.396  1.00  0.00    -0.183 OA
HETATM    7  N6  UNL     1      45.642  90.115  34.786  1.00  0.00    -0.248 N
ATOM      8  H6  UNL     1      46.047  89.352  35.330  1.00  0.00     0.178 HD
ENDROOT
BRANCH   1   9
HETATM    9  C1  UNL     1      45.447  92.235  35.937  1.00  0.00     0.308 C
HETATM   10  N2  UNL     1      44.095  92.577  36.069  1.00  0.00    -0.271 N
ATOM     11  H2  UNL     1      43.415  92.327  35.351  1.00  0.00     0.189 HD
HETATM   12  O1  UNL     1      46.277  92.533  36.813  1.00  0.00    -0.265 OA
BRANCH  10  13
HETATM   13  N1  UNL     1      43.704  93.284  37.235  1.00  0.00    -0.342 N
ATOM     14  H12 UNL     1      44.239  93.186  38.098  1.00  0.00     0.176 HD
ATOM     15  H11 UNL     1      42.881  93.882  37.173  1.00  0.00     0.176 HD
ENDBRANCH  10  13
ENDBRANCH   1   9
BRANCH   1  16
HETATM   16  N3  UNL     1      47.283  91.918  34.402  1.00  0.00    -0.292 N
HETATM   17  C3  UNL     1      47.670  93.221  34.015  1.00  0.00     0.332 C
HETATM   18  N4  UNL     1      49.037  93.508  33.723  1.00  0.00    -0.040 NA
HETATM   19  O2  UNL     1      46.847  94.152  33.917  1.00  0.00    -0.251 OA
ATOM     20  H3  UNL     1      48.020  91.215  34.459  1.00  0.00     0.168 HD
ENDBRANCH   1  16
TORSDOF 3
ENDMDL