MODEL 4
REMARK VINA RESULT: -5.915816430      2.063      6.707
REMARK  4 active torsions:
REMARK  status: ('A' for Active; 'I' for Inactive)
REMARK    1  A    between atoms: N3_4  and  N4_6
REMARK       I    between atoms: N4_6  and  C2_8
REMARK    2  A    between atoms: C2_8  and  C3_10
REMARK    3  A    between atoms: C4_13  and  N6_14
REMARK    4  A    between atoms: N6_14  and  C5_16
ROOT
HETATM    1  C3  UNL     1      44.224  89.224  33.134  1.00  0.00     0.206 A
HETATM    2  N5  UNL     1      43.101  88.794  33.757  1.00  0.00    -0.168 N
ATOM      3  H5  UNL     1      42.604  89.297  34.492  1.00  0.00     0.186 HD
HETATM    4  C4  UNL     1      42.743  87.591  33.251  1.00  0.00     0.700 A
HETATM    5  N7  UNL     1      43.647  87.287  32.318  1.00  0.00    -0.130 N
ATOM      6  H7  UNL     1      43.653  86.439  31.752  1.00  0.00     0.205 HD
HETATM    7  N8  UNL     1      44.530  88.262  32.249  1.00  0.00    -0.266 N
ATOM      8  H8  UNL     1      45.329  88.284  31.616  1.00  0.00     0.189 HD
ENDROOT
BRANCH   1   9
HETATM    9  C2  UNL     1      44.929  90.474  33.389  1.00  0.00     0.305 C
HETATM   10  N4  UNL     1      46.026  90.507  34.283  1.00  0.00    -0.261 N
ATOM     11  H4  UNL     1      46.316  89.646  34.746  1.00  0.00     0.190 HD
HETATM   12  O1  UNL     1      44.544  91.516  32.801  1.00  0.00    -0.263 OA
BRANCH  10  13
HETATM   13  N3  UNL     1      46.716  91.680  34.544  1.00  0.00    -0.273 N
HETATM   14  C1  UNL     1      46.410  92.536  35.443  1.00  0.00     0.215 C
HETATM   15  N1  UNL     1      45.292  92.396  36.318  1.00  0.00    -0.065 NA
HETATM   16  N2  UNL     1      47.225  93.684  35.577  1.00  0.00    -0.065 NA
ATOM     17  H3  UNL     1      47.536  91.878  33.971  1.00  0.00     0.189 HD
ENDBRANCH  10  13
ENDBRANCH   1   9
BRANCH   4  18
HETATM   18  N6  UNL     1      41.746  86.841  33.562  1.00  0.00    -0.166 N
ATOM     19  H6  UNL     1      41.229  87.025  34.422  1.00  0.00     0.186 HD
BRANCH  18  20
HETATM   20  C5  UNL     1      41.347  85.748  32.719  1.00  0.00     0.368 C
HETATM   21  O2  UNL     1      41.006  85.963  31.520  1.00  0.00    -0.283 OA
ENDBRANCH  18  20
ENDBRANCH   4  18
TORSDOF 4
ENDMDL