MODEL 5
REMARK VINA RESULT: -5.122013649      2.254      3.629
REMARK  4 active torsions:
REMARK  status: ('A' for Active; 'I' for Inactive)
REMARK    1  A    between atoms: O1_2  and  C2_3
REMARK    2  A    between atoms: C2_3  and  N1_4
REMARK    3  A    between atoms: C4_11  and  N5_12
REMARK    4  A    between atoms: N5_12  and  N6_14
ROOT
HETATM    1  C2  UNL     1      44.350  89.629  34.621  1.00  0.00     0.317 C
HETATM    2  N4  UNL     1      45.538  90.080  33.922  1.00  0.00    -0.164 N
ATOM      3  H4  UNL     1      46.159  89.489  33.368  1.00  0.00     0.183 HD
HETATM    4  C4  UNL     1      45.698  91.475  34.132  1.00  0.00     0.699 C
HETATM    5  N7  UNL     1      44.595  91.922  34.612  1.00  0.00    -0.152 N
ATOM      6  H7  UNL     1      44.439  92.900  34.854  1.00  0.00     0.187 HD
HETATM    7  C5  UNL     1      43.616  90.906  34.767  1.00  0.00     0.315 C
HETATM    8  O2  UNL     1      42.405  91.137  34.981  1.00  0.00    -0.265 OA
ENDROOT
BRANCH   1   9
HETATM    9  O1  UNL     1      43.652  88.678  33.897  1.00  0.00    -0.341 OA
HETATM   10  C1  UNL     1      44.027  88.651  32.555  1.00  0.00     0.207 C
ENDBRANCH   1   9
BRANCH   1  11
HETATM   11  N1  UNL     1      44.760  89.053  35.862  1.00  0.00    -0.309 N
HETATM   12  C3  UNL     1      45.543  88.066  36.022  1.00  0.00     0.201 C
HETATM   13  N2  UNL     1      45.828  87.643  37.352  1.00  0.00    -0.067 NA
HETATM   14  N3  UNL     1      46.167  87.339  34.972  1.00  0.00    -0.067 NA
ATOM     15  H1  UNL     1      44.385  89.481  36.709  1.00  0.00     0.167 HD
ENDBRANCH   1  11
BRANCH   4  16
HETATM   16  N5  UNL     1      46.896  92.229  33.849  1.00  0.00    -0.139 N
ATOM     17  H5  UNL     1      47.805  91.769  33.897  1.00  0.00     0.205 HD
BRANCH  16  18
HETATM   18  N6  UNL     1      46.824  93.579  33.510  1.00  0.00    -0.331 N
ATOM     19  H62 UNL     1      45.951  93.941  33.127  1.00  0.00     0.177 HD
ATOM     20  H61 UNL     1      47.628  94.192  33.642  1.00  0.00     0.177 HD
ENDBRANCH  16  18
ENDBRANCH   4  16
TORSDOF 4
ENDMDL