MODEL 1
REMARK VINA RESULT: -6.779473818      0.000      0.000
REMARK  4 active torsions:
REMARK  status: ('A' for Active; 'I' for Inactive)
REMARK    1  A    between atoms: N2_4  and  N3_6
REMARK       I    between atoms: N3_6  and  C1_8
REMARK       I    between atoms: C1_8  and  N6_14
REMARK       I    between atoms: N4_9  and  C2_11
REMARK    2  A    between atoms: N6_14  and  N7_16
REMARK    3  A    between atoms: C3_18  and  C4_19
REMARK       I    between atoms: C4_19  and  N8_21
REMARK    4  A    between atoms: N8_21  and  N9_23
ROOT
HETATM    1  N3  UNL     1      45.124  93.180  36.841  1.00  0.00    -0.117 N
ATOM      2  H3  UNL     1      45.634  93.498  37.665  1.00  0.00     0.207 HD
HETATM    3  C1  UNL     1      45.870  92.778  35.718  1.00  0.00     0.716 C
HETATM    4  N4  UNL     1      46.789  93.545  35.279  1.00  0.00    -0.141 N
ATOM      5  H4  UNL     1      46.929  94.421  35.782  1.00  0.00     0.189 HD
HETATM    6  C2  UNL     1      47.628  93.315  34.182  1.00  0.00     0.347 C
HETATM    7  N5  UNL     1      47.189  93.281  32.832  1.00  0.00    -0.039 NA
HETATM    8  O1  UNL     1      48.855  93.125  34.387  1.00  0.00    -0.250 OA
HETATM    9  N6  UNL     1      45.595  91.549  35.097  1.00  0.00    -0.131 N
ATOM     10  H6  UNL     1      45.920  91.365  34.148  1.00  0.00     0.205 HD
ENDROOT
BRANCH   1  11
HETATM   11  N2  UNL     1      43.731  93.172  36.896  1.00  0.00    -0.235 N
HETATM   12  N1  UNL     1      43.093  93.902  36.105  1.00  0.00    -0.330 N
ATOM     13  H12 UNL     1      43.597  94.486  35.438  1.00  0.00     0.178 HD
ATOM     14  H11 UNL     1      42.074  93.896  36.146  1.00  0.00     0.178 HD
ATOM     15  H2  UNL     1      43.241  92.584  37.569  1.00  0.00     0.208 HD
ENDBRANCH   1  11
BRANCH   9  16
HETATM   16  N7  UNL     1      44.871  90.584  35.796  1.00  0.00    -0.292 N
HETATM   17  C3  UNL     1      44.343  89.538  35.322  1.00  0.00     0.183 C
ATOM     18  H7  UNL     1      44.756  90.738  36.797  1.00  0.00     0.186 HD
BRANCH  17  19
HETATM   19  C4  UNL     1      44.441  89.214  33.907  1.00  0.00     0.276 C
HETATM   20  O2  UNL     1      44.237  90.160  33.079  1.00  0.00    -0.265 OA
HETATM   21  N8  UNL     1      44.750  87.904  33.456  1.00  0.00    -0.272 N
ATOM     22  H8  UNL     1      44.910  87.157  34.132  1.00  0.00     0.189 HD
BRANCH  21  23
HETATM   23  N9  UNL     1      44.832  87.643  32.113  1.00  0.00    -0.342 N
ATOM     24  H92 UNL     1      44.207  88.133  31.474  1.00  0.00     0.176 HD
ATOM     25  H91 UNL     1      45.511  86.965  31.765  1.00  0.00     0.176 HD
ENDBRANCH  21  23
ENDBRANCH  17  19
ENDBRANCH   9  16
TORSDOF 4
ENDMDL