MODEL 5
REMARK VINA RESULT: -5.674486685      4.472      6.394
REMARK  2 active torsions:
REMARK  status: ('A' for Active; 'I' for Inactive)
REMARK       I    between atoms: C1_2  and  N1_3
REMARK    1  A    between atoms: C1_2  and  C8_13
REMARK    2  A    between atoms: N1_3  and  C2_5
ROOT
HETATM    1  O1  UNL     1      28.068  13.224  20.979  1.00  0.00    -0.271 OA
HETATM    2  C1  UNL     1      27.885  12.165  20.345  1.00  0.00     0.248 C
HETATM    3  N1  UNL     1      26.664  11.898  19.735  1.00  0.00    -0.355 N
ATOM      4  H1  UNL     1      26.590  11.012  19.234  1.00  0.00     0.162 HD
ENDROOT
BRANCH   3   5
HETATM    5  C2  UNL     1      25.498  12.732  19.733  1.00  0.00     0.085 C
HETATM    6  C3  UNL     1      24.677  12.656  18.488  1.00  0.00     0.035 C
HETATM    7  C4  UNL     1      24.229  14.039  18.047  1.00  0.00     0.079 C
HETATM    8  S1  UNL     1      22.837  14.630  19.045  1.00  0.00    -0.132 SA
HETATM    9  C5  UNL     1      22.608  13.589  20.523  1.00  0.00     0.231 C
HETATM   10  F1  UNL     1      21.600  14.140  21.277  1.00  0.00    -0.238 F
HETATM   11  C6  UNL     1      23.859  13.565  21.373  1.00  0.00     0.050 C
HETATM   12  C7  UNL     1      24.689  12.388  20.975  1.00  0.00     0.029 C
ENDBRANCH   3   5
BRANCH   2  13
HETATM   13  C8  UNL     1      29.026  11.228  20.281  1.00  0.00     0.277 C
HETATM   14  C9  UNL     1      28.537   9.803  20.146  1.00  0.00     0.044 C
HETATM   15  C10 UNL     1      28.535   9.263  21.560  1.00  0.00     0.030 C
HETATM   16  C11 UNL     1      29.563  10.106  22.250  1.00  0.00     0.233 C
HETATM   17  N2  UNL     1      29.845  11.245  21.445  1.00  0.00    -0.062 N
ATOM     18  H22 UNL     1      30.837  11.316  21.215  1.00  0.00     0.278 HD
ATOM     19  H21 UNL     1      29.752  12.116  21.967  1.00  0.00     0.278 HD
ENDBRANCH   2  13
TORSDOF 2
ENDMDL