MODEL 1
REMARK VINA RESULT: -5.376973583      0.000      0.000
REMARK  3 active torsions:
REMARK  status: ('A' for Active; 'I' for Inactive)
REMARK    1  A    between atoms: C2_2  and  O1_3
REMARK    2  A    between atoms: C2_2  and  C3_6
REMARK    3  A    between atoms: C4_7  and  N1_8
ROOT
HETATM    1  C3  UNL     1      22.351  11.851  22.943  1.00  0.00     0.226 C
HETATM    2  C4  UNL     1      22.846  12.217  21.663  1.00  0.00     0.216 C
HETATM    3  C8  UNL     1      22.141  13.528  21.244  1.00  0.00     0.055 C
HETATM    4  C9  UNL     1      21.626  14.354  22.349  1.00  0.00     0.134 C
HETATM    5  N2  UNL     1      22.706  14.641  23.276  1.00  0.00    -0.319 N
ATOM      6  H2  UNL     1      23.204  15.521  23.413  1.00  0.00     0.172 HD
HETATM    7  S1  UNL     1      22.943  13.162  24.077  1.00  0.00     0.238 S
HETATM    8  O2  UNL     1      22.058  13.071  25.283  1.00  0.00    -0.205 OA
HETATM    9  O3  UNL     1      24.373  12.896  24.423  1.00  0.00    -0.205 OA
ENDROOT
BRANCH   1  10
HETATM   10  C2  UNL     1      22.595  10.641  23.719  1.00  0.00     0.220 C
HETATM   11  C1  UNL     1      21.480   9.989  24.458  1.00  0.00     0.086 C
HETATM   12  F1  UNL     1      23.364   9.675  23.026  1.00  0.00    -0.211 F
BRANCH  10  13
HETATM   13  O1  UNL     1      23.539  10.940  24.758  1.00  0.00    -0.361 OA
ATOM     14  H1  UNL     1      23.445  10.203  25.350  1.00  0.00     0.213 HD
ENDBRANCH  10  13
ENDBRANCH   1  10
BRANCH   2  15
HETATM   15  N1  UNL     1      22.809  11.479  20.460  1.00  0.00    -0.073 N
HETATM   16  C5  UNL     1      23.967  10.783  20.037  1.00  0.00     0.272 C
HETATM   17  C6  UNL     1      21.645  10.632  20.275  1.00  0.00     0.272 C
HETATM   18  C7  UNL     1      22.602  12.518  19.407  1.00  0.00     0.272 C
ENDBRANCH   2  15
TORSDOF 3
ENDMDL