MODEL 3
REMARK VINA RESULT: -5.499639367      3.021      3.319
REMARK  3 active torsions:
REMARK  status: ('A' for Active; 'I' for Inactive)
REMARK    1  A    between atoms: C1_2  and  C2_3
REMARK       I    between atoms: C1_2  and  N1_5
REMARK    2  A    between atoms: N1_5  and  N2_7
REMARK       I    between atoms: N2_7  and  C3_9
REMARK    3  A    between atoms: C3_9  and  C4_11
ROOT
HETATM    1  N2  UNL     1      21.414  10.082  24.311  1.00  0.00    -0.267 N
ATOM      2  H2  UNL     1      20.757   9.562  23.729  1.00  0.00     0.190 HD
HETATM    3  C3  UNL     1      22.555  10.664  23.722  1.00  0.00     0.240 C
HETATM    4  O2  UNL     1      23.353  11.298  24.446  1.00  0.00    -0.271 OA
ENDROOT
BRANCH   1   5
HETATM    5  N1  UNL     1      21.169  10.208  25.689  1.00  0.00    -0.267 N
HETATM    6  C1  UNL     1      20.279  11.212  26.138  1.00  0.00     0.245 C
HETATM    7  O1  UNL     1      19.717  11.979  25.305  1.00  0.00    -0.271 OA
ATOM      8  H1  UNL     1      21.626   9.584  26.356  1.00  0.00     0.190 HD
BRANCH   6   9
HETATM    9  C2  UNL     1      20.017  11.352  27.588  1.00  0.00     0.189 C
HETATM   10 BR1  UNL     1      21.394  12.407  28.402  1.00  0.00    -0.087 Br
ENDBRANCH   6   9
ENDBRANCH   1   5
BRANCH   3  11
HETATM   11  C4  UNL     1      22.802  10.531  22.299  1.00  0.00     0.084 C
HETATM   12  C5  UNL     1      21.502  10.364  21.486  1.00  0.00     0.019 C
HETATM   13  C6  UNL     1      21.715  11.437  20.468  1.00  0.00    -0.013 C
HETATM   14  C7  UNL     1      23.215  11.373  20.159  1.00  0.00     0.010 C
HETATM   15  C9  UNL     1      22.098  12.629  21.357  1.00  0.00     0.010 C
HETATM   16  C8  UNL     1      23.333  11.764  21.636  1.00  0.00    -0.001 C
ENDBRANCH   3  11
TORSDOF 3
ENDMDL