MODEL 3
REMARK VINA RESULT: -4.671442352      7.633      8.553
REMARK  2 active torsions:
REMARK  status: ('A' for Active; 'I' for Inactive)
REMARK    1  A    between atoms: O1_2  and  C2_3
REMARK    2  A    between atoms: C6_11  and  N2_12
REMARK       I    between atoms: N2_12  and  C7_14
ROOT
HETATM    1  C2  UNL     1      19.051  11.836  26.792  1.00  0.00     0.172 C
HETATM    2  C3  UNL     1      20.299  12.627  26.442  1.00  0.00     0.053 C
HETATM    3  C4  UNL     1      19.946  13.769  25.548  1.00  0.00     0.086 C
HETATM    4 BR1  UNL     1      20.692  13.578  23.776  1.00  0.00    -0.089 Br
HETATM    5  C5  UNL     1      18.477  14.022  25.427  1.00  0.00     0.250 C
HETATM    6  N1  UNL     1      17.696  12.880  25.092  1.00  0.00    -0.051 N
ATOM      7  H11 UNL     1      17.476  12.875  24.096  1.00  0.00     0.279 HD
ATOM      8  H12 UNL     1      16.755  12.963  25.475  1.00  0.00     0.279 HD
HETATM    9  C6  UNL     1      18.298  11.626  25.487  1.00  0.00     0.315 C
ENDROOT
BRANCH   9  10
HETATM   10  N2  UNL     1      17.357  10.550  25.558  1.00  0.00    -0.332 N
HETATM   11  C7  UNL     1      16.786   9.959  24.408  1.00  0.00     0.215 C
HETATM   12  C8  UNL     1      15.813   8.848  24.482  1.00  0.00     0.117 C
HETATM   13  O2  UNL     1      17.115  10.394  23.282  1.00  0.00    -0.274 OA
ATOM     14  H2  UNL     1      17.088  10.195  26.475  1.00  0.00     0.164 HD
ENDBRANCH   9  10
BRANCH   1  15
HETATM   15  O1  UNL     1      18.250  12.506  27.700  1.00  0.00    -0.387 OA
HETATM   16  C1  UNL     1      18.808  12.609  28.962  1.00  0.00     0.202 C
ENDBRANCH   1  15
TORSDOF 2
ENDMDL