MODEL 2
REMARK VINA RESULT: -4.864176130      5.562      7.099
REMARK  3 active torsions:
REMARK  status: ('A' for Active; 'I' for Inactive)
REMARK    1  A    between atoms: C1_2  and  C2_3
REMARK       I    between atoms: C1_2  and  N1_5
REMARK    2  A    between atoms: N1_5  and  N2_6
REMARK       I    between atoms: N2_6  and  C3_8
REMARK    3  A    between atoms: C3_8  and  C4_10
ROOT
HETATM    1  N2  UNL     1      25.065  10.864  20.819  1.00  0.00    -0.198 N
ATOM      2  H2  UNL     1      25.438  10.849  21.769  1.00  0.00     0.205 HD
HETATM    3  C3  UNL     1      25.998  10.745  19.719  1.00  0.00     0.277 C
HETATM    4  O2  UNL     1      25.516  10.762  18.567  1.00  0.00    -0.269 OA
ENDROOT
BRANCH   3   5
HETATM    5  C4  UNL     1      27.409  10.615  19.997  1.00  0.00     0.279 C
HETATM    6  C5  UNL     1      28.090  11.891  20.495  1.00  0.00     0.045 C
HETATM    7  C6  UNL     1      29.460  11.259  20.808  1.00  0.00     0.030 C
HETATM    8  C7  UNL     1      29.009  10.038  21.583  1.00  0.00     0.233 C
HETATM    9  N3  UNL     1      27.753   9.622  20.981  1.00  0.00    -0.062 N
ATOM     10  H32 UNL     1      27.013   9.462  21.665  1.00  0.00     0.278 HD
ATOM     11  H31 UNL     1      27.786   8.675  20.601  1.00  0.00     0.278 HD
ENDBRANCH   3   5
BRANCH   1  12
HETATM   12  N1  UNL     1      23.774  10.989  20.669  1.00  0.00    -0.283 NA
HETATM   13  C1  UNL     1      22.400  11.093  20.485  1.00  0.00     0.322 C
HETATM   14  O1  UNL     1      21.644  10.426  19.747  1.00  0.00    -0.254 OA
BRANCH  13  15
HETATM   15  C2  UNL     1      21.673  12.183  21.302  1.00  0.00     0.206 C
HETATM   16 BR1  UNL     1      22.440  13.871  20.893  1.00  0.00    -0.085 Br
ENDBRANCH  13  15
ENDBRANCH   1  12
TORSDOF 3
ENDMDL