MODEL 4
REMARK VINA RESULT: -6.037533988      3.594      4.806
REMARK  4 active torsions:
REMARK  status: ('A' for Active; 'I' for Inactive)
REMARK       I    between atoms: N1_2  and  C2_4
REMARK    1  A    between atoms: C2_4  and  C3_6
REMARK    2  A    between atoms: C5_8  and  C6_9
REMARK    3  A    between atoms: C9_12  and  C11_14
REMARK    4  A    between atoms: C12_16  and  C13_17
ROOT
HETATM    1  C3  UNL     1      22.600  11.898  22.079  1.00  0.00     0.096 C
HETATM    2  C4  UNL     1      23.532  12.628  21.135  1.00  0.00     0.023 C
HETATM    3  C5  UNL     1      23.947  11.522  20.196  1.00  0.00     0.032 C
HETATM    4  C11 UNL     1      22.977  10.386  20.391  1.00  0.00     0.125 C
HETATM    5  F1  UNL     1      23.493   9.428  21.214  1.00  0.00    -0.241 F
HETATM    6  C12 UNL     1      21.797  11.106  21.044  1.00  0.00     0.140 C
ENDROOT
BRANCH   1   7
HETATM    7  C2  UNL     1      21.766  12.783  22.886  1.00  0.00     0.222 C
HETATM    8  N1  UNL     1      21.578  12.596  24.252  1.00  0.00    -0.365 N
HETATM    9  C1  UNL     1      20.748  13.485  25.033  1.00  0.00     0.149 C
ATOM     10  H1  UNL     1      22.037  11.811  24.714  1.00  0.00     0.161 HD
HETATM   11  O1  UNL     1      21.200  13.751  22.314  1.00  0.00    -0.273 OA
ENDBRANCH   1   7
BRANCH   6  12
HETATM   12  C13 UNL     1      20.835  10.203  21.645  1.00  0.00     0.181 C
HETATM   13  O2  UNL     1      20.075   9.526  20.918  1.00  0.00    -0.648 OA
HETATM   14  O3  UNL     1      20.742  10.075  23.016  1.00  0.00    -0.648 OA
ENDBRANCH   6  12
BRANCH   3  15
HETATM   15  C6  UNL     1      23.832  11.926  18.744  1.00  0.00     0.002 A
HETATM   16  C7  UNL     1      25.128  12.538  18.221  1.00  0.00    -0.004 A
HETATM   17  C8  UNL     1      26.391  12.120  18.909  1.00  0.00     0.013 C
HETATM   18  C10 UNL     1      24.778  11.115  18.010  1.00  0.00     0.002 A
HETATM   19  C9  UNL     1      25.838  10.711  18.982  1.00  0.00     0.032 C
ENDBRANCH   3  15
TORSDOF 4
ENDMDL