MODEL 2
REMARK VINA RESULT: -4.777872019      2.544      3.426
REMARK  3 active torsions:
REMARK  status: ('A' for Active; 'I' for Inactive)
REMARK    1  A    between atoms: C1_2  and  C2_3
REMARK    2  A    between atoms: C2_3  and  N2_4
REMARK    3  A    between atoms: C7_9  and  O1_10
ROOT
HETATM    1  N2  UNL     1      22.817  12.633  21.716  1.00  0.00    -0.058 N
HETATM    2  C3  UNL     1      22.994  13.861  20.964  1.00  0.00     0.238 C
HETATM    3  C4  UNL     1      22.743  13.506  19.497  1.00  0.00     0.037 C
HETATM    4  C5  UNL     1      22.423  12.042  19.602  1.00  0.00     0.044 C
HETATM    5  C6  UNL     1      21.700  12.029  20.959  1.00  0.00     0.245 C
HETATM    6  C7  UNL     1      23.694  11.323  19.978  1.00  0.00     0.150 C
HETATM    7  C8  UNL     1      23.856  11.684  21.462  1.00  0.00     0.270 C
ENDROOT
BRANCH   1   8
HETATM    8  C2  UNL     1      22.477  12.825  23.078  1.00  0.00     0.310 C
BRANCH   8   9
HETATM    9  C1  UNL     1      23.456  12.314  24.047  1.00  0.00     0.125 C
HETATM   10  N1  UNL     1      24.604  13.093  24.350  1.00  0.00    -0.085 NA
HETATM   11  N3  UNL     1      23.320  11.178  24.642  1.00  0.00    -0.313 N
HETATM   12 BR1  UNL     1      21.849  10.040  24.339  1.00  0.00     0.048 Br
ATOM     13  H3  UNL     1      24.038  10.883  25.305  1.00  0.00     0.174 HD
ENDBRANCH   8   9
ENDBRANCH   1   8
BRANCH   6  14
HETATM   14  O1  UNL     1      23.576   9.958  19.807  1.00  0.00    -0.393 OA
ATOM     15  H1  UNL     1      23.869   9.686  18.945  1.00  0.00     0.210 HD
ENDBRANCH   6  14
TORSDOF 3
ENDMDL