MODEL 1
REMARK VINA RESULT: -6.306443185      0.000      0.000
REMARK  3 active torsions:
REMARK  status: ('A' for Active; 'I' for Inactive)
REMARK    1  A    between atoms: C2_2  and  C4_4
REMARK    2  A    between atoms: C4_4  and  N2_8
REMARK    3  A    between atoms: C9_15  and  C10_16
ROOT
HETATM    1  N2  UNL     1      21.827  11.715  23.142  1.00  0.00    -0.342 N
HETATM    2  C5  UNL     1      21.270  12.986  22.751  1.00  0.00     0.154 C
HETATM    3  C6  UNL     1      20.524  13.464  23.953  1.00  0.00     0.259 C
HETATM    4  N3  UNL     1      21.067  12.756  25.065  1.00  0.00    -0.046 N
HETATM    5  C7  UNL     1      19.994  12.298  25.915  1.00  0.00     0.277 C
HETATM    6  C8  UNL     1      20.208  12.910  27.283  1.00  0.00     0.212 C
HETATM    7  F1  UNL     1      19.753  12.104  28.298  1.00  0.00    -0.247 F
HETATM    8  C9  UNL     1      21.742  12.981  27.268  1.00  0.00     0.148 C
HETATM    9  C11 UNL     1      21.936  13.587  25.895  1.00  0.00     0.258 C
HETATM   10  C12 UNL     1      21.878  11.666  24.569  1.00  0.00     0.363 C
ENDROOT
BRANCH   8  11
HETATM   11  C10 UNL     1      22.251  13.843  28.349  1.00  0.00     0.181 C
HETATM   12  O1  UNL     1      21.529  14.500  29.108  1.00  0.00    -0.648 OA
HETATM   13  O2  UNL     1      23.630  13.914  28.514  1.00  0.00    -0.648 OA
ENDBRANCH   8  11
BRANCH   1  14
HETATM   14  C4  UNL     1      22.262  10.664  22.290  1.00  0.00     0.103 C
HETATM   15  N1  UNL     1      23.325   9.983  22.557  1.00  0.00    -0.385 N
ATOM     16  H12 UNL     1      23.638   9.229  21.945  1.00  0.00     0.157 HD
ATOM     17  H11 UNL     1      23.872  10.195  23.392  1.00  0.00     0.157 HD
BRANCH  14  18
HETATM   18  C2  UNL     1      21.485  10.362  21.101  1.00  0.00    -0.028 C
HETATM   19  C1  UNL     1      20.380   9.687  21.217  1.00  0.00     0.022 C
HETATM   20  C3  UNL     1      21.939  10.818  19.769  1.00  0.00     0.051 C
ENDBRANCH  14  18
ENDBRANCH   1  14
TORSDOF 3
ENDMDL