MODEL 1
REMARK VINA RESULT: -5.462612520      0.000      0.000
REMARK  6 active torsions:
REMARK  status: ('A' for Active; 'I' for Inactive)
REMARK    1  A    between atoms: C1_2  and  C2_3
REMARK       I    between atoms: C1_2  and  N2_15
REMARK    2  A    between atoms: C3_4  and  C4_5
REMARK    3  A    between atoms: C5_6  and  C6_7
REMARK       I    between atoms: C6_7  and  N1_9
REMARK    4  A    between atoms: N1_9  and  C7_11
REMARK    5  A    between atoms: N2_15  and  C11_17
REMARK    6  A    between atoms: C11_17  and  C12_18
ROOT
HETATM    1  C12 UNL     1      17.135  12.286  25.330  1.00  0.00    -0.051 C
HETATM    2  C13 UNL     1      16.766  13.437  25.328  1.00  0.00     0.107 C
HETATM    3  F1  UNL     1      16.364  14.712  25.315  1.00  0.00    -0.144 F
ENDROOT
BRANCH   1   4
HETATM    4  C11 UNL     1      17.586  10.881  25.309  1.00  0.00     0.220 C
BRANCH   4   5
HETATM    5  N2  UNL     1      18.823  10.854  24.544  1.00  0.00    -0.340 N
HETATM    6  C1  UNL     1      18.746  10.350  23.217  1.00  0.00     0.298 C
HETATM    7  O1  UNL     1      17.683   9.945  22.709  1.00  0.00    -0.258 OA
ATOM      8  H2  UNL     1      19.704  11.180  24.941  1.00  0.00     0.164 HD
BRANCH   6   9
HETATM    9  C2  UNL     1      19.991  10.329  22.463  1.00  0.00     0.009 C
HETATM   10  C3  UNL     1      21.025  10.333  21.840  1.00  0.00    -0.004 C
BRANCH  10  11
HETATM   11  C4  UNL     1      22.249  10.339  21.125  1.00  0.00    -0.004 C
HETATM   12  C5  UNL     1      23.299  10.361  20.520  1.00  0.00     0.009 C
BRANCH  12  13
HETATM   13  C6  UNL     1      24.553  10.408  19.809  1.00  0.00     0.297 C
HETATM   14  O2  UNL     1      24.570  10.396  18.538  1.00  0.00    -0.258 OA
HETATM   15  N1  UNL     1      25.758  10.467  20.523  1.00  0.00    -0.346 N
ATOM     16  H1  UNL     1      25.735  10.477  21.544  1.00  0.00     0.163 HD
BRANCH  15  17
HETATM   17  C7  UNL     1      27.036  10.515  19.841  1.00  0.00     0.085 C
HETATM   18  C8  UNL     1      27.878  11.724  20.156  1.00  0.00     0.025 C
HETATM   19  C9  UNL     1      28.992  10.822  20.650  1.00  0.00     0.004 C
HETATM   20  C10 UNL     1      28.065   9.641  20.564  1.00  0.00     0.025 C
ENDBRANCH  15  17
ENDBRANCH  12  13
ENDBRANCH  10  11
ENDBRANCH   6   9
ENDBRANCH   4   5
ENDBRANCH   1   4
TORSDOF 6
ENDMDL