MODEL 5
REMARK VINA RESULT: -5.302611300      2.017      2.336
REMARK  2 active torsions:
REMARK  status: ('A' for Active; 'I' for Inactive)
REMARK    1  A    between atoms: N1_7  and  O1_9
REMARK    2  A    between atoms: C7_11  and  O2_12
ROOT
HETATM    1  C1  UNL     1      15.862 -35.828 -24.627  1.00  0.00     0.010 C
HETATM    2  C2  UNL     1      16.514 -36.789 -25.588  1.00  0.00    -0.017 C
HETATM    3  C3  UNL     1      18.010 -36.683 -25.449  1.00  0.00     0.005 C
HETATM    4  C4  UNL     1      18.623 -36.079 -26.699  1.00  0.00     0.006 C
HETATM    5  C5  UNL     1      19.388 -37.142 -27.489  1.00  0.00     0.059 C
HETATM    6  C6  UNL     1      19.170 -36.982 -28.945  1.00  0.00     0.057 C
HETATM    7  N1  UNL     1      19.683 -35.950 -29.512  1.00  0.00    -0.273 N
ATOM      8  H1  UNL     1      20.218 -35.276 -28.965  1.00  0.00     0.193 HD
HETATM    9  C7  UNL     1      18.376 -37.986 -29.744  1.00  0.00     0.263 C
HETATM   10  N2  UNL     1      18.070 -39.068 -28.878  1.00  0.00    -0.382 N
ATOM     11  H2  UNL     1      18.564 -39.202 -27.996  1.00  0.00     0.157 HD
HETATM   12  C8  UNL     1      17.050 -39.951 -29.292  1.00  0.00     0.042 C
HETATM   13  C9  UNL     1      16.526 -39.761 -30.668  1.00  0.00     0.040 C
HETATM   14  C10 UNL     1      17.598 -41.380 -29.200  1.00  0.00     0.040 C
HETATM   15  C11 UNL     1      15.898 -39.849 -28.286  1.00  0.00     0.197 C
HETATM   16  O3  UNL     1      15.914 -38.581 -27.667  1.00  0.00    -0.389 OA
HETATM   17  C12 UNL     1      15.155 -38.669 -26.489  1.00  0.00     0.168 C
HETATM   18  C13 UNL     1      15.994 -38.169 -25.316  1.00  0.00     0.030 C
ENDROOT
BRANCH   7  19
HETATM   19  O1  UNL     1      19.507 -35.766 -30.844  1.00  0.00    -0.290 OA
ATOM     20  H1  UNL     1      19.595 -34.894 -31.209  1.00  0.00     0.244 HD
ENDBRANCH   7  19
BRANCH   9  21
HETATM   21  O2  UNL     1      17.296 -37.317 -30.261  1.00  0.00    -0.372 OA
ATOM     22  H2  UNL     1      16.620 -37.965 -30.417  1.00  0.00     0.212 HD
ENDBRANCH   9  21
TORSDOF 2
ENDMDL