MODEL 5
REMARK VINA RESULT: -5.478318028      4.093      6.033
REMARK  3 active torsions:
REMARK  status: ('A' for Active; 'I' for Inactive)
REMARK    1  A    between atoms: N2_13  and  N3_15
REMARK    2  A    between atoms: N3_15  and  C10_17
REMARK    3  A    between atoms: C11_20  and  O1_21
ROOT
HETATM    1  C1  UNL     1      16.014 -35.777 -24.784  1.00  0.00     0.022 C
HETATM    2  C2  UNL     1      16.915 -36.922 -25.160  1.00  0.00     0.074 C
HETATM    3  C3  UNL     1      16.291 -38.243 -25.003  1.00  0.00    -0.010 C
HETATM    4  N1  UNL     1      15.282 -38.379 -24.244  1.00  0.00    -0.405 N
ATOM      5  H11 UNL     1      14.848 -39.296 -24.136  1.00  0.00     0.155 HD
ATOM      6  H12 UNL     1      14.884 -37.592 -23.732  1.00  0.00     0.155 HD
HETATM    7  C4  UNL     1      16.872 -39.391 -25.752  1.00  0.00     0.061 C
HETATM    8  C5  UNL     1      16.810 -39.060 -27.226  1.00  0.00    -0.038 C
HETATM    9  C6  UNL     1      15.373 -39.012 -27.658  1.00  0.00     0.015 C
HETATM   10  C7  UNL     1      17.474 -40.187 -28.028  1.00  0.00     0.015 C
HETATM   11  C8  UNL     1      17.571 -37.802 -27.527  1.00  0.00     0.064 C
HETATM   12  C9  UNL     1      17.361 -36.725 -26.559  1.00  0.00     0.013 C
HETATM   13  N2  UNL     1      17.575 -35.506 -26.937  1.00  0.00    -0.306 N
ATOM     14  H2  UNL     1      17.429 -34.755 -26.262  1.00  0.00     0.186 HD
ENDROOT
BRANCH  13  15
HETATM   15  N3  UNL     1      17.991 -35.174 -28.206  1.00  0.00    -0.280 N
ATOM     16  H3  UNL     1      17.340 -35.217 -28.990  1.00  0.00     0.189 HD
BRANCH  15  17
HETATM   17  C10 UNL     1      19.239 -34.799 -28.398  1.00  0.00     0.165 A
HETATM   18  N4  UNL     1      20.328 -35.223 -27.763  1.00  0.00    -0.316 N
HETATM   19  C11 UNL     1      21.488 -34.727 -28.101  1.00  0.00     0.148 A
ATOM     20  H4  UNL     1      20.258 -35.924 -27.024  1.00  0.00     0.170 HD
HETATM   21  C12 UNL     1      21.514 -33.790 -29.097  1.00  0.00     0.109 A
HETATM   22  S1  UNL     1      19.861 -33.664 -29.508  1.00  0.00    -0.060 SA
BRANCH  19  23
HETATM   23  O1  UNL     1      22.716 -35.107 -27.489  1.00  0.00    -0.346 OA
ATOM     24  H1  UNL     1      23.519 -34.604 -27.563  1.00  0.00     0.219 HD
ENDBRANCH  19  23
ENDBRANCH  15  17
ENDBRANCH  13  15
TORSDOF 3
ENDMDL