MODEL 5
REMARK VINA RESULT: -6.455123658      1.593      2.664
REMARK  4 active torsions:
REMARK  status: ('A' for Active; 'I' for Inactive)
REMARK    1  A    between atoms: N1_9  and  N2_11
REMARK    2  A    between atoms: N2_11  and  C9_13
REMARK    3  A    between atoms: C10_16  and  O1_17
REMARK    4  A    between atoms: C11_19  and  C12_20
ROOT
HETATM    1  C9  UNL     1      15.900 -36.429 -23.508  1.00  0.00     0.166 A
HETATM    2  N3  UNL     1      15.923 -36.814 -22.233  1.00  0.00    -0.315 N
ATOM      3  H3  UNL     1      16.219 -37.758 -21.984  1.00  0.00     0.170 HD
HETATM    4  C10 UNL     1      15.562 -35.971 -21.311  1.00  0.00     0.161 A
HETATM    5  C11 UNL     1      15.175 -34.720 -21.708  1.00  0.00     0.074 A
HETATM    6  S1  UNL     1      15.350 -34.816 -23.403  1.00  0.00    -0.047 SA
ENDROOT
BRANCH   1   7
HETATM    7  N2  UNL     1      16.228 -37.136 -24.573  1.00  0.00    -0.280 N
ATOM      8  H2  UNL     1      16.014 -38.131 -24.646  1.00  0.00     0.189 HD
BRANCH   7   9
HETATM    9  N1  UNL     1      16.874 -36.455 -25.580  1.00  0.00    -0.306 N
HETATM   10  C8  UNL     1      16.967 -36.871 -26.808  1.00  0.00     0.011 C
HETATM   11  C2  UNL     1      17.697 -36.011 -27.751  1.00  0.00     0.029 C
HETATM   12  C6  UNL     1      16.335 -38.156 -27.134  1.00  0.00     0.029 C
HETATM   13  C1  UNL     1      19.195 -36.063 -27.541  1.00  0.00     0.016 C
HETATM   14  C3  UNL     1      17.345 -36.360 -29.181  1.00  0.00     0.010 C
HETATM   15  C4  UNL     1      17.443 -37.864 -29.312  1.00  0.00     0.001 C
HETATM   16  C5  UNL     1      16.206 -38.421 -28.599  1.00  0.00     0.010 C
HETATM   17  C7  UNL     1      17.097 -39.342 -26.533  1.00  0.00     0.016 C
ATOM     18  H1  UNL     1      17.311 -35.563 -25.347  1.00  0.00     0.186 HD
ENDBRANCH   7   9
ENDBRANCH   1   7
BRANCH   4  19
HETATM   19  O1  UNL     1      15.548 -36.276 -19.920  1.00  0.00    -0.345 OA
ATOM     20  H1  UNL     1      15.739 -35.643 -19.238  1.00  0.00     0.219 HD
ENDBRANCH   4  19
BRANCH   5  21
HETATM   21  C12 UNL     1      14.724 -33.582 -20.893  1.00  0.00     0.104 C
HETATM   22  N4  UNL     1      15.384 -33.267 -19.835  1.00  0.00    -0.407 N
ATOM     23  H42 UNL     1      16.208 -33.811 -19.578  1.00  0.00     0.155 HD
ATOM     24  H41 UNL     1      15.071 -32.477 -19.269  1.00  0.00     0.155 HD
ENDBRANCH   5  21
TORSDOF 4
ENDMDL