MODEL 4
REMARK VINA RESULT: -5.187978498      5.043      7.240
REMARK  1 active torsions:
REMARK  status: ('A' for Active; 'I' for Inactive)
REMARK    1  A    between atoms: C5_9  and  C6_10
ROOT
HETATM    1  C1  UNL     1      15.619 -38.906 -27.174  1.00  0.00     0.039 C
HETATM    2  C2  UNL     1      16.795 -39.208 -28.068  1.00  0.00     0.046 C
HETATM    3  C3  UNL     1      17.862 -40.018 -27.389  1.00  0.00     0.039 C
HETATM    4  N1  UNL     1      16.391 -39.770 -29.344  1.00  0.00    -0.364 N
ATOM      5  H1  UNL     1      16.423 -40.756 -29.601  1.00  0.00     0.162 HD
HETATM    6  C4  UNL     1      15.939 -38.689 -30.184  1.00  0.00     0.128 A
HETATM    7  N2  UNL     1      15.194 -38.314 -31.227  1.00  0.00    -0.326 N
ATOM      8  H2  UNL     1      14.631 -38.946 -31.796  1.00  0.00     0.169 HD
HETATM    9  C5  UNL     1      15.288 -36.990 -31.422  1.00  0.00     0.126 A
HETATM   10  N4  UNL     1      16.108 -36.545 -30.478  1.00  0.00    -0.340 N
ATOM     11  H4  UNL     1      16.380 -35.569 -30.364  1.00  0.00     0.167 HD
HETATM   12  C10 UNL     1      16.538 -37.556 -29.687  1.00  0.00     0.075 A
HETATM   13  C11 UNL     1      17.402 -37.896 -28.501  1.00  0.00     0.173 C
HETATM   14  C12 UNL     1      17.199 -36.847 -27.509  1.00  0.00     0.072 C
HETATM   15  N5  UNL     1      17.018 -36.013 -26.724  1.00  0.00    -0.196 NA
ENDROOT
BRANCH   9  16
HETATM   16  C6  UNL     1      14.570 -36.291 -32.509  1.00  0.00     0.073 A
HETATM   17  S1  UNL     1      13.592 -34.885 -32.399  1.00  0.00    -0.096 SA
HETATM   18  C7  UNL     1      13.150 -34.727 -34.035  1.00  0.00     0.052 A
HETATM   19  C8  UNL     1      13.783 -35.784 -34.635  1.00  0.00     0.035 A
HETATM   20  C9  UNL     1      14.516 -36.589 -33.833  1.00  0.00     0.067 A
HETATM   21  N3  UNL     1      15.219 -37.736 -34.402  1.00  0.00    -0.101 NA
ENDBRANCH   9  16
TORSDOF 1
ENDMDL