MODEL 3
REMARK VINA RESULT: -5.108728544      2.240      2.939
REMARK  2 active torsions:
REMARK  status: ('A' for Active; 'I' for Inactive)
REMARK    1  A    between atoms: N3_13  and  C7_14
REMARK    2  A    between atoms: N4_20  and  O1_22
ROOT
HETATM    1  C1  UNL     1      14.778 -38.140 -31.388  1.00  0.00     0.038 C
HETATM    2  C2  UNL     1      16.276 -38.203 -31.173  1.00  0.00     0.129 C
HETATM    3  N1  UNL     1      16.796 -39.421 -31.735  1.00  0.00    -0.362 N
ATOM      4  H1  UNL     1      17.232 -39.402 -32.656  1.00  0.00     0.162 HD
HETATM    5  C3  UNL     1      16.713 -40.641 -31.032  1.00  0.00     0.135 C
HETATM    6  N2  UNL     1      16.551 -41.782 -31.608  1.00  0.00    -0.380 N
ATOM      7  H21 UNL     1      16.490 -42.664 -31.100  1.00  0.00     0.158 HD
ATOM      8  H22 UNL     1      16.476 -41.806 -32.625  1.00  0.00     0.158 HD
HETATM    9  S1  UNL     1      16.843 -40.599 -29.253  1.00  0.00    -0.078 SA
HETATM   10  C4  UNL     1      16.661 -38.871 -28.657  1.00  0.00     0.061 C
HETATM   11  C5  UNL     1      17.860 -38.590 -27.828  1.00  0.00     0.057 C
HETATM   12  C6  UNL     1      17.638 -38.630 -26.337  1.00  0.00     0.275 C
HETATM   13  N3  UNL     1      16.510 -37.802 -26.052  1.00  0.00     0.092 N
HETATM   14  C10 UNL     1      15.342 -38.494 -26.522  1.00  0.00     0.275 C
HETATM   15  C11 UNL     1      15.337 -38.727 -27.982  1.00  0.00     0.057 C
HETATM   16  C12 UNL     1      16.661 -37.913 -29.799  1.00  0.00     0.051 C
HETATM   17  N4  UNL     1      17.049 -36.698 -29.481  1.00  0.00    -0.274 N
ATOM     18  H4  UNL     1      17.320 -36.486 -28.521  1.00  0.00     0.193 HD
ENDROOT
BRANCH  17  19
HETATM   19  O1  UNL     1      17.089 -35.714 -30.440  1.00  0.00    -0.290 OA
ATOM     20  H1  UNL     1      17.562 -34.907 -30.275  1.00  0.00     0.244 HD
ENDBRANCH  17  19
BRANCH  13  21
HETATM   21  C7  UNL     1      16.423 -37.306 -24.730  1.00  0.00     0.215 C
HETATM   22  C8  UNL     1      15.877 -35.929 -24.591  1.00  0.00     0.042 C
HETATM   23  C9  UNL     1      15.615 -38.265 -23.880  1.00  0.00     0.042 C
ENDBRANCH  13  21
TORSDOF 2
ENDMDL