MODEL 2
REMARK VINA RESULT: -6.778630001      3.515      7.579
REMARK  3 active torsions:
REMARK  status: ('A' for Active; 'I' for Inactive)
REMARK       I    between atoms: C1_2  and  N1_3
REMARK       I    between atoms: C1_2  and  N4_16
REMARK    1  A    between atoms: N2_5  and  C2_7
REMARK    2  A    between atoms: C4_13  and  O2_14
REMARK    3  A    between atoms: N4_16  and  C5_18
ROOT
HETATM    1  O1  UNL     1      15.092 -38.155 -23.508  1.00  0.00    -0.246 OA
HETATM    2  C1  UNL     1      15.756 -37.192 -23.957  1.00  0.00     0.335 C
HETATM    3  N1  UNL     1      16.496 -37.337 -25.139  1.00  0.00    -0.251 N
ATOM      4  H1  UNL     1      16.118 -37.872 -25.921  1.00  0.00     0.191 HD
HETATM    5  N2  UNL     1      17.630 -36.798 -25.226  1.00  0.00    -0.286 N
ATOM      6  H2  UNL     1      18.026 -36.259 -24.456  1.00  0.00     0.188 HD
HETATM    7  N4  UNL     1      15.771 -35.948 -23.277  1.00  0.00    -0.337 N
ATOM      8  H4  UNL     1      16.311 -35.163 -23.640  1.00  0.00     0.164 HD
ENDROOT
BRANCH   5   9
HETATM    9  C2  UNL     1      18.346 -36.981 -26.471  1.00  0.00     0.143 A
HETATM   10  S1  UNL     1      19.287 -35.870 -27.363  1.00  0.00    -0.037 SA
HETATM   11  C3  UNL     1      19.735 -36.899 -28.647  1.00  0.00     0.146 A
HETATM   12  S2  UNL     1      20.675 -36.584 -29.976  1.00  0.00    -0.052 SA
HETATM   13  N3  UNL     1      19.139 -38.052 -28.331  1.00  0.00    -0.320 N
HETATM   14  C4  UNL     1      18.436 -38.110 -27.239  1.00  0.00     0.177 A
ATOM     15  H3  UNL     1      19.234 -38.870 -28.933  1.00  0.00     0.169 HD
BRANCH  14  16
HETATM   16  O2  UNL     1      17.765 -39.291 -26.820  1.00  0.00    -0.344 OA
ATOM     17  H2  UNL     1      18.249 -40.106 -26.767  1.00  0.00     0.219 HD
ENDBRANCH  14  16
ENDBRANCH   5   9
BRANCH   7  18
HETATM   18  C5  UNL     1      15.010 -35.817 -22.068  1.00  0.00     0.090 C
HETATM   19  C6  UNL     1      15.885 -36.056 -20.822  1.00  0.00     0.030 C
HETATM   20  C7  UNL     1      15.611 -34.766 -20.103  1.00  0.00    -0.012 C
HETATM   21  C8  UNL     1      15.792 -33.751 -21.241  1.00  0.00     0.011 C
HETATM   22  C10 UNL     1      14.131 -34.540 -20.308  1.00  0.00     0.011 C
HETATM   23  C9  UNL     1      14.532 -34.439 -21.781  1.00  0.00     0.009 C
ENDBRANCH   7  18
TORSDOF 3
ENDMDL