MODEL 1
REMARK VINA RESULT: -6.478114855      0.000      0.000
REMARK  3 active torsions:
REMARK  status: ('A' for Active; 'I' for Inactive)
REMARK    1  A    between atoms: O1_1  and  N1_3
REMARK    2  A    between atoms: N1_3  and  C1_4
REMARK    3  A    between atoms: C14_20  and  O2_21
ROOT
HETATM    1  C1  UNL     1      17.570 -37.469 -29.382  1.00  0.00     0.180 C
HETATM    2  C2  UNL     1      17.220 -37.080 -27.980  1.00  0.00     0.107 A
HETATM    3  N2  UNL     1      17.412 -36.156 -27.005  1.00  0.00    -0.346 N
ATOM      4  H2  UNL     1      18.002 -35.329 -27.097  1.00  0.00     0.167 HD
HETATM    5  C3  UNL     1      16.716 -36.483 -25.901  1.00  0.00     0.040 A
HETATM    6  C4  UNL     1      16.070 -37.650 -26.206  1.00  0.00     0.036 A
HETATM    7  N3  UNL     1      16.386 -37.986 -27.452  1.00  0.00    -0.332 N
HETATM    8  C5  UNL     1      16.105 -39.046 -28.437  1.00  0.00     0.097 C
HETATM    9  C6  UNL     1      16.961 -40.207 -28.082  1.00  0.00     0.026 C
HETATM   10  C7  UNL     1      16.871 -41.223 -29.189  1.00  0.00     0.002 C
HETATM   11  C8  UNL     1      17.458 -40.604 -30.422  1.00  0.00     0.001 C
HETATM   12  C9  UNL     1      16.778 -39.339 -30.847  1.00  0.00     0.009 C
HETATM   13  C10 UNL     1      16.437 -38.403 -29.744  1.00  0.00     0.038 C
HETATM   14  C11 UNL     1      15.212 -38.252 -25.149  1.00  0.00     0.060 C
HETATM   15  C12 UNL     1      15.822 -38.089 -23.777  1.00  0.00     0.014 C
HETATM   16  C13 UNL     1      16.226 -36.690 -23.472  1.00  0.00     0.028 A
HETATM   17  C14 UNL     1      15.271 -35.614 -23.956  1.00  0.00     0.133 A
HETATM   18  C15 UNL     1      16.587 -35.820 -24.583  1.00  0.00     0.073 A
ENDROOT
BRANCH   1  19
HETATM   19  N1  UNL     1      17.538 -36.255 -30.176  1.00  0.00    -0.091 NA
BRANCH  19  20
HETATM   20  O1  UNL     1      16.654 -35.387 -29.630  1.00  0.00    -0.295 OA
ATOM     21  H1  UNL     1      16.249 -34.876 -30.320  1.00  0.00     0.238 HD
ENDBRANCH  19  20
ENDBRANCH   1  19
BRANCH  17  22
HETATM   22  O2  UNL     1      15.043 -34.584 -23.065  1.00  0.00    -0.394 OA
ATOM     23  H2  UNL     1      14.406 -33.938 -23.345  1.00  0.00     0.210 HD
ENDBRANCH  17  22
TORSDOF 3
ENDMDL