MODEL 2
REMARK VINA RESULT: -6.949153482      0.386      1.253
REMARK  2 active torsions:
REMARK  status: ('A' for Active; 'I' for Inactive)
REMARK    1  A    between atoms: C5_10  and  N3_11
REMARK    2  A    between atoms: N3_11  and  C6_13
ROOT
HETATM    1  C1  UNL     1      19.276 -34.719 -29.466  1.00  0.00     0.076 C
HETATM    2  C2  UNL     1      18.512 -35.602 -28.506  1.00  0.00     0.049 A
HETATM    3  N1  UNL     1      18.401 -35.523 -27.209  1.00  0.00    -0.339 N
ATOM      4  H1  UNL     1      18.877 -34.776 -26.703  1.00  0.00     0.168 HD
HETATM    5  C3  UNL     1      17.676 -36.406 -26.549  1.00  0.00     0.130 A
HETATM    6  C4  UNL     1      17.072 -37.376 -27.307  1.00  0.00     0.103 A
HETATM    7  S1  UNL     1      17.558 -36.986 -28.883  1.00  0.00    -0.065 SA
HETATM    8  S2  UNL     1      16.072 -38.574 -26.398  1.00  0.00    -0.010 SA
HETATM    9  N2  UNL     1      15.229 -37.537 -25.183  1.00  0.00    -0.128 NA
HETATM   10  C5  UNL     1      16.217 -36.754 -24.469  1.00  0.00     0.287 C
HETATM   11  N4  UNL     1      17.439 -36.487 -25.123  1.00  0.00    -0.340 N
ATOM     12  H4  UNL     1      18.248 -36.333 -24.522  1.00  0.00     0.164 HD
ENDROOT
BRANCH  10  13
HETATM   13  N3  UNL     1      15.628 -35.561 -23.987  1.00  0.00    -0.384 N
ATOM     14  H3  UNL     1      15.203 -34.907 -24.644  1.00  0.00     0.157 HD
BRANCH  13  15
HETATM   15  C6  UNL     1      15.623 -35.273 -22.623  1.00  0.00     0.079 C
HETATM   16  C7  UNL     1      15.175 -36.396 -21.721  1.00  0.00     0.025 C
HETATM   17  C8  UNL     1      15.488 -36.127 -20.301  1.00  0.00     0.002 C
HETATM   18  C9  UNL     1      15.330 -34.723 -19.841  1.00  0.00     0.000 C
HETATM   19  C10 UNL     1      15.320 -33.672 -20.871  1.00  0.00     0.002 C
HETATM   20  C11 UNL     1      14.792 -34.081 -22.233  1.00  0.00     0.025 C
ENDBRANCH  13  15
ENDBRANCH  10  13
TORSDOF 2
ENDMDL