MODEL 1
REMARK VINA RESULT: -5.827306724      0.000      0.000
REMARK  2 active torsions:
REMARK  status: ('A' for Active; 'I' for Inactive)
REMARK    1  A    between atoms: C2_2  and  C5_5
REMARK    2  A    between atoms: C9_12  and  C11_15
ROOT
HETATM    1  C5  UNL     1      17.032 -37.287 -27.574  1.00  0.00     0.028 C
HETATM    2  C6  UNL     1      17.544 -36.448 -26.420  1.00  0.00     0.013 C
HETATM    3  C7  UNL     1      19.049 -36.442 -26.499  1.00  0.00     0.054 C
HETATM    4  C8  UNL     1      19.352 -37.220 -27.726  1.00  0.00     0.010 C
HETATM    5  N1  UNL     1      20.434 -37.820 -28.003  1.00  0.00    -0.404 N
ATOM      6  H11 UNL     1      20.642 -38.355 -28.847  1.00  0.00     0.155 HD
ATOM      7  H12 UNL     1      21.284 -37.880 -27.442  1.00  0.00     0.155 HD
HETATM    8  C9  UNL     1      18.118 -37.132 -28.541  1.00  0.00     0.141 C
HETATM    9  C10 UNL     1      18.117 -38.013 -29.682  1.00  0.00     0.083 C
HETATM   10  N2  UNL     1      18.125 -38.693 -30.593  1.00  0.00    -0.196 NA
ENDROOT
BRANCH   8  11
HETATM   11  C11 UNL     1      18.057 -35.701 -29.020  1.00  0.00     0.098 A
HETATM   12  N3  UNL     1      16.993 -35.095 -29.520  1.00  0.00    -0.294 N
HETATM   13  N4  UNL     1      17.068 -33.881 -29.887  1.00  0.00    -0.279 N
ATOM     14  H3  UNL     1      16.113 -35.602 -29.612  1.00  0.00     0.187 HD
HETATM   15  C12 UNL     1      18.236 -33.244 -29.756  1.00  0.00     0.158 A
ATOM     16  H4  UNL     1      16.254 -33.403 -30.275  1.00  0.00     0.189 HD
HETATM   17  N5  UNL     1      18.517 -32.002 -30.073  1.00  0.00    -0.379 N
HETATM   18  S1  UNL     1      19.225 -34.462 -29.081  1.00  0.00    -0.036 SA
ATOM     19  H52 UNL     1      17.926 -31.274 -30.475  1.00  0.00     0.158 HD
ATOM     20  H51 UNL     1      19.408 -31.515 -29.973  1.00  0.00     0.158 HD
ENDBRANCH   8  11
BRANCH   1  21
HETATM   21  C2  UNL     1      16.650 -38.621 -27.076  1.00  0.00    -0.045 C
HETATM   22  C1  UNL     1      17.751 -39.639 -27.049  1.00  0.00     0.015 C
HETATM   23  C3  UNL     1      16.237 -38.418 -25.607  1.00  0.00     0.015 C
HETATM   24  C4  UNL     1      15.469 -39.254 -27.751  1.00  0.00     0.015 C
ENDBRANCH   1  21
TORSDOF 2
ENDMDL