MODEL 4
REMARK VINA RESULT: -4.793623124      3.722      6.158
REMARK  3 active torsions:
REMARK  status: ('A' for Active; 'I' for Inactive)
REMARK    1  A    between atoms: N1_4  and  C4_6
REMARK    2  A    between atoms: C7_10  and  O1_11
REMARK    3  A    between atoms: C8_13  and  C9_14
ROOT
HETATM    1  C4  UNL     1      19.520 -41.468 -28.319  1.00  0.00     0.085 A
HETATM    2  C5  UNL     1      20.759 -40.889 -28.203  1.00  0.00     0.148 A
HETATM    3  N2  UNL     1      20.644 -39.615 -27.786  1.00  0.00    -0.269 N
HETATM    4  C6  UNL     1      19.318 -39.327 -27.616  1.00  0.00     0.100 A
HETATM    5  C7  UNL     1      18.640 -40.471 -27.947  1.00  0.00     0.120 A
HETATM    6  C8  UNL     1      18.869 -38.031 -27.161  1.00  0.00     0.248 C
HETATM    7  N3  UNL     1      19.574 -37.021 -27.929  1.00  0.00    -0.059 N
ATOM      8  H31 UNL     1      18.993 -36.201 -28.102  1.00  0.00     0.278 HD
ATOM      9  H32 UNL     1      19.718 -37.312 -28.896  1.00  0.00     0.278 HD
HETATM   10  C13 UNL     1      20.805 -36.675 -27.287  1.00  0.00     0.202 C
HETATM   11  C14 UNL     1      21.048 -35.179 -27.251  1.00  0.00     0.041 C
HETATM   12  C15 UNL     1      21.977 -37.416 -27.874  1.00  0.00     0.172 C
HETATM   13  N4  UNL     1      21.799 -38.831 -27.614  1.00  0.00    -0.328 N
ATOM     14  H4  UNL     1      22.620 -39.323 -27.259  1.00  0.00     0.180 HD
ENDROOT
BRANCH   1  15
HETATM   15  N1  UNL     1      19.260 -42.797 -28.733  1.00  0.00    -0.361 N
HETATM   16  C2  UNL     1      18.899 -43.144 -29.902  1.00  0.00    -0.021 C
HETATM   17  C1  UNL     1      18.698 -42.190 -31.007  1.00  0.00     0.062 C
HETATM   18  C3  UNL     1      18.669 -44.588 -30.164  1.00  0.00     0.062 C
ATOM     19  H1  UNL     1      19.370 -43.534 -28.037  1.00  0.00     0.165 HD
ENDBRANCH   1  15
BRANCH   5  20
HETATM   20  O1  UNL     1      17.288 -40.609 -27.915  1.00  0.00    -0.356 OA
ATOM     21  H1  UNL     1      16.725 -40.571 -28.679  1.00  0.00     0.218 HD
ENDBRANCH   5  20
BRANCH   6  22
HETATM   22  C9  UNL     1      17.469 -37.687 -27.016  1.00  0.00    -0.017 C
HETATM   23  C10 UNL     1      17.482 -36.226 -26.476  1.00  0.00     0.017 C
HETATM   24  C11 UNL     1      16.642 -37.590 -28.273  1.00  0.00     0.017 C
HETATM   25  C12 UNL     1      16.752 -38.444 -25.896  1.00  0.00     0.017 C
ENDBRANCH   6  22
TORSDOF 3
ENDMDL