MODEL 3
REMARK VINA RESULT: -7.113461840      3.787      6.846
REMARK  7 active torsions:
REMARK  status: ('A' for Active; 'I' for Inactive)
REMARK    1  A    between atoms: C2_2  and  C3_4
REMARK    2  A    between atoms: C4_5  and  O2_6
REMARK    3  A    between atoms: C6_11  and  C7_12
REMARK    4  A    between atoms: C7_12  and  S1_13
REMARK    5  A    between atoms: C7_12  and  C11_23
REMARK    6  A    between atoms: S1_13  and  C8_14
REMARK    7  A    between atoms: C16_34  and  O7_35
ROOT
HETATM    1  C7  UNL     1      20.264 -10.760   2.955  1.00  0.00     0.148 C
ENDROOT
BRANCH   1   2
HETATM    2  C6  UNL     1      19.257 -11.836   3.092  1.00  0.00     0.072 A
HETATM    3  C5  UNL     1      19.677 -13.051   3.564  1.00  0.00     0.300 A
HETATM    4  O3  UNL     1      18.845 -14.043   3.704  1.00  0.00    -0.250 OA
HETATM    5  O4  UNL     1      20.909 -13.223   3.875  1.00  0.00    -0.259 OA
HETATM    6  C4  UNL     1      17.561 -13.885   3.388  1.00  0.00     0.203 A
HETATM    7  C3  UNL     1      17.042 -12.704   2.907  1.00  0.00     0.101 A
HETATM    8  C16 UNL     1      17.921 -11.651   2.756  1.00  0.00     0.098 A
BRANCH   6   9
HETATM    9  O2  UNL     1      16.689 -14.965   3.548  1.00  0.00    -0.340 OA
ATOM     10  H2  UNL     1      16.317 -15.357   2.767  1.00  0.00     0.220 HD
ENDBRANCH   6   9
BRANCH   7  11
HETATM   11  C2  UNL     1      15.655 -12.529   2.553  1.00  0.00     0.163 C
HETATM   12  C1  UNL     1      14.598 -12.344   3.611  1.00  0.00     0.097 C
HETATM   13  O1  UNL     1      15.199 -12.511   1.376  1.00  0.00    -0.293 OA
ENDBRANCH   7  11
BRANCH   8  14
HETATM   14  O7  UNL     1      17.596 -10.426   2.301  1.00  0.00    -0.359 OA
ATOM     15  H7  UNL     1      18.132  -9.648   2.393  1.00  0.00     0.217 HD
ENDBRANCH   8  14
ENDBRANCH   1   2
BRANCH   1  16
HETATM   16  S1  UNL     1      20.441  -9.979   4.583  1.00  0.00    -0.076 SA
BRANCH  16  17
HETATM   17  C8  UNL     1      19.498  -8.486   4.704  1.00  0.00     0.161 A
HETATM   18  N1  UNL     1      18.866  -7.795   3.713  1.00  0.00    -0.278 N
HETATM   19  N2  UNL     1      18.295  -6.740   4.286  1.00  0.00    -0.287 N
ATOM     20  H1  UNL     1      18.836  -8.040   2.723  1.00  0.00     0.189 HD
HETATM   21  C9  UNL     1      18.542  -6.737   5.606  1.00  0.00     0.093 A
ATOM     22  H2  UNL     1      17.747  -6.035   3.794  1.00  0.00     0.188 HD
HETATM   23  C10 UNL     1      18.101  -5.758   6.622  1.00  0.00     0.090 C
HETATM   24  N3  UNL     1      19.290  -7.826   5.856  1.00  0.00    -0.325 N
ATOM     25  H3  UNL     1      19.643  -8.106   6.771  1.00  0.00     0.169 HD
ENDBRANCH  16  17
ENDBRANCH   1  16
BRANCH   1  26
HETATM   26  C11 UNL     1      21.529 -11.157   2.355  1.00  0.00     0.044 A
HETATM   27  N4  UNL     1      22.650 -11.219   3.082  1.00  0.00    -0.310 N
HETATM   28  C12 UNL     1      23.841 -11.601   2.528  1.00  0.00     0.327 A
ATOM     29  H4  UNL     1      22.616 -10.976   4.072  1.00  0.00     0.170 HD
HETATM   30  O5  UNL     1      24.894 -11.654   3.232  1.00  0.00    -0.247 OA
HETATM   31  N5  UNL     1      23.945 -11.928   1.246  1.00  0.00    -0.275 N
HETATM   32  C13 UNL     1      22.842 -11.884   0.456  1.00  0.00     0.257 A
ATOM     33  H5  UNL     1      24.845 -12.209   0.857  1.00  0.00     0.173 HD
HETATM   34  O6  UNL     1      22.970 -12.198  -0.752  1.00  0.00    -0.267 OA
HETATM   35  C14 UNL     1      21.625 -11.495   1.022  1.00  0.00     0.030 A
HETATM   36  C15 UNL     1      20.441 -11.449   0.155  1.00  0.00     0.056 C
ENDBRANCH   1  26
TORSDOF 7
ENDMDL