MODEL 5
REMARK VINA RESULT: -7.245474752      6.558      9.014
REMARK  11 active torsions:
REMARK  status: ('A' for Active; 'I' for Inactive)
REMARK    1  A    between atoms: C2_2  and  O1_3
REMARK    2  A    between atoms: O1_3  and  C3_4
REMARK       I    between atoms: C3_4  and  N1_6
REMARK    3  A    between atoms: N2_8  and  C4_10
REMARK    4  A    between atoms: C4_10  and  N3_12
REMARK       I    between atoms: N3_12  and  C5_14
REMARK       I    between atoms: C5_14  and  N5_19
REMARK    5  A    between atoms: N4_15  and  O3_17
REMARK    6  A    between atoms: N5_19  and  N6_21
REMARK    7  A    between atoms: C6_23  and  C7_24
REMARK    8  A    between atoms: C9_26  and  O4_27
REMARK    9  A    between atoms: C10_29  and  O5_30
REMARK   10  A    between atoms: C12_32  and  O6_33
REMARK   11  A    between atoms: C13_35  and  O7_36
ROOT
HETATM    1  N3  UNL     1      20.775  -4.766   8.512  1.00  0.00    -0.162 N
ATOM      2  H3  UNL     1      20.796  -3.773   8.284  1.00  0.00     0.187 HD
HETATM    3  C5  UNL     1      19.538  -5.429   8.726  1.00  0.00     0.718 C
HETATM    4  N4  UNL     1      19.364  -6.155   9.756  1.00  0.00    -0.097 N
ATOM      5  H4  UNL     1      20.151  -6.228  10.401  1.00  0.00     0.213 HD
HETATM    6  N5  UNL     1      18.505  -5.263   7.767  1.00  0.00    -0.131 N
ATOM      7  H5  UNL     1      18.277  -4.309   7.490  1.00  0.00     0.205 HD
ENDROOT
BRANCH   6   8
HETATM    8  N6  UNL     1      17.784  -6.274   7.178  1.00  0.00    -0.297 N
HETATM    9  C6  UNL     1      16.534  -6.258   6.937  1.00  0.00     0.122 C
ATOM     10  H6  UNL     1      18.298  -7.113   6.911  1.00  0.00     0.186 HD
BRANCH   9  11
HETATM   11  C7  UNL     1      15.808  -7.351   6.310  1.00  0.00     0.020 A
HETATM   12  C8  UNL     1      14.568  -7.748   6.858  1.00  0.00     0.055 A
HETATM   13  C9  UNL     1      13.830  -8.755   6.285  1.00  0.00     0.102 A
HETATM   14  C10 UNL     1      14.298  -9.392   5.158  1.00  0.00     0.137 A
HETATM   15  C12 UNL     1      15.528  -8.995   4.617  1.00  0.00     0.136 A
HETATM   16  C13 UNL     1      16.288  -7.975   5.191  1.00  0.00     0.116 A
BRANCH  13  17
HETATM   17  O4  UNL     1      12.611  -9.158   6.812  1.00  0.00    -0.358 OA
ATOM     18  H4  UNL     1      11.853  -8.584   6.814  1.00  0.00     0.217 HD
ENDBRANCH  13  17
BRANCH  14  19
HETATM   19  O5  UNL     1      13.581 -10.396   4.568  1.00  0.00    -0.351 OA
HETATM   20  C11 UNL     1      13.996 -11.711   4.366  1.00  0.00     0.210 C
ENDBRANCH  14  19
BRANCH  15  21
HETATM   21  O6  UNL     1      16.029  -9.612   3.484  1.00  0.00    -0.356 OA
ATOM     22  H6  UNL     1      16.965  -9.641   3.324  1.00  0.00     0.218 HD
ENDBRANCH  15  21
BRANCH  16  23
HETATM   23  O7  UNL     1      17.497  -7.636   4.608  1.00  0.00    -0.352 OA
HETATM   24  C14 UNL     1      18.672  -8.426   4.858  1.00  0.00     0.210 C
ENDBRANCH  16  23
ENDBRANCH   9  11
ENDBRANCH   6   8
BRANCH   1  25
HETATM   25  C4  UNL     1      21.977  -5.504   8.618  1.00  0.00     0.205 C
HETATM   26  S1  UNL     1      23.436  -4.781   8.422  1.00  0.00    -0.039 SA
BRANCH  25  27
HETATM   27  N2  UNL     1      21.991  -6.898   8.898  1.00  0.00    -0.271 N
HETATM   28  N1  UNL     1      22.068  -7.357  10.079  1.00  0.00    -0.243 N
HETATM   29  C3  UNL     1      22.146  -6.518  11.223  1.00  0.00     0.379 C
ATOM     30  H1  UNL     1      22.073  -8.369  10.212  1.00  0.00     0.192 HD
HETATM   31  O2  UNL     1      21.416  -6.691  12.226  1.00  0.00    -0.237 OA
ATOM     32  H2  UNL     1      21.936  -7.555   8.119  1.00  0.00     0.189 HD
BRANCH  29  33
HETATM   33  O1  UNL     1      23.054  -5.490  11.217  1.00  0.00    -0.303 OA
BRANCH  33  34
HETATM   34  C2  UNL     1      24.010  -5.262  12.219  1.00  0.00     0.176 C
HETATM   35  C1  UNL     1      23.576  -4.172  13.182  1.00  0.00     0.034 C
ENDBRANCH  33  34
ENDBRANCH  29  33
ENDBRANCH  25  27
ENDBRANCH   1  25
BRANCH   4  36
HETATM   36  O3  UNL     1      18.244  -6.840  10.085  1.00  0.00    -0.276 OA
ATOM     37  H3  UNL     1      17.618  -6.616  10.763  1.00  0.00     0.245 HD
ENDBRANCH   4  36
TORSDOF 11
ENDMDL