MODEL 3
REMARK VINA RESULT: -6.747090365      2.784      6.586
REMARK  8 active torsions:
REMARK  status: ('A' for Active; 'I' for Inactive)
REMARK    1  A    between atoms: C4_4  and  O1_6
REMARK    2  A    between atoms: C6_11  and  C7_12
REMARK    3  A    between atoms: C7_12  and  O2_13
REMARK    4  A    between atoms: C7_12  and  C8_15
REMARK    5  A    between atoms: C8_15  and  N2_16
REMARK    6  A    between atoms: C8_15  and  C11_25
REMARK    7  A    between atoms: N2_16  and  C9_18
REMARK    8  A    between atoms: C13_29  and  N5_30
ROOT
HETATM    1  C8  UNL     1      18.919 -10.866   3.516  1.00  0.00     0.157 C
ENDROOT
BRANCH   1   2
HETATM    2  C7  UNL     1      18.736 -11.600   2.219  1.00  0.00     0.204 C
BRANCH   2   3
HETATM    3  C6  UNL     1      19.731 -11.173   1.160  1.00  0.00     0.417 C
HETATM    4  N1  UNL     1      20.434 -12.375   0.764  1.00  0.00    -0.012 N
HETATM    5  C4  UNL     1      21.504 -12.118  -0.168  1.00  0.00     0.225 C
ATOM      6  H12 UNL     1      19.786 -13.070   0.394  1.00  0.00     0.283 HD
ATOM      7  H11 UNL     1      20.775 -12.883   1.580  1.00  0.00     0.283 HD
HETATM    8  C3  UNL     1      21.319 -10.820  -0.915  1.00  0.00     0.100 C
HETATM    9  C5  UNL     1      22.853 -12.147   0.524  1.00  0.00     0.078 C
HETATM   10  C2  UNL     1      19.839 -10.651  -1.189  1.00  0.00     0.189 C
HETATM   11  C1  UNL     1      19.674  -9.453  -2.074  1.00  0.00     0.040 C
HETATM   12  N6  UNL     1      19.138 -10.476   0.065  1.00  0.00    -0.039 N
ATOM     13  H62 UNL     1      19.035  -9.485   0.284  1.00  0.00     0.280 HD
ATOM     14  H61 UNL     1      18.156 -10.732  -0.034  1.00  0.00     0.280 HD
BRANCH   5  15
HETATM   15  O1  UNL     1      21.492 -13.151  -1.105  1.00  0.00    -0.365 OA
ATOM     16  H1  UNL     1      21.719 -13.955  -0.652  1.00  0.00     0.212 HD
ENDBRANCH   5  15
ENDBRANCH   2   3
BRANCH   2  17
HETATM   17  O2  UNL     1      17.429 -11.548   1.791  1.00  0.00    -0.389 OA
ATOM     18  H2  UNL     1      17.021 -10.702   1.931  1.00  0.00     0.210 HD
ENDBRANCH   2  17
ENDBRANCH   1   2
BRANCH   1  19
HETATM   19  N2  UNL     1      18.611  -9.477   3.447  1.00  0.00    -0.366 N
ATOM     20  H2  UNL     1      19.059  -8.890   2.743  1.00  0.00     0.161 HD
BRANCH  19  21
HETATM   21  C9  UNL     1      17.767  -8.963   4.273  1.00  0.00     0.134 A
HETATM   22  S1  UNL     1      16.068  -8.890   4.297  1.00  0.00     0.014 SA
HETATM   23  N3  UNL     1      15.578  -8.050   5.694  1.00  0.00    -0.285 N
HETATM   24  C10 UNL     1      16.618  -7.645   6.444  1.00  0.00     0.296 A
ATOM     25  H3  UNL     1      14.603  -7.875   5.936  1.00  0.00     0.178 HD
HETATM   26  O3  UNL     1      16.506  -7.012   7.510  1.00  0.00    -0.259 OA
HETATM   27  S2  UNL     1      18.100  -8.125   5.713  1.00  0.00    -0.002 SA
ENDBRANCH  19  21
ENDBRANCH   1  19
BRANCH   1  28
HETATM   28  C11 UNL     1      20.344 -11.056   3.935  1.00  0.00     0.027 A
HETATM   29  C12 UNL     1      21.316 -10.097   4.036  1.00  0.00     0.107 A
HETATM   30  N4  UNL     1      22.494 -10.467   4.418  1.00  0.00    -0.345 N
HETATM   31  C13 UNL     1      22.736 -11.733   4.698  1.00  0.00     0.146 A
ATOM     32  H4  UNL     1      23.240  -9.776   4.505  1.00  0.00     0.167 HD
HETATM   33  S3  UNL     1      21.208 -12.455   4.406  1.00  0.00    -0.055 SA
BRANCH  31  34
HETATM   34  N5  UNL     1      23.968 -12.348   5.137  1.00  0.00    -0.370 N
HETATM   35  C14 UNL     1      25.088 -12.367   4.227  1.00  0.00     0.151 C
HETATM   36  C15 UNL     1      24.059 -12.917   6.444  1.00  0.00     0.151 C
ENDBRANCH  31  34
ENDBRANCH   1  28
TORSDOF 8
ENDMDL