MODEL 2
REMARK VINA RESULT: -7.188035031      0.743      1.591
REMARK  7 active torsions:
REMARK  status: ('A' for Active; 'I' for Inactive)
REMARK    1  A    between atoms: C2_2  and  C6_16
REMARK    2  A    between atoms: N1_3  and  C3_5
REMARK    3  A    between atoms: C4_6  and  O1_7
REMARK    4  A    between atoms: N3_13  and  O3_14
REMARK    5  A    between atoms: C7_17  and  N4_18
REMARK    6  A    between atoms: N4_18  and  N5_20
REMARK    7  A    between atoms: N5_20  and  C8_21
ROOT
HETATM    1  C6  UNL     1      19.977 -10.170   4.051  1.00  0.00     0.099 A
HETATM    2  C7  UNL     1      20.299 -10.677   2.826  1.00  0.00     0.139 A
HETATM    3  N6  UNL     1      21.349 -11.550   2.673  1.00  0.00    -0.313 N
HETATM    4  C11 UNL     1      21.628 -12.033   1.360  1.00  0.00     0.160 C
HETATM    5  C12 UNL     1      22.069 -11.905   3.753  1.00  0.00     0.182 A
HETATM    6  S3  UNL     1      23.320 -12.956   3.498  1.00  0.00    -0.040 SA
HETATM    7  N7  UNL     1      21.796 -11.437   4.981  1.00  0.00    -0.299 N
ATOM      8  H7  UNL     1      22.356 -11.721   5.784  1.00  0.00     0.171 HD
HETATM    9  C13 UNL     1      20.781 -10.595   5.125  1.00  0.00     0.263 A
HETATM   10  O4  UNL     1      20.542 -10.166   6.285  1.00  0.00    -0.267 OA
ENDROOT
BRANCH   1  11
HETATM   11  C2  UNL     1      18.890  -9.241   4.279  1.00  0.00     0.026 C
HETATM   12  C1  UNL     1      17.501  -9.360   3.875  1.00  0.00     0.069 C
HETATM   13  N1  UNL     1      19.225  -8.143   4.930  1.00  0.00    -0.340 N
ATOM     14  H1  UNL     1      20.197  -8.043   5.220  1.00  0.00     0.167 HD
BRANCH  13  15
HETATM   15  C3  UNL     1      18.341  -7.101   5.252  1.00  0.00     0.190 A
HETATM   16  C4  UNL     1      18.166  -5.897   4.630  1.00  0.00     0.192 A
HETATM   17  N2  UNL     1      17.211  -5.231   5.286  1.00  0.00    -0.284 N
HETATM   18  C5  UNL     1      16.800  -6.009   6.300  1.00  0.00     0.354 A
ATOM     19  H2  UNL     1      16.858  -4.301   5.058  1.00  0.00     0.172 HD
HETATM   20  O2  UNL     1      15.894  -5.702   7.144  1.00  0.00    -0.244 OA
HETATM   21  N3  UNL     1      17.487  -7.157   6.287  1.00  0.00    -0.151 N
BRANCH  16  22
HETATM   22  O1  UNL     1      18.834  -5.416   3.520  1.00  0.00    -0.343 OA
ATOM     23  H1  UNL     1      18.486  -4.870   2.825  1.00  0.00     0.219 HD
ENDBRANCH  16  22
BRANCH  21  24
HETATM   24  O3  UNL     1      17.346  -8.222   7.182  1.00  0.00    -0.277 OA
ATOM     25  H3  UNL     1      16.571  -8.424   7.693  1.00  0.00     0.245 HD
ENDBRANCH  21  24
ENDBRANCH  13  15
ENDBRANCH   1  11
BRANCH   2  26
HETATM   26  N4  UNL     1      19.600 -10.346   1.672  1.00  0.00    -0.286 N
ATOM     27  H4  UNL     1      19.950  -9.562   1.122  1.00  0.00     0.184 HD
BRANCH  26  28
HETATM   28  N5  UNL     1      18.440 -11.007   1.197  1.00  0.00    -0.113 NA
BRANCH  28  29
HETATM   29  C8  UNL     1      18.401 -11.087  -0.230  1.00  0.00     0.222 C
HETATM   30  S1  UNL     1      19.774 -10.264  -1.066  1.00  0.00    -0.135 SA
HETATM   31  C9  UNL     1      20.475 -11.447  -2.191  1.00  0.00     0.086 C
HETATM   32  C10 UNL     1      19.663 -12.688  -2.240  1.00  0.00     0.086 C
HETATM   33  S2  UNL     1      18.719 -12.820  -0.713  1.00  0.00    -0.135 SA
ENDBRANCH  28  29
ENDBRANCH  26  28
ENDBRANCH   2  26
TORSDOF 7
ENDMDL