MODEL 2
REMARK VINA RESULT: -7.658171936      4.920      9.724
REMARK  9 active torsions:
REMARK  status: ('A' for Active; 'I' for Inactive)
REMARK    1  A    between atoms: O1_2  and  C2_3
REMARK    2  A    between atoms: C2_3  and  C3_5
REMARK    3  A    between atoms: C5_7  and  O3_8
REMARK    4  A    between atoms: C5_7  and  C7_10
REMARK    5  A    between atoms: C9_14  and  C10_15
REMARK       I    between atoms: C10_15  and  N2_17
REMARK    6  A    between atoms: N2_17  and  N3_19
REMARK    7  A    between atoms: N3_19  and  C11_21
REMARK    8  A    between atoms: C11_21  and  C12_25
REMARK    9  A    between atoms: C14_28  and  N5_29
ROOT
HETATM    1  C10 UNL     1      18.405  -5.442   4.367  1.00  0.00     0.278 C
HETATM    2  O4  UNL     1      17.561  -4.762   4.996  1.00  0.00    -0.265 OA
HETATM    3  N2  UNL     1      19.074  -4.795   3.263  1.00  0.00    -0.264 N
ATOM      4  H2  UNL     1      19.826  -5.265   2.758  1.00  0.00     0.190 HD
ENDROOT
BRANCH   1   5
HETATM    5  C9  UNL     1      18.635  -6.825   4.772  1.00  0.00     0.091 A
HETATM    6  C8  UNL     1      18.513  -7.458   5.978  1.00  0.00     0.113 A
HETATM    7  N1  UNL     1      18.971  -8.673   6.086  1.00  0.00    -0.358 N
HETATM    8  C7  UNL     1      19.535  -9.267   5.056  1.00  0.00     0.118 A
ATOM      9  H1  UNL     1      18.892  -9.166   6.974  1.00  0.00     0.165 HD
HETATM   10  S2  UNL     1      19.415  -8.062   3.846  1.00  0.00    -0.065 SA
BRANCH   8  11
HETATM   11  C5  UNL     1      20.258 -10.546   4.876  1.00  0.00     0.313 C
HETATM   12  C4  UNL     1      21.457 -10.467   3.924  1.00  0.00     0.126 C
HETATM   13  C3  UNL     1      21.048 -11.889   3.510  1.00  0.00     0.330 C
HETATM   14  N7  UNL     1      19.733 -11.544   4.001  1.00  0.00     0.141 N
HETATM   15  C15 UNL     1      18.658 -11.351   3.157  1.00  0.00     0.315 C
BRANCH  13  16
HETATM   16  C2  UNL     1      21.249 -12.224   2.130  1.00  0.00     0.292 C
HETATM   17  O2  UNL     1      21.244 -13.454   1.808  1.00  0.00    -0.263 OA
BRANCH  16  18
HETATM   18  O1  UNL     1      21.452 -11.345   1.080  1.00  0.00    -0.325 OA
HETATM   19  C1  UNL     1      20.639 -11.147  -0.024  1.00  0.00     0.213 C
ENDBRANCH  16  18
ENDBRANCH  13  16
BRANCH  11  20
HETATM   20  O3  UNL     1      20.617 -11.155   6.084  1.00  0.00    -0.352 OA
HETATM   21  C6  UNL     1      21.789 -10.805   6.662  1.00  0.00     0.205 C
ENDBRANCH  11  20
ENDBRANCH   8  11
ENDBRANCH   1   5
BRANCH   3  22
HETATM   22  N3  UNL     1      18.680  -3.553   2.916  1.00  0.00    -0.281 N
ATOM     23  H3  UNL     1      17.670  -3.513   3.049  1.00  0.00     0.188 HD
BRANCH  22  24
HETATM   24  C11 UNL     1      19.067  -2.335   2.464  1.00  0.00     0.141 C
HETATM   25  N4  UNL     1      19.902  -1.727   3.340  1.00  0.00    -0.383 N
ATOM     26  H42 UNL     1      20.188  -2.236   4.175  1.00  0.00     0.157 HD
ATOM     27  H41 UNL     1      20.194  -0.810   3.000  1.00  0.00     0.157 HD
BRANCH  24  28
HETATM   28  C12 UNL     1      18.651  -1.593   1.247  1.00  0.00     0.086 A
HETATM   29  C13 UNL     1      18.305  -0.271   1.353  1.00  0.00     0.086 A
HETATM   30  S1  UNL     1      18.008   0.157  -0.270  1.00  0.00    -0.064 SA
HETATM   31  C14 UNL     1      18.342  -1.356  -0.989  1.00  0.00     0.142 A
HETATM   32  N6  UNL     1      18.662  -2.126   0.046  1.00  0.00    -0.334 N
ATOM     33  H6  UNL     1      18.912  -3.106  -0.089  1.00  0.00     0.168 HD
BRANCH  31  34
HETATM   34  N5  UNL     1      18.320  -1.688  -2.259  1.00  0.00    -0.380 N
ATOM     35  H52 UNL     1      17.526  -1.649  -2.899  1.00  0.00     0.158 HD
ATOM     36  H51 UNL     1      19.072  -2.065  -2.836  1.00  0.00     0.158 HD
ENDBRANCH  31  34
ENDBRANCH  24  28
ENDBRANCH  22  24
ENDBRANCH   3  22
TORSDOF 9
ENDMDL