MODEL 3
REMARK VINA RESULT: -6.841319908      4.220      7.096
REMARK  10 active torsions:
REMARK  status: ('A' for Active; 'I' for Inactive)
REMARK    1  A    between atoms: O1_2  and  C2_3
REMARK    2  A    between atoms: C3_4  and  C4_5
REMARK    3  A    between atoms: C5_7  and  C6_8
REMARK    4  A    between atoms: C7_10  and  O4_11
REMARK    5  A    between atoms: C9_14  and  O5_15
REMARK    6  A    between atoms: C12_19  and  O6_20
REMARK    7  A    between atoms: C14_23  and  O7_24
REMARK    8  A    between atoms: O7_24  and  C15_25
REMARK    9  A    between atoms: C18_29  and  O9_30
REMARK   10  A    between atoms: C18_29  and  C19_32
ROOT
HETATM    1  C2  UNL     1      22.272 -11.597   1.071  1.00  0.00     0.096 A
HETATM    2  C3  UNL     1      21.068 -11.442   0.428  1.00  0.00     0.052 A
HETATM    3  C5  UNL     1      19.941 -11.098   1.170  1.00  0.00     0.052 A
HETATM    4  C7  UNL     1      20.029 -10.916   2.534  1.00  0.00     0.094 A
HETATM    5  C8  UNL     1      21.282 -11.090   3.131  1.00  0.00     0.050 A
HETATM    6  C9  UNL     1      21.366 -10.924   4.491  1.00  0.00     0.114 A
HETATM    7  C10 UNL     1      22.558 -11.099   5.114  1.00  0.00     0.118 A
HETATM    8  C11 UNL     1      23.734 -11.446   4.463  1.00  0.00     0.042 A
HETATM    9  C12 UNL     1      23.636 -11.615   3.060  1.00  0.00     0.091 A
HETATM   10  C13 UNL     1      22.413 -11.432   2.410  1.00  0.00     0.048 A
HETATM   11  C14 UNL     1      24.987 -11.615   5.227  1.00  0.00     0.176 C
HETATM   12  C17 UNL     1      24.714 -12.314   6.558  1.00  0.00     0.118 C
HETATM   13  C18 UNL     1      23.560 -11.697   7.288  1.00  0.00     0.261 C
HETATM   14  O12 UNL     1      22.683 -10.939   6.491  1.00  0.00    -0.300 OA
ENDROOT
BRANCH  13  15
HETATM   15  O9  UNL     1      24.012 -10.865   8.329  1.00  0.00    -0.357 OA
ATOM     16  H9  UNL     1      23.573 -11.072   9.144  1.00  0.00     0.213 HD
ENDBRANCH  13  15
BRANCH  13  17
HETATM   17  C19 UNL     1      22.777 -12.786   7.926  1.00  0.00     0.239 C
HETATM   18  O10 UNL     1      22.339 -12.739   9.104  1.00  0.00    -0.644 OA
HETATM   19  O11 UNL     1      22.520 -13.917   7.170  1.00  0.00    -0.644 OA
ENDBRANCH  13  17
BRANCH  11  20
HETATM   20  O7  UNL     1      25.941 -12.293   4.495  1.00  0.00    -0.311 OA
BRANCH  20  21
HETATM   21  C15 UNL     1      26.528 -13.491   4.876  1.00  0.00     0.255 C
HETATM   22  C16 UNL     1      27.744 -13.470   5.699  1.00  0.00     0.126 C
HETATM   23  O8  UNL     1      25.983 -14.539   4.494  1.00  0.00    -0.266 OA
ENDBRANCH  20  21
ENDBRANCH  11  20
BRANCH   6  24
HETATM   24  O5  UNL     1      20.235 -10.580   5.203  1.00  0.00    -0.357 OA
ATOM     25  H5  UNL     1      19.471 -10.262   4.737  1.00  0.00     0.217 HD
ENDBRANCH   6  24
BRANCH   9  26
HETATM   26  O6  UNL     1      24.724 -11.952   2.418  1.00  0.00    -0.359 OA
ATOM     27  H6  UNL     1      24.690 -11.942   1.470  1.00  0.00     0.217 HD
ENDBRANCH   9  26
BRANCH   4  28
HETATM   28  O4  UNL     1      18.969 -10.578   3.321  1.00  0.00    -0.359 OA
ATOM     29  H4  UNL     1      18.913  -9.765   3.808  1.00  0.00     0.217 HD
ENDBRANCH   4  28
BRANCH   1  30
HETATM   30  O1  UNL     1      23.350 -11.928   0.279  1.00  0.00    -0.354 OA
HETATM   31  C1  UNL     1      23.303 -13.315  -0.175  1.00  0.00     0.210 C
ENDBRANCH   1  30
BRANCH   3  32
HETATM   32  C6  UNL     1      18.648 -10.922   0.530  1.00  0.00     0.273 C
HETATM   33  O3  UNL     1      17.679 -11.642   0.905  1.00  0.00    -0.301 OA
ENDBRANCH   3  32
BRANCH   2  34
HETATM   34  C4  UNL     1      20.995 -11.638  -1.007  1.00  0.00     0.273 C
HETATM   35  O2  UNL     1      21.221 -10.612  -1.736  1.00  0.00    -0.301 OA
ENDBRANCH   2  34
TORSDOF 10
ENDMDL