MODEL 4
REMARK VINA RESULT: -7.170327857      3.816      6.822
REMARK  7 active torsions:
REMARK  status: ('A' for Active; 'I' for Inactive)
REMARK    1  A    between atoms: C2_2  and  C3_3
REMARK    2  A    between atoms: C6_9  and  O3_10
REMARK    3  A    between atoms: O3_10  and  S2_11
REMARK    4  A    between atoms: C9_18  and  O8_19
REMARK    5  A    between atoms: O8_19  and  S3_20
REMARK    6  A    between atoms: S3_20  and  N1_23
REMARK    7  A    between atoms: N1_23  and  O11_25
ROOT
HETATM    1  C1  UNL     1      17.009  -8.163   7.285  1.00  0.00     0.063 C
HETATM    2  C2  UNL     1      17.213  -6.805   6.650  1.00  0.00     0.171 C
HETATM    3  S1  UNL     1      17.266  -7.045   4.832  1.00  0.00    -0.122 SA
HETATM    4  C4  UNL     1      17.784  -5.448   4.126  1.00  0.00     0.117 C
HETATM    5  C5  UNL     1      18.866  -4.917   4.989  1.00  0.00     0.001 C
HETATM    6  C6  UNL     1      19.335  -3.725   4.754  1.00  0.00     0.167 C
HETATM    7  C7  UNL     1      19.436  -5.688   6.108  1.00  0.00     0.268 C
HETATM    8  O7  UNL     1      19.892  -4.893   7.188  1.00  0.00    -0.304 OA
HETATM    9  C8  UNL     1      19.370  -5.843   8.048  1.00  0.00     0.170 C
HETATM   10  C9  UNL     1      19.639  -6.206   9.305  1.00  0.00     0.214 C
HETATM   11  N2  UNL     1      18.474  -6.214   7.015  1.00  0.00    -0.301 N
ENDROOT
BRANCH  10  12
HETATM   12  O8  UNL     1      20.635  -5.572  10.014  1.00  0.00    -0.223 OA
BRANCH  12  13
HETATM   13  S3  UNL     1      22.274  -5.953   9.932  1.00  0.00     0.384 S
HETATM   14  O9  UNL     1      22.918  -6.057  11.287  1.00  0.00    -0.173 OA
HETATM   15  O10 UNL     1      22.441  -7.406   9.128  1.00  0.00    -0.173 OA
BRANCH  13  16
HETATM   16  N1  UNL     1      23.088  -4.868   9.120  1.00  0.00    -0.171 N
ATOM     17  H1  UNL     1      24.094  -4.744   9.234  1.00  0.00     0.209 HD
BRANCH  16  18
HETATM   18  O11 UNL     1      22.339  -4.094   8.238  1.00  0.00    -0.278 OA
ATOM     19  H11 UNL     1      21.778  -4.580   7.645  1.00  0.00     0.245 HD
ENDBRANCH  16  18
ENDBRANCH  13  16
ENDBRANCH  12  13
ENDBRANCH  10  12
BRANCH   2  20
HETATM   20  C3  UNL     1      16.079  -5.905   6.919  1.00  0.00     0.213 C
HETATM   21  O1  UNL     1      14.918  -6.343   6.891  1.00  0.00    -0.645 OA
HETATM   22  O2  UNL     1      16.321  -4.583   7.200  1.00  0.00    -0.645 OA
ENDBRANCH   2  20
BRANCH   6  23
HETATM   23  O3  UNL     1      18.838  -2.964   3.723  1.00  0.00    -0.226 OA
BRANCH  23  24
HETATM   24  S2  UNL     1      19.849  -2.095   2.650  1.00  0.00     0.256 S
HETATM   25  O4  UNL     1      21.096  -1.750   3.433  1.00  0.00    -0.572 OA
HETATM   26  O5  UNL     1      19.168  -0.876   2.133  1.00  0.00    -0.572 OA
HETATM   27  O6  UNL     1      20.301  -3.056   1.340  1.00  0.00    -0.572 OA
ENDBRANCH  23  24
ENDBRANCH   6  23
TORSDOF 7
ENDMDL