MODEL 2
REMARK VINA RESULT: -8.236039335      1.510      2.349
REMARK  6 active torsions:
REMARK  status: ('A' for Active; 'I' for Inactive)
REMARK    1  A    between atoms: C3_7  and  S1_8
REMARK    2  A    between atoms: S1_8  and  C4_9
REMARK    3  A    between atoms: C6_11  and  S2_12
REMARK    4  A    between atoms: S2_12  and  C7_13
REMARK    5  A    between atoms: C7_13  and  N3_14
REMARK    6  A    between atoms: N7_26  and  C11_27
ROOT
HETATM    1  C4  UNL     1      17.853  -8.100   4.767  1.00  0.00     0.035 A
HETATM    2  C5  UNL     1      18.603  -7.225   5.507  1.00  0.00     0.057 A
HETATM    3  C6  UNL     1      18.007  -6.550   6.548  1.00  0.00     0.077 A
HETATM    4  N4  UNL     1      16.715  -6.701   6.886  1.00  0.00    -0.336 N
ATOM      5  H4  UNL     1      16.316  -6.180   7.667  1.00  0.00     0.168 HD
HETATM    6  C8  UNL     1      15.953  -7.565   6.165  1.00  0.00     0.122 A
HETATM    7  N5  UNL     1      14.699  -7.700   6.506  1.00  0.00    -0.384 N
ATOM      8  H51 UNL     1      14.127  -8.347   5.964  1.00  0.00     0.157 HD
ATOM      9  H52 UNL     1      14.280  -7.188   7.283  1.00  0.00     0.157 HD
HETATM   10  C9  UNL     1      16.509  -8.245   5.133  1.00  0.00     0.105 A
HETATM   11  C10 UNL     1      15.665  -9.154   4.390  1.00  0.00     0.104 C
HETATM   12  N6  UNL     1      14.990  -9.879   3.790  1.00  0.00    -0.191 NA
ENDROOT
BRANCH   1  13
HETATM   13  S1  UNL     1      18.429  -9.053   3.402  1.00  0.00    -0.051 SA
BRANCH  13  14
HETATM   14  C3  UNL     1      19.375 -10.498   3.837  1.00  0.00     0.173 A
HETATM   15  N2  UNL     1      20.415 -10.621   4.670  1.00  0.00    -0.278 N
HETATM   16  N1  UNL     1      20.818 -11.872   4.703  1.00  0.00    -0.287 N
ATOM     17  H2  UNL     1      20.832  -9.858   5.201  1.00  0.00     0.189 HD
HETATM   18  C2  UNL     1      20.035 -12.590   3.879  1.00  0.00     0.102 A
ATOM     19  H1  UNL     1      21.593 -12.236   5.258  1.00  0.00     0.188 HD
HETATM   20  C1  UNL     1      20.213 -14.066   3.669  1.00  0.00     0.091 C
HETATM   21  N7  UNL     1      19.153 -11.751   3.350  1.00  0.00    -0.262 N
BRANCH  21  22
HETATM   22  C11 UNL     1      18.148 -12.112   2.429  1.00  0.00     0.145 A
HETATM   23  N8  UNL     1      16.940 -12.515   2.858  1.00  0.00    -0.292 N
HETATM   24  C12 UNL     1      16.000 -12.854   1.962  1.00  0.00     0.328 A
ATOM     25  H8  UNL     1      16.740 -12.564   3.857  1.00  0.00     0.172 HD
HETATM   26  O1  UNL     1      14.845 -13.241   2.277  1.00  0.00    -0.247 OA
HETATM   27  N9  UNL     1      16.272 -12.789   0.631  1.00  0.00    -0.274 N
HETATM   28  C13 UNL     1      17.477 -12.388   0.182  1.00  0.00     0.274 A
ATOM     29  H9  UNL     1      15.550 -13.050  -0.040  1.00  0.00     0.173 HD
HETATM   30  O2  UNL     1      17.763 -12.316  -1.038  1.00  0.00    -0.266 OA
HETATM   31  C14 UNL     1      18.462 -12.034   1.082  1.00  0.00     0.157 A
HETATM   32  C15 UNL     1      19.763 -11.600   0.617  1.00  0.00     0.109 C
HETATM   33  N10 UNL     1      20.805 -11.267   0.245  1.00  0.00    -0.191 NA
ENDBRANCH  21  22
ENDBRANCH  13  14
ENDBRANCH   1  13
BRANCH   3  34
HETATM   34  S2  UNL     1      19.051  -5.418   7.476  1.00  0.00    -0.068 SA
BRANCH  34  35
HETATM   35  C7  UNL     1      18.578  -5.467   9.201  1.00  0.00     0.133 C
BRANCH  35  36
HETATM   36  N3  UNL     1      19.263  -6.132  10.074  1.00  0.00    -0.403 N
ATOM     37  H32 UNL     1      19.093  -7.134  10.157  1.00  0.00     0.155 HD
ATOM     38  H31 UNL     1      19.955  -5.679  10.670  1.00  0.00     0.155 HD
ENDBRANCH  35  36
ENDBRANCH  34  35
ENDBRANCH   3  34
TORSDOF 6
ENDMDL