MODEL 2
REMARK VINA RESULT: -7.792262235      0.764      1.885
REMARK  10 active torsions:
REMARK  status: ('A' for Active; 'I' for Inactive)
REMARK    1  A    between atoms: O1_2  and  C2_3
REMARK    2  A    between atoms: C2_3  and  C3_5
REMARK    3  A    between atoms: C4_6  and  C5_7
REMARK    4  A    between atoms: C4_6  and  N5_35
REMARK    5  A    between atoms: C7_9  and  O3_10
REMARK    6  A    between atoms: C8_12  and  C9_13
REMARK       I    between atoms: C9_13  and  N1_15
REMARK    7  A    between atoms: N2_17  and  C10_19
REMARK    8  A    between atoms: C11_20  and  O5_21
REMARK    9  A    between atoms: C14_29  and  O7_30
REMARK   10  A    between atoms: C15_32  and  O8_33
ROOT
HETATM    1  C5  UNL     1      18.766  -8.059   4.669  1.00  0.00     0.029 A
HETATM    2  C6  UNL     1      19.809  -8.699   5.272  1.00  0.00     0.054 A
HETATM    3  C7  UNL     1      20.168 -10.037   5.012  1.00  0.00     0.085 A
HETATM    4  C8  UNL     1      19.454 -10.763   4.110  1.00  0.00     0.102 A
HETATM    5  C14 UNL     1      18.370 -10.143   3.465  1.00  0.00     0.118 A
HETATM    6  C15 UNL     1      18.041  -8.825   3.743  1.00  0.00     0.112 A
ENDROOT
BRANCH   4   7
HETATM    7  C9  UNL     1      19.724 -12.142   3.747  1.00  0.00     0.275 C
HETATM    8  O4  UNL     1      20.533 -12.853   4.390  1.00  0.00    -0.266 OA
HETATM    9  N1  UNL     1      19.093 -12.782   2.636  1.00  0.00    -0.264 N
HETATM   10  N2  UNL     1      19.646 -13.067   1.553  1.00  0.00    -0.279 N
ATOM     11  H1  UNL     1      18.108 -13.025   2.735  1.00  0.00     0.190 HD
ATOM     12  H2  UNL     1      19.062 -13.524   0.853  1.00  0.00     0.189 HD
BRANCH  10  13
HETATM   13  C10 UNL     1      20.988 -12.830   1.188  1.00  0.00     0.178 A
HETATM   14  C11 UNL     1      22.054 -13.576   1.609  1.00  0.00     0.191 A
HETATM   15  N3  UNL     1      23.169 -13.036   1.048  1.00  0.00    -0.286 N
HETATM   16  C12 UNL     1      22.800 -11.974   0.293  1.00  0.00     0.329 A
ATOM     17  H3  UNL     1      24.123 -13.373   1.175  1.00  0.00     0.172 HD
HETATM   18  O6  UNL     1      23.563 -11.217  -0.385  1.00  0.00    -0.246 OA
HETATM   19  N4  UNL     1      21.468 -11.844   0.374  1.00  0.00    -0.285 N
HETATM   20  C13 UNL     1      20.618 -10.836  -0.278  1.00  0.00     0.163 C
BRANCH  14  21
HETATM   21  O5  UNL     1      22.100 -14.700   2.456  1.00  0.00    -0.343 OA
ATOM     22  H5  UNL     1      22.303 -15.607   2.262  1.00  0.00     0.219 HD
ENDBRANCH  14  21
ENDBRANCH  10  13
ENDBRANCH   4   7
BRANCH   3  23
HETATM   23  O3  UNL     1      21.243 -10.519   5.709  1.00  0.00    -0.360 OA
ATOM     24  H3  UNL     1      21.150 -11.393   6.070  1.00  0.00     0.217 HD
ENDBRANCH   3  23
BRANCH   5  25
HETATM   25  O7  UNL     1      17.657 -10.897   2.556  1.00  0.00    -0.357 OA
ATOM     26  H7  UNL     1      16.836 -11.274   2.850  1.00  0.00     0.217 HD
ENDBRANCH   5  25
BRANCH   6  27
HETATM   27  O8  UNL     1      16.979  -8.299   3.074  1.00  0.00    -0.357 OA
ATOM     28  H8  UNL     1      16.094  -8.397   3.403  1.00  0.00     0.217 HD
ENDBRANCH   6  27
BRANCH   1  29
HETATM   29  C4  UNL     1      18.417  -6.674   4.949  1.00  0.00     0.048 C
HETATM   30  C3  UNL     1      18.751  -5.742   4.083  1.00  0.00     0.112 C
BRANCH  30  31
HETATM   31  C2  UNL     1      18.496  -4.324   4.176  1.00  0.00     0.284 C
HETATM   32  O2  UNL     1      17.276  -3.932   4.046  1.00  0.00    -0.260 OA
BRANCH  31  33
HETATM   33  O1  UNL     1      19.388  -3.309   4.390  1.00  0.00    -0.323 OA
HETATM   34  C1  UNL     1      19.842  -2.502   3.347  1.00  0.00     0.213 C
ENDBRANCH  31  33
ENDBRANCH  30  31
BRANCH  29  35
HETATM   35  N5  UNL     1      17.728  -6.286   6.128  1.00  0.00    -0.389 N
HETATM   36  C16 UNL     1      18.455  -5.775   7.304  1.00  0.00     0.149 C
HETATM   37  C17 UNL     1      16.288  -6.358   6.304  1.00  0.00     0.149 C
ENDBRANCH  29  35
ENDBRANCH   1  29
TORSDOF 10
ENDMDL