MODEL 5
REMARK VINA RESULT: -7.087330362      2.920      5.084
REMARK  7 active torsions:
REMARK  status: ('A' for Active; 'I' for Inactive)
REMARK    1  A    between atoms: O1_2  and  C2_3
REMARK    2  A    between atoms: C2_3  and  C3_5
REMARK    3  A    between atoms: C5_10  and  O3_11
REMARK    4  A    between atoms: C5_10  and  C17_28
REMARK    5  A    between atoms: O3_11  and  C6_12
REMARK    6  A    between atoms: C11_18  and  O5_19
REMARK    7  A    between atoms: C15_25  and  O7_26
ROOT
HETATM    1  C6  UNL     1      19.924 -11.774   1.690  1.00  0.00     0.107 A
HETATM    2  C7  UNL     1      21.151 -11.575   2.256  1.00  0.00     0.049 A
HETATM    3  C8  UNL     1      21.353 -10.713   3.320  1.00  0.00    -0.024 A
HETATM    4  C9  UNL     1      22.710 -10.511   3.924  1.00  0.00     0.051 C
HETATM    5  C10 UNL     1      20.297 -10.016   3.850  1.00  0.00     0.101 A
HETATM    6  O4  UNL     1      20.443  -9.187   4.856  1.00  0.00    -0.286 OA
HETATM    7  C11 UNL     1      19.481  -8.493   5.402  1.00  0.00     0.187 A
HETATM    8  C12 UNL     1      18.201  -8.604   4.923  1.00  0.00     0.119 A
HETATM    9  C13 UNL     1      17.984  -9.471   3.853  1.00  0.00     0.192 A
HETATM   10  O6  UNL     1      16.832  -9.611   3.371  1.00  0.00    -0.287 OA
HETATM   11  C14 UNL     1      19.024 -10.185   3.309  1.00  0.00     0.085 A
HETATM   12  C15 UNL     1      18.857 -11.054   2.247  1.00  0.00     0.118 A
ENDROOT
BRANCH   1  13
HETATM   13  O3  UNL     1      19.684 -12.600   0.656  1.00  0.00    -0.307 OA
BRANCH  13  14
HETATM   14  C5  UNL     1      19.721 -12.449  -0.708  1.00  0.00     0.269 C
HETATM   15  C3  UNL     1      20.517 -13.606  -1.286  1.00  0.00     0.168 C
HETATM   16  C4  UNL     1      19.866 -14.895  -0.825  1.00  0.00     0.045 C
HETATM   17  S1  UNL     1      19.990 -13.342  -3.041  1.00  0.00    -0.019 SA
HETATM   18  N1  UNL     1      18.384 -12.682  -2.593  1.00  0.00    -0.069 NA
HETATM   19  N2  UNL     1      18.393 -12.789  -1.224  1.00  0.00    -0.083 NA
BRANCH  15  20
HETATM   20  C2  UNL     1      21.942 -13.582  -1.138  1.00  0.00     0.283 C
HETATM   21  O2  UNL     1      22.521 -13.547  -0.043  1.00  0.00    -0.263 OA
BRANCH  20  22
HETATM   22  O1  UNL     1      22.727 -13.602  -2.283  1.00  0.00    -0.325 OA
HETATM   23  C1  UNL     1      23.253 -14.788  -2.834  1.00  0.00     0.213 C
ENDBRANCH  20  22
ENDBRANCH  15  20
BRANCH  14  24
HETATM   24  C17 UNL     1      20.055 -11.140  -1.254  1.00  0.00     0.231 C
HETATM   25  O8  UNL     1      21.257 -10.740  -1.486  1.00  0.00    -0.645 OA
HETATM   26  O9  UNL     1      19.105 -10.176  -1.588  1.00  0.00    -0.645 OA
ENDBRANCH  14  24
ENDBRANCH  13  14
ENDBRANCH   1  13
BRANCH  12  27
HETATM   27  O7  UNL     1      17.608 -11.250   1.682  1.00  0.00    -0.352 OA
HETATM   28  C16 UNL     1      16.934 -12.469   2.051  1.00  0.00     0.210 C
ENDBRANCH  12  27
BRANCH   7  29
HETATM   29  O5  UNL     1      19.746  -7.627   6.485  1.00  0.00    -0.341 OA
ATOM     30  H5  UNL     1      19.300  -7.741   7.316  1.00  0.00     0.220 HD
ENDBRANCH   7  29
TORSDOF 7
ENDMDL