MODEL 1
REMARK VINA RESULT: -7.583453583      0.000      0.000
REMARK  10 active torsions:
REMARK  status: ('A' for Active; 'I' for Inactive)
REMARK    1  A    between atoms: O1_2  and  C2_3
REMARK    2  A    between atoms: C4_5  and  C5_6
REMARK    3  A    between atoms: C5_6  and  O2_7
REMARK    4  A    between atoms: C5_6  and  N1_9
REMARK    5  A    between atoms: N1_9  and  N2_11
REMARK    6  A    between atoms: N2_11  and  C6_12
REMARK    7  A    between atoms: C10_22  and  S2_23
REMARK    8  A    between atoms: C12_25  and  O4_26
REMARK    9  A    between atoms: O4_26  and  C13_27
REMARK   10  A    between atoms: C15_30  and  O6_31
ROOT
HETATM    1  C2  UNL     1      12.861  -0.006   6.795  1.00  0.00     0.105 A
HETATM    2  C3  UNL     1      14.083   0.065   6.186  1.00  0.00     0.057 A
HETATM    3  C4  UNL     1      14.490   1.151   5.394  1.00  0.00     0.039 A
HETATM    4  C10 UNL     1      13.588   2.191   5.244  1.00  0.00     0.051 A
HETATM    5  C12 UNL     1      12.343   2.144   5.847  1.00  0.00     0.132 A
HETATM    6  C15 UNL     1      11.986   1.072   6.607  1.00  0.00     0.135 A
ENDROOT
BRANCH   3   7
HETATM    7  C5  UNL     1      15.737   1.099   4.734  1.00  0.00     0.177 C
BRANCH   7   8
HETATM    8  O2  UNL     1      16.749   1.401   5.578  1.00  0.00    -0.344 OA
ATOM      9  H2  UNL     1      17.197   2.194   5.308  1.00  0.00     0.219 HD
ENDBRANCH   7   8
BRANCH   7  10
HETATM   10  N1  UNL     1      16.207   0.821   3.435  1.00  0.00    -0.210 N
ATOM     11  H1  UNL     1      16.342   1.610   2.802  1.00  0.00     0.204 HD
BRANCH  10  12
HETATM   12  N2  UNL     1      16.483  -0.370   2.984  1.00  0.00    -0.303 NA
BRANCH  12  13
HETATM   13  C6  UNL     1      16.767  -1.460   2.547  1.00  0.00     0.233 A
HETATM   14  N3  UNL     1      18.036  -1.907   2.642  1.00  0.00    -0.289 N
HETATM   15  C7  UNL     1      18.506  -3.084   2.234  1.00  0.00     0.292 A
ATOM     16  H3  UNL     1      18.710  -1.273   3.074  1.00  0.00     0.172 HD
HETATM   17  O3  UNL     1      19.749  -3.387   2.379  1.00  0.00    -0.260 OA
HETATM   18  S1  UNL     1      17.386  -4.152   1.513  1.00  0.00    -0.012 SA
HETATM   19  C8  UNL     1      15.823  -3.479   1.449  1.00  0.00     0.121 A
HETATM   20  N4  UNL     1      14.682  -4.158   0.894  1.00  0.00    -0.092 NA
HETATM   21  C9  UNL     1      15.720  -2.227   1.972  1.00  0.00     0.138 A
HETATM   22  N5  UNL     1      14.416  -1.613   1.953  1.00  0.00    -0.095 NA
ENDBRANCH  12  13
ENDBRANCH  10  12
ENDBRANCH   7  10
ENDBRANCH   3   7
BRANCH   4  23
HETATM   23  S2  UNL     1      13.963   3.684   4.367  1.00  0.00    -0.131 SA
HETATM   24  C11 UNL     1      14.912   4.802   5.477  1.00  0.00     0.095 C
ENDBRANCH   4  23
BRANCH   1  25
HETATM   25  O1  UNL     1      12.435  -1.063   7.577  1.00  0.00    -0.353 OA
HETATM   26  C1  UNL     1      13.278  -1.906   8.325  1.00  0.00     0.210 C
ENDBRANCH   1  25
BRANCH   5  27
HETATM   27  O4  UNL     1      11.425   3.207   5.670  1.00  0.00    -0.275 OA
BRANCH  27  28
HETATM   28  C13 UNL     1      10.595   3.069   4.547  1.00  0.00     0.260 C
HETATM   29  C14 UNL     1      10.519   3.986   3.404  1.00  0.00     0.126 C
HETATM   30  O5  UNL     1       9.828   2.042   4.523  1.00  0.00    -0.265 OA
ENDBRANCH  27  28
ENDBRANCH   5  27
BRANCH   6  31
HETATM   31  O6  UNL     1      10.735   1.054   7.198  1.00  0.00    -0.356 OA
ATOM     32  H6  UNL     1      10.334   1.867   7.480  1.00  0.00     0.218 HD
ENDBRANCH   6  31
TORSDOF 10
ENDMDL