MODEL 1
REMARK VINA RESULT: -7.137327777      0.000      0.000
REMARK  11 active torsions:
REMARK  status: ('A' for Active; 'I' for Inactive)
REMARK       I    between atoms: N1_2  and  C2_4
REMARK    1  A    between atoms: C2_4  and  C3_6
REMARK    2  A    between atoms: C3_6  and  O2_7
REMARK    3  A    between atoms: C3_6  and  O3_9
REMARK    4  A    between atoms: C3_6  and  C4_11
REMARK    5  A    between atoms: C6_14  and  O5_15
REMARK    6  A    between atoms: C9_18  and  O6_19
REMARK    7  A    between atoms: O6_19  and  C10_20
REMARK    8  A    between atoms: C13_24  and  O8_25
REMARK    9  A    between atoms: C14_27  and  O9_28
REMARK   10  A    between atoms: C16_30  and  O10_31
REMARK   11  A    between atoms: C17_33  and  O11_34
ROOT
HETATM    1  C4  UNL     1      15.604   2.750   4.702  1.00  0.00     0.167 C
HETATM    2  C5  UNL     1      14.703   2.472   5.874  1.00  0.00     0.174 C
HETATM    3  O4  UNL     1      14.360   3.338   6.591  1.00  0.00    -0.294 OA
HETATM    4  C6  UNL     1      14.254   1.052   6.103  1.00  0.00     0.227 C
HETATM    5  C8  UNL     1      15.247   0.159   5.394  1.00  0.00     0.014 C
HETATM    6  C9  UNL     1      14.909  -0.969   4.915  1.00  0.00     0.156 C
HETATM    7  C12 UNL     1      16.605   0.672   5.315  1.00  0.00     0.021 A
HETATM    8  C13 UNL     1      17.691  -0.136   5.590  1.00  0.00     0.113 A
HETATM    9  C14 UNL     1      18.978   0.331   5.530  1.00  0.00     0.138 A
HETATM   10  C16 UNL     1      19.168   1.665   5.181  1.00  0.00     0.136 A
HETATM   11  C17 UNL     1      18.108   2.523   4.896  1.00  0.00     0.110 A
HETATM   12  C18 UNL     1      16.843   2.028   4.963  1.00  0.00     0.009 A
ENDROOT
BRANCH   1  13
HETATM   13  C3  UNL     1      15.539   4.125   4.257  1.00  0.00     0.258 C
BRANCH  13  14
HETATM   14  C2  UNL     1      14.101   4.349   3.766  1.00  0.00     0.281 C
HETATM   15  N1  UNL     1      13.150   4.951   4.623  1.00  0.00    -0.361 N
HETATM   16  C1  UNL     1      11.802   5.149   4.129  1.00  0.00     0.149 C
ATOM     17  H1  UNL     1      13.407   5.238   5.567  1.00  0.00     0.162 HD
HETATM   18  O1  UNL     1      13.734   4.015   2.621  1.00  0.00    -0.267 OA
ENDBRANCH  13  14
BRANCH  13  19
HETATM   19  O2  UNL     1      15.724   5.096   5.234  1.00  0.00    -0.357 OA
ATOM     20  H2  UNL     1      15.377   4.701   6.026  1.00  0.00     0.213 HD
ENDBRANCH  13  19
BRANCH  13  21
HETATM   21  O3  UNL     1      16.241   4.387   3.071  1.00  0.00    -0.357 OA
ATOM     22  H3  UNL     1      16.441   3.498   2.801  1.00  0.00     0.213 HD
ENDBRANCH  13  21
ENDBRANCH   1  13
BRANCH   4  23
HETATM   23  O5  UNL     1      12.963   0.822   5.716  1.00  0.00    -0.378 OA
HETATM   24  C7  UNL     1      12.068   0.666   6.763  1.00  0.00     0.203 C
ENDBRANCH   4  23
BRANCH  11  25
HETATM   25  O11 UNL     1      18.313   3.843   4.556  1.00  0.00    -0.357 OA
ATOM     26  H11 UNL     1      17.963   4.554   5.080  1.00  0.00     0.217 HD
ENDBRANCH  11  25
BRANCH   8  27
HETATM   27  O8  UNL     1      17.430  -1.472   5.943  1.00  0.00    -0.357 OA
ATOM     28  H8  UNL     1      17.862  -2.150   5.436  1.00  0.00     0.217 HD
ENDBRANCH   8  27
BRANCH  10  29
HETATM   29  O10 UNL     1      20.453   2.150   5.117  1.00  0.00    -0.356 OA
ATOM     30  H10 UNL     1      21.058   1.753   4.502  1.00  0.00     0.218 HD
ENDBRANCH  10  29
BRANCH   6  31
HETATM   31  O6  UNL     1      15.586  -1.942   4.240  1.00  0.00    -0.291 OA
BRANCH  31  32
HETATM   32  C10 UNL     1      15.474  -2.192   2.883  1.00  0.00     0.259 C
HETATM   33  C11 UNL     1      16.609  -2.690   2.072  1.00  0.00     0.126 C
HETATM   34  O7  UNL     1      14.371  -1.993   2.302  1.00  0.00    -0.265 OA
ENDBRANCH  31  32
ENDBRANCH   6  31
BRANCH   9  35
HETATM   35  O9  UNL     1      20.030  -0.507   5.809  1.00  0.00    -0.351 OA
HETATM   36  C15 UNL     1      20.585  -0.685   7.102  1.00  0.00     0.210 C
ENDBRANCH   9  35
TORSDOF 11
ENDMDL