MODEL 4
REMARK VINA RESULT: -6.425482543      1.808      2.693
REMARK  14 active torsions:
REMARK  status: ('A' for Active; 'I' for Inactive)
REMARK    1  A    between atoms: C2_2  and  O1_3
REMARK    2  A    between atoms: O1_3  and  C3_4
REMARK    3  A    between atoms: C3_4  and  O3_6
REMARK    4  A    between atoms: O3_6  and  C4_7
REMARK    5  A    between atoms: C5_8  and  C6_9
REMARK    6  A    between atoms: C6_9  and  O5_11
REMARK    7  A    between atoms: C8_13  and  O6_14
REMARK    8  A    between atoms: C8_13  and  C9_16
REMARK    9  A    between atoms: C10_17  and  O7_18
REMARK   10  A    between atoms: C12_21  and  O8_22
REMARK   11  A    between atoms: C14_25  and  O9_26
REMARK   12  A    between atoms: C16_29  and  O10_30
REMARK   13  A    between atoms: C16_29  and  C17_32
REMARK   14  A    between atoms: C17_32  and  O12_34
ROOT
HETATM    1  C4  UNL     1      16.210  -1.253   2.678  1.00  0.00     0.119 C
HETATM    2  C5  UNL     1      17.491  -1.560   2.765  1.00  0.00     0.089 C
HETATM    3  C8  UNL     1      18.156  -0.734   3.789  1.00  0.00     0.129 C
HETATM    4  C15 UNL     1      17.204   0.413   3.997  1.00  0.00     0.104 C
HETATM    5  C16 UNL     1      15.877  -0.167   3.590  1.00  0.00     0.198 C
ENDROOT
BRANCH   3   6
HETATM    6  O6  UNL     1      19.303  -0.193   3.119  1.00  0.00    -0.379 OA
ATOM      7  H6  UNL     1      19.366  -0.698   2.317  1.00  0.00     0.211 HD
ENDBRANCH   3   6
BRANCH   3   8
HETATM    8  C9  UNL     1      18.566  -1.358   5.042  1.00  0.00     0.047 A
HETATM    9  C10 UNL     1      19.555  -0.618   5.755  1.00  0.00     0.080 A
HETATM   10  C11 UNL     1      20.005  -1.080   6.956  1.00  0.00     0.073 A
HETATM   11  C12 UNL     1      19.524  -2.252   7.504  1.00  0.00     0.071 A
HETATM   12  C13 UNL     1      18.574  -2.950   6.809  1.00  0.00     0.073 A
HETATM   13  C14 UNL     1      18.080  -2.505   5.561  1.00  0.00     0.080 A
BRANCH   9  14
HETATM   14  O7  UNL     1      20.059   0.559   5.236  1.00  0.00    -0.360 OA
ATOM     15  H7  UNL     1      20.284   1.281   5.810  1.00  0.00     0.217 HD
ENDBRANCH   9  14
BRANCH  11  16
HETATM   16  O8  UNL     1      20.005  -2.699   8.734  1.00  0.00    -0.361 OA
ATOM     17  H8  UNL     1      19.404  -2.854   9.454  1.00  0.00     0.217 HD
ENDBRANCH  11  16
BRANCH  13  18
HETATM   18  O9  UNL     1      17.115  -3.253   4.921  1.00  0.00    -0.360 OA
ATOM     19  H9  UNL     1      16.230  -3.335   5.257  1.00  0.00     0.217 HD
ENDBRANCH  13  18
ENDBRANCH   3   8
BRANCH   2  20
HETATM   20  C6  UNL     1      18.165  -2.606   1.954  1.00  0.00     0.294 C
HETATM   21  O4  UNL     1      18.296  -3.786   2.364  1.00  0.00    -0.259 OA
BRANCH  20  22
HETATM   22  O5  UNL     1      18.686  -2.346   0.695  1.00  0.00    -0.323 OA
HETATM   23  C7  UNL     1      19.281  -3.360  -0.094  1.00  0.00     0.213 C
ENDBRANCH  20  22
ENDBRANCH   2  20
BRANCH   1  24
HETATM   24  O3  UNL     1      15.343  -1.928   1.782  1.00  0.00    -0.255 OA
BRANCH  24  25
HETATM   25  C3  UNL     1      14.978  -3.250   1.987  1.00  0.00     0.411 C
HETATM   26  O2  UNL     1      14.871  -3.655   3.168  1.00  0.00    -0.229 OA
BRANCH  25  27
HETATM   27  O1  UNL     1      14.726  -4.138   0.962  1.00  0.00    -0.298 OA
BRANCH  27  28
HETATM   28  C2  UNL     1      15.727  -4.417  -0.030  1.00  0.00     0.176 C
HETATM   29  C1  UNL     1      15.132  -5.104  -1.216  1.00  0.00     0.034 C
ENDBRANCH  27  28
ENDBRANCH  25  27
ENDBRANCH  24  25
ENDBRANCH   1  24
BRANCH   5  30
HETATM   30  O10 UNL     1      15.293   0.852   2.743  1.00  0.00    -0.373 OA
ATOM     31  H10 UNL     1      14.360   0.805   2.920  1.00  0.00     0.211 HD
ENDBRANCH   5  30
BRANCH   5  32
HETATM   32  C17 UNL     1      14.948  -0.446   4.674  1.00  0.00     0.300 C
HETATM   33  O11 UNL     1      14.875  -1.489   5.349  1.00  0.00    -0.261 OA
BRANCH  32  34
HETATM   34  O12 UNL     1      13.989   0.535   5.056  1.00  0.00    -0.324 OA
HETATM   35  C18 UNL     1      13.907   1.023   6.382  1.00  0.00     0.213 C
ENDBRANCH  32  34
ENDBRANCH   5  32
TORSDOF 14
ENDMDL