MODEL 4
REMARK VINA RESULT: -7.092566391      3.003      6.682
REMARK  10 active torsions:
REMARK  status: ('A' for Active; 'I' for Inactive)
REMARK    1  A    between atoms: O1_2  and  C2_3
REMARK       I    between atoms: C2_3  and  N1_5
REMARK    2  A    between atoms: C3_7  and  N2_8
REMARK    3  A    between atoms: C3_7  and  C9_21
REMARK    4  A    between atoms: N2_8  and  N3_10
REMARK    5  A    between atoms: C4_12  and  C5_13
REMARK    6  A    between atoms: C8_16  and  N4_17
REMARK    7  A    between atoms: C10_22  and  O6_23
REMARK    8  A    between atoms: C12_27  and  N6_28
REMARK    9  A    between atoms: C13_33  and  N8_34
REMARK   10  A    between atoms: N8_34  and  O7_36
ROOT
HETATM    1  O7  UNL     1      16.595  -2.665   1.596  1.00  0.00    -0.158 OA
HETATM    2  C14 UNL     1      15.593  -3.512   1.150  1.00  0.00     0.253 C
HETATM    3  N9  UNL     1      14.754  -4.197   0.778  1.00  0.00    -0.162 NA
ENDROOT
BRANCH   1   4
HETATM    4  N8  UNL     1      16.334  -1.596   2.414  1.00  0.00    -0.232 N
ATOM      5  H8  UNL     1      15.389  -1.224   2.498  1.00  0.00     0.197 HD
BRANCH   4   6
HETATM    6  C13 UNL     1      17.306  -1.074   3.073  1.00  0.00     0.160 A
HETATM    7  C9  UNL     1      17.001   0.053   3.845  1.00  0.00     0.107 A
HETATM    8  C10 UNL     1      18.038   0.608   4.552  1.00  0.00     0.175 A
HETATM    9  N5  UNL     1      19.268   0.034   4.458  1.00  0.00    -0.170 N
HETATM   10  C12 UNL     1      19.533  -1.047   3.710  1.00  0.00     0.679 A
ATOM     11  H5  UNL     1      20.034   0.451   4.986  1.00  0.00     0.186 HD
HETATM   12  N7  UNL     1      18.531  -1.600   3.013  1.00  0.00    -0.174 N
ATOM     13  H7  UNL     1      18.704  -2.423   2.436  1.00  0.00     0.186 HD
BRANCH   7  14
HETATM   14  C3  UNL     1      15.649   0.541   3.877  1.00  0.00     0.142 C
HETATM   15  N1  UNL     1      14.798   0.129   4.701  1.00  0.00    -0.286 N
HETATM   16  C2  UNL     1      14.861  -0.829   5.703  1.00  0.00     0.365 C
ATOM     17  H1  UNL     1      13.888   0.582   4.619  1.00  0.00     0.172 HD
HETATM   18  O2  UNL     1      15.328  -1.992   5.582  1.00  0.00    -0.238 OA
BRANCH  16  19
HETATM   19  O1  UNL     1      14.371  -0.505   6.973  1.00  0.00    -0.309 OA
HETATM   20  C1  UNL     1      13.370  -1.295   7.600  1.00  0.00     0.215 C
ENDBRANCH  16  19
BRANCH  14  21
HETATM   21  N2  UNL     1      15.200   1.575   2.963  1.00  0.00    -0.285 N
ATOM     22  H2  UNL     1      14.554   1.336   2.210  1.00  0.00     0.188 HD
BRANCH  21  23
HETATM   23  N3  UNL     1      15.634   2.877   3.096  1.00  0.00    -0.308 N
HETATM   24  C4  UNL     1      14.955   3.840   3.540  1.00  0.00     0.144 C
ATOM     25  H3  UNL     1      16.591   3.079   2.809  1.00  0.00     0.186 HD
BRANCH  24  26
HETATM   26  C5  UNL     1      13.582   3.774   3.999  1.00  0.00     0.095 A
HETATM   27  C6  UNL     1      12.677   4.842   4.022  1.00  0.00     0.043 A
HETATM   28  C7  UNL     1      11.509   4.325   4.529  1.00  0.00     0.065 A
HETATM   29  C8  UNL     1      11.719   2.994   4.797  1.00  0.00     0.215 A
HETATM   30  O5  UNL     1      12.949   2.742   4.464  1.00  0.00    -0.287 OA
BRANCH  29  31
HETATM   31  N4  UNL     1      10.743   2.112   5.334  1.00  0.00    -0.090 N
HETATM   32  O3  UNL     1       9.553   2.221   5.071  1.00  0.00    -0.530 OA
HETATM   33  O4  UNL     1      11.164   1.114   6.168  1.00  0.00    -0.530 OA
ENDBRANCH  29  31
ENDBRANCH  24  26
ENDBRANCH  21  23
ENDBRANCH  14  21
ENDBRANCH   7  14
BRANCH   8  34
HETATM   34  O6  UNL     1      17.830   1.729   5.342  1.00  0.00    -0.340 OA
HETATM   35  C11 UNL     1      18.632   2.880   5.167  1.00  0.00     0.211 C
ENDBRANCH   8  34
BRANCH  10  36
HETATM   36  N6  UNL     1      20.741  -1.543   3.667  1.00  0.00    -0.234 N
ATOM     37  H62 UNL     1      21.460  -1.238   4.324  1.00  0.00     0.174 HD
ATOM     38  H61 UNL     1      20.986  -2.249   2.973  1.00  0.00     0.174 HD
ENDBRANCH  10  36
ENDBRANCH   4   6
ENDBRANCH   1   4
TORSDOF 10
ENDMDL