MODEL 1
REMARK VINA RESULT: -8.256867681      0.000      0.000
REMARK  6 active torsions:
REMARK  status: ('A' for Active; 'I' for Inactive)
REMARK    1  A    between atoms: C2_2  and  C5_5
REMARK    2  A    between atoms: C5_5  and  C6_7
REMARK    3  A    between atoms: C6_7  and  O2_10
REMARK    4  A    between atoms: O2_10  and  N1_11
REMARK    5  A    between atoms: C12_20  and  N4_21
REMARK    6  A    between atoms: C15_31  and  C16_32
ROOT
HETATM    1  N1  UNL     1      16.225   1.350   5.643  1.00  0.00    -0.174 N
HETATM    2  N2  UNL     1      14.948   1.705   5.790  1.00  0.00    -0.272 N
ATOM      3  H2  UNL     1      14.519   1.255   6.599  1.00  0.00     0.189 HD
HETATM    4  C9  UNL     1      14.009   2.571   5.089  1.00  0.00     0.128 A
HETATM    5  C10 UNL     1      14.425   3.584   4.247  1.00  0.00     0.183 A
HETATM    6  N3  UNL     1      13.491   4.343   3.632  1.00  0.00    -0.300 N
ATOM      7  H3  UNL     1      13.773   5.097   3.005  1.00  0.00     0.171 HD
HETATM    8  C11 UNL     1      12.192   4.099   3.850  1.00  0.00     0.282 A
HETATM    9  O3  UNL     1      11.328   4.827   3.260  1.00  0.00    -0.265 OA
HETATM   10  C12 UNL     1      11.740   3.105   4.680  1.00  0.00     0.197 A
HETATM   11  C13 UNL     1      12.699   2.314   5.321  1.00  0.00     0.117 A
HETATM   12  N5  UNL     1      12.301   1.298   6.191  1.00  0.00    -0.097 NA
HETATM   13  O6  UNL     1      15.735   3.991   3.897  1.00  0.00    -0.276 OA
HETATM   14  C14 UNL     1      16.868   3.409   4.450  1.00  0.00     0.157 C
HETATM   15  N6  UNL     1      17.780   4.245   4.759  1.00  0.00    -0.381 N
ATOM     16  H61 UNL     1      18.611   3.817   5.166  1.00  0.00     0.158 HD
ATOM     17  H62 UNL     1      17.639   5.242   4.595  1.00  0.00     0.158 HD
HETATM   18  C15 UNL     1      17.068   1.999   4.684  1.00  0.00     0.308 C
ENDROOT
BRANCH   1  19
HETATM   19  O2  UNL     1      16.627   0.187   5.848  1.00  0.00    -0.243 OA
BRANCH  19  20
HETATM   20  C6  UNL     1      16.079  -1.016   5.837  1.00  0.00     0.144 C
HETATM   21  C7  UNL     1      16.976  -2.171   6.155  1.00  0.00     0.057 C
HETATM   22  C8  UNL     1      14.888  -0.976   6.828  1.00  0.00     0.057 C
BRANCH  20  23
HETATM   23  C5  UNL     1      15.483  -1.253   4.460  1.00  0.00     0.170 C
HETATM   24  O1  UNL     1      14.348  -0.756   4.276  1.00  0.00    -0.294 OA
BRANCH  23  25
HETATM   25  C2  UNL     1      16.039  -1.961   3.343  1.00  0.00     0.013 C
HETATM   26  C1  UNL     1      16.364  -3.418   3.488  1.00  0.00     0.023 C
HETATM   27  C3  UNL     1      17.252  -1.266   2.777  1.00  0.00     0.023 C
HETATM   28  C4  UNL     1      14.998  -1.864   2.178  1.00  0.00     0.023 C
ENDBRANCH  23  25
ENDBRANCH  20  23
ENDBRANCH  19  20
ENDBRANCH   1  19
BRANCH  18  29
HETATM   29  C16 UNL     1      18.505   1.752   5.014  1.00  0.00     0.209 C
HETATM   30  O7  UNL     1      19.262   1.071   4.238  1.00  0.00    -0.646 OA
HETATM   31  O8  UNL     1      19.123   2.230   6.157  1.00  0.00    -0.646 OA
ENDBRANCH  18  29
BRANCH  10  32
HETATM   32  N4  UNL     1      10.384   2.825   4.928  1.00  0.00    -0.108 N
HETATM   33  O4  UNL     1       9.809   1.953   4.270  1.00  0.00    -0.532 OA
HETATM   34  O5  UNL     1       9.705   3.510   5.888  1.00  0.00    -0.532 OA
ENDBRANCH  10  32
TORSDOF 6
ENDMDL