MODEL 4
REMARK VINA RESULT: -8.613310344      3.632      8.571
REMARK  9 active torsions:
REMARK  status: ('A' for Active; 'I' for Inactive)
REMARK    1  A    between atoms: O1_2  and  C2_3
REMARK    2  A    between atoms: C5_6  and  O2_7
REMARK    3  A    between atoms: C6_9  and  C7_10
REMARK    4  A    between atoms: C9_13  and  O4_14
REMARK    5  A    between atoms: C10_16  and  C11_17
REMARK    6  A    between atoms: N1_18  and  N2_20
REMARK    7  A    between atoms: N2_20  and  C12_22
REMARK    8  A    between atoms: C15_29  and  N5_30
REMARK    9  A    between atoms: C16_35  and  N7_36
ROOT
HETATM    1  N2  UNL     1      15.643   2.234   3.450  1.00  0.00    -0.285 N
ATOM      2  H2  UNL     1      16.522   2.752   3.472  1.00  0.00     0.188 HD
ENDROOT
BRANCH   1   3
HETATM    3  N1  UNL     1      15.774   0.916   3.140  1.00  0.00    -0.309 N
HETATM    4  C11 UNL     1      16.621   0.065   3.562  1.00  0.00     0.124 C
ATOM      5  H1  UNL     1      15.092   0.557   2.471  1.00  0.00     0.186 HD
BRANCH   4   6
HETATM    6  C10 UNL     1      16.665  -1.323   3.158  1.00  0.00     0.049 A
HETATM    7  C2  UNL     1      15.784  -2.247   3.664  1.00  0.00     0.091 A
HETATM    8  C3  UNL     1      15.810  -3.566   3.303  1.00  0.00     0.007 A
HETATM    9  C4  UNL     1      14.863  -4.569   3.844  1.00  0.00     0.054 C
HETATM   10  C5  UNL     1      16.789  -3.951   2.380  1.00  0.00     0.091 A
HETATM   11  C6  UNL     1      17.700  -3.043   1.845  1.00  0.00     0.077 A
HETATM   12  C9  UNL     1      17.654  -1.699   2.229  1.00  0.00     0.096 A
BRANCH   7  13
HETATM   13  O1  UNL     1      14.814  -1.853   4.581  1.00  0.00    -0.354 OA
HETATM   14  C1  UNL     1      15.202  -1.974   5.958  1.00  0.00     0.210 C
ENDBRANCH   7  13
BRANCH  10  15
HETATM   15  O2  UNL     1      16.806  -5.271   2.027  1.00  0.00    -0.359 OA
ATOM     16  H2  UNL     1      17.626  -5.733   2.160  1.00  0.00     0.217 HD
ENDBRANCH  10  15
BRANCH  11  17
HETATM   17  C7  UNL     1      18.720  -3.423   0.892  1.00  0.00     0.161 C
HETATM   18  C8  UNL     1      18.332  -3.776  -0.504  1.00  0.00     0.097 C
HETATM   19  O3  UNL     1      19.953  -3.466   1.209  1.00  0.00    -0.293 OA
ENDBRANCH  11  17
BRANCH  12  20
HETATM   20  O4  UNL     1      18.461  -0.702   1.806  1.00  0.00    -0.359 OA
ATOM     21  H4  UNL     1      19.133  -0.256   2.308  1.00  0.00     0.217 HD
ENDBRANCH  12  20
ENDBRANCH   4   6
ENDBRANCH   1   3
BRANCH   1  22
HETATM   22  C12 UNL     1      14.617   2.928   3.716  1.00  0.00     0.136 A
HETATM   23  C13 UNL     1      14.379   4.162   3.180  1.00  0.00     0.139 A
HETATM   24  N3  UNL     1      13.261   4.803   3.526  1.00  0.00    -0.346 N
HETATM   25  C14 UNL     1      12.368   4.283   4.376  1.00  0.00     0.152 A
ATOM     26  H3  UNL     1      13.080   5.725   3.128  1.00  0.00     0.167 HD
HETATM   27  N4  UNL     1      11.244   4.960   4.688  1.00  0.00    -0.174 N
HETATM   28  C17 UNL     1      12.580   3.024   4.945  1.00  0.00     0.130 A
HETATM   29  C15 UNL     1      10.329   4.468   5.521  1.00  0.00     0.679 A
ATOM     30  H4  UNL     1      11.089   5.878   4.272  1.00  0.00     0.186 HD
HETATM   31  N6  UNL     1      10.535   3.270   6.060  1.00  0.00    -0.169 N
HETATM   32  C16 UNL     1      11.641   2.523   5.799  1.00  0.00     0.218 A
ATOM     33  H6  UNL     1       9.833   2.894   6.697  1.00  0.00     0.186 HD
HETATM   34  N8  UNL     1      13.707   2.408   4.577  1.00  0.00    -0.334 N
ATOM     35  H8  UNL     1      13.896   1.486   4.970  1.00  0.00     0.168 HD
BRANCH  29  36
HETATM   36  N5  UNL     1       9.246   5.149   5.803  1.00  0.00    -0.234 N
ATOM     37  H52 UNL     1       8.770   5.023   6.697  1.00  0.00     0.174 HD
ATOM     38  H51 UNL     1       8.859   5.815   5.133  1.00  0.00     0.174 HD
ENDBRANCH  29  36
BRANCH  32  39
HETATM   39  N7  UNL     1      11.796   1.260   6.399  1.00  0.00    -0.095 N
HETATM   40  O5  UNL     1      12.828   0.591   6.370  1.00  0.00    -0.530 OA
HETATM   41  O6  UNL     1      10.728   0.720   7.139  1.00  0.00    -0.530 OA
ENDBRANCH  32  39
ENDBRANCH   1  22
TORSDOF 9
ENDMDL