MODEL 4
REMARK VINA RESULT: -7.696952436      3.334      9.403
REMARK  8 active torsions:
REMARK  status: ('A' for Active; 'I' for Inactive)
REMARK    1  A    between atoms: C2_2  and  O1_3
REMARK    2  A    between atoms: O1_3  and  C3_4
REMARK    3  A    between atoms: C3_4  and  C4_5
REMARK    4  A    between atoms: C3_4  and  C17_28
REMARK    5  A    between atoms: C9_10  and  O2_11
REMARK    6  A    between atoms: C10_13  and  O3_14
REMARK    7  A    between atoms: C11_18  and  O4_19
REMARK    8  A    between atoms: O4_19  and  C12_20
ROOT
HETATM    1  C4  UNL     1      21.751  -4.582  -1.470  1.00  0.00     0.016 A
HETATM    2  C5  UNL     1      21.454  -3.879  -0.320  1.00  0.00    -0.034 A
HETATM    3  C6  UNL     1      22.547  -3.509   0.550  1.00  0.00     0.050 C
HETATM    4  C7  UNL     1      20.178  -3.555   0.076  1.00  0.00     0.047 A
HETATM    5  C8  UNL     1      19.104  -3.943  -0.698  1.00  0.00     0.081 A
HETATM    6  C9  UNL     1      19.331  -4.641  -1.848  1.00  0.00     0.127 A
HETATM    7  C10 UNL     1      20.626  -4.956  -2.228  1.00  0.00     0.110 A
HETATM    8  N1  UNL     1      17.810  -3.583  -0.207  1.00  0.00    -0.359 N
ATOM      9  H1  UNL     1      17.070  -3.308  -0.853  1.00  0.00     0.162 HD
HETATM   10  C11 UNL     1      17.566  -3.615   1.207  1.00  0.00     0.256 C
HETATM   11  C14 UNL     1      18.644  -2.977   2.011  1.00  0.00     0.216 C
HETATM   12  C15 UNL     1      18.149  -1.597   2.319  1.00  0.00     0.076 C
HETATM   13  N2  UNL     1      17.764  -0.539   2.575  1.00  0.00    -0.196 NA
HETATM   14  C16 UNL     1      19.884  -2.789   1.260  1.00  0.00     0.184 C
HETATM   15  O6  UNL     1      20.769  -1.937   1.612  1.00  0.00    -0.291 OA
ENDROOT
BRANCH  10  16
HETATM   16  O4  UNL     1      16.304  -2.977   1.404  1.00  0.00    -0.294 OA
BRANCH  16  17
HETATM   17  C12 UNL     1      15.126  -3.694   1.533  1.00  0.00     0.256 C
HETATM   18  C13 UNL     1      14.293  -3.685   2.778  1.00  0.00     0.126 C
HETATM   19  O5  UNL     1      14.732  -4.380   0.580  1.00  0.00    -0.266 OA
ENDBRANCH  16  17
ENDBRANCH  10  16
BRANCH   6  20
HETATM   20  O2  UNL     1      18.225  -5.023  -2.618  1.00  0.00    -0.356 OA
ATOM     21  H2  UNL     1      18.087  -4.588  -3.451  1.00  0.00     0.218 HD
ENDBRANCH   6  20
BRANCH   1  22
HETATM   22  C3  UNL     1      23.015  -4.915  -2.020  1.00  0.00     0.196 C
BRANCH  22  23
HETATM   23  O1  UNL     1      23.125  -4.267  -3.258  1.00  0.00    -0.379 OA
BRANCH  23  24
HETATM   24  C2  UNL     1      23.591  -3.045  -3.398  1.00  0.00     0.164 C
HETATM   25  C1  UNL     1      23.545  -2.558  -4.870  1.00  0.00     0.033 C
ENDBRANCH  23  24
ENDBRANCH  22  23
BRANCH  22  26
HETATM   26  C17 UNL     1      23.501  -6.285  -2.216  1.00  0.00     0.288 C
HETATM   27  N3  UNL     1      24.753  -6.163  -3.025  1.00  0.00    -0.061 N
HETATM   28  C18 UNL     1      25.464  -7.389  -2.780  1.00  0.00     0.240 C
ATOM     29  H32 UNL     1      24.592  -5.966  -4.013  1.00  0.00     0.278 HD
ATOM     30  H31 UNL     1      25.295  -5.322  -2.828  1.00  0.00     0.278 HD
HETATM   31  C19 UNL     1      24.990  -7.989  -1.503  1.00  0.00     0.108 C
HETATM   32  C20 UNL     1      24.073  -6.929  -0.997  1.00  0.00     0.162 C
HETATM   33  O7  UNL     1      23.859  -6.670   0.195  1.00  0.00    -0.296 OA
ENDBRANCH  22  26
ENDBRANCH   1  22
BRANCH   7  34
HETATM   34  O3  UNL     1      20.722  -5.664  -3.415  1.00  0.00    -0.357 OA
ATOM     35  H3  UNL     1      21.439  -6.259  -3.602  1.00  0.00     0.217 HD
ENDBRANCH   7  34
TORSDOF 8
ENDMDL