MODEL 1
REMARK VINA RESULT: -9.011874029      0.000      0.000
REMARK  9 active torsions:
REMARK  status: ('A' for Active; 'I' for Inactive)
REMARK    1  A    between atoms: C8_8  and  O1_9
REMARK    2  A    between atoms: C9_11  and  C10_12
REMARK    3  A    between atoms: C10_12  and  O2_13
REMARK    4  A    between atoms: C10_12  and  C15_31
REMARK    5  A    between atoms: O2_13  and  C11_14
REMARK    6  A    between atoms: C11_14  and  C12_16
REMARK    7  A    between atoms: C12_16  and  C13_21
REMARK    8  A    between atoms: N1_17  and  O4_19
REMARK    9  A    between atoms: C14_25  and  N3_26
ROOT
HETATM    1  C10 UNL     1      15.102   0.296   4.161  1.00  0.00     0.257 C
ENDROOT
BRANCH   1   2
HETATM    2  C9  UNL     1      15.790  -0.651   3.274  1.00  0.00     0.016 A
HETATM    3  C8  UNL     1      17.174  -0.662   3.112  1.00  0.00     0.082 A
HETATM    4  C6  UNL     1      17.844  -1.562   2.247  1.00  0.00    -0.015 A
HETATM    5  C5  UNL     1      17.068  -2.456   1.548  1.00  0.00     0.013 A
HETATM    6  C7  UNL     1      19.291  -1.540   2.125  1.00  0.00     0.052 C
HETATM    7  C3  UNL     1      17.661  -3.366   0.684  1.00  0.00    -0.036 A
HETATM    8  C17 UNL     1      15.675  -2.464   1.696  1.00  0.00     0.091 A
HETATM    9  C2  UNL     1      16.775  -4.238   0.018  1.00  0.00     0.020 A
HETATM   10  C4  UNL     1      19.077  -3.420   0.465  1.00  0.00     0.050 C
HETATM   11  C1  UNL     1      17.387  -5.213  -0.899  1.00  0.00     0.055 C
HETATM   12  C18 UNL     1      15.441  -4.188   0.210  1.00  0.00     0.294 A
HETATM   13  O7  UNL     1      14.941  -3.316   1.030  1.00  0.00    -0.274 OA
HETATM   14  O8  UNL     1      14.690  -5.004  -0.421  1.00  0.00    -0.259 OA
HETATM   15  C16 UNL     1      15.078  -1.559   2.555  1.00  0.00     0.051 A
BRANCH   3  16
HETATM   16  O1  UNL     1      17.904   0.222   3.802  1.00  0.00    -0.359 OA
ATOM     17  H1  UNL     1      17.575   1.108   3.892  1.00  0.00     0.217 HD
ENDBRANCH   3  16
ENDBRANCH   1   2
BRANCH   1  18
HETATM   18  O2  UNL     1      15.587   1.643   3.957  1.00  0.00    -0.297 OA
BRANCH  18  19
HETATM   19  C11 UNL     1      14.704   2.627   3.507  1.00  0.00     0.317 C
HETATM   20  O3  UNL     1      14.719   2.861   2.272  1.00  0.00    -0.257 OA
BRANCH  19  21
HETATM   21  C12 UNL     1      13.811   3.356   4.364  1.00  0.00     0.175 C
HETATM   22  N1  UNL     1      14.157   3.806   5.534  1.00  0.00    -0.260 N
ATOM     23  H1  UNL     1      13.489   4.320   6.108  1.00  0.00     0.194 HD
BRANCH  22  24
HETATM   24  O4  UNL     1      15.421   3.581   5.979  1.00  0.00    -0.289 OA
ATOM     25  H4  UNL     1      15.564   3.444   6.908  1.00  0.00     0.244 HD
ENDBRANCH  22  24
BRANCH  21  26
HETATM   26  C13 UNL     1      12.420   3.660   3.992  1.00  0.00     0.164 A
HETATM   27  N2  UNL     1      11.312   3.239   4.664  1.00  0.00    -0.239 N
HETATM   28  O5  UNL     1      10.236   3.651   4.121  1.00  0.00    -0.199 OA
ATOM     29  H2  UNL     1      11.340   2.661   5.505  1.00  0.00     0.196 HD
HETATM   30  C14 UNL     1      10.566   4.355   3.078  1.00  0.00     0.242 A
HETATM   31  N4  UNL     1      11.933   4.378   2.972  1.00  0.00    -0.303 N
ATOM     32  H4  UNL     1      12.477   4.853   2.252  1.00  0.00     0.171 HD
BRANCH  30  33
HETATM   33  N3  UNL     1       9.755   4.931   2.282  1.00  0.00    -0.364 N
ATOM     34  H32 UNL     1       9.992   5.297   1.360  1.00  0.00     0.159 HD
ATOM     35  H31 UNL     1       8.766   5.103   2.460  1.00  0.00     0.159 HD
ENDBRANCH  30  33
ENDBRANCH  21  26
ENDBRANCH  19  21
ENDBRANCH  18  19
ENDBRANCH   1  18
BRANCH   1  36
HETATM   36  C15 UNL     1      15.311   0.037   5.603  1.00  0.00     0.265 C
HETATM   37  N5  UNL     1      16.162  -0.949   6.160  1.00  0.00    -0.059 NA
HETATM   38  O6  UNL     1      14.665   0.766   6.444  1.00  0.00    -0.274 OA
ENDBRANCH   1  36
TORSDOF 9
ENDMDL