MODEL 3
REMARK VINA RESULT: -7.567839622      3.466      9.228
REMARK  12 active torsions:
REMARK  status: ('A' for Active; 'I' for Inactive)
REMARK    1  A    between atoms: O1_2  and  C2_3
REMARK    2  A    between atoms: C2_3  and  C3_5
REMARK    3  A    between atoms: C3_5  and  N1_7
REMARK    4  A    between atoms: N1_7  and  N2_9
REMARK    5  A    between atoms: N2_9  and  C5_11
REMARK    6  A    between atoms: C8_18  and  C9_19
REMARK    7  A    between atoms: C9_19  and  O3_20
REMARK    8  A    between atoms: N5_22  and  O4_24
REMARK    9  A    between atoms: O4_24  and  C10_25
REMARK   10  A    between atoms: C10_25  and  C13_28
REMARK   11  A    between atoms: C14_31  and  O7_32
REMARK   12  A    between atoms: C16_35  and  O8_36
ROOT
HETATM    1  C5  UNL     1      13.685   2.599   5.166  1.00  0.00     0.136 A
HETATM    2  N3  UNL     1      14.037   3.439   4.180  1.00  0.00    -0.337 N
ATOM      3  H3  UNL     1      13.680   4.395   4.190  1.00  0.00     0.168 HD
HETATM    4  C6  UNL     1      14.846   3.054   3.184  1.00  0.00     0.182 A
HETATM    5  N4  UNL     1      15.332   1.799   3.144  1.00  0.00    -0.351 N
ATOM      6  H4  UNL     1      15.947   1.520   2.379  1.00  0.00     0.166 HD
HETATM    7  C7  UNL     1      15.016   0.910   4.100  1.00  0.00     0.067 A
HETATM    8  C8  UNL     1      15.502  -0.386   4.084  1.00  0.00     0.077 A
HETATM    9  C14 UNL     1      15.104  -1.223   5.135  1.00  0.00     0.085 A
HETATM   10  C15 UNL     1      14.276  -0.801   6.142  1.00  0.00     0.075 A
HETATM   11  C16 UNL     1      13.787   0.481   6.171  1.00  0.00     0.084 A
HETATM   12  C17 UNL     1      14.171   1.312   5.143  1.00  0.00     0.070 A
ENDROOT
BRANCH   8  13
HETATM   13  C9  UNL     1      16.370  -0.881   3.049  1.00  0.00     0.175 C
HETATM   14  N5  UNL     1      16.160  -1.792   2.262  1.00  0.00    -0.243 N
ATOM     15  H5  UNL     1      15.236  -2.187   2.436  1.00  0.00     0.196 HD
BRANCH  13  16
HETATM   16  O3  UNL     1      17.626  -0.218   2.942  1.00  0.00    -0.344 OA
ATOM     17  H3  UNL     1      17.679   0.441   2.259  1.00  0.00     0.219 HD
ENDBRANCH  13  16
BRANCH  14  18
HETATM   18  O4  UNL     1      16.727  -2.428   1.273  1.00  0.00    -0.257 OA
BRANCH  18  19
HETATM   19  C10 UNL     1      16.897  -3.741   0.901  1.00  0.00     0.169 C
HETATM   20  C11 UNL     1      17.177  -4.664   2.085  1.00  0.00     0.060 C
HETATM   21  C12 UNL     1      17.959  -3.938  -0.192  1.00  0.00     0.060 C
BRANCH  19  22
HETATM   22  C13 UNL     1      15.623  -4.246   0.305  1.00  0.00     0.211 C
HETATM   23  O5  UNL     1      15.588  -4.749  -0.845  1.00  0.00    -0.646 OA
HETATM   24  O6  UNL     1      14.449  -4.160   1.027  1.00  0.00    -0.646 OA
ENDBRANCH  19  22
ENDBRANCH  18  19
ENDBRANCH  14  18
ENDBRANCH   8  13
BRANCH   9  25
HETATM   25  O7  UNL     1      15.585  -2.535   5.133  1.00  0.00    -0.360 OA
ATOM     26  H7  UNL     1      16.133  -2.801   4.405  1.00  0.00     0.217 HD
ENDBRANCH   9  25
BRANCH   1  27
HETATM   27  N2  UNL     1      12.904   2.966   6.131  1.00  0.00    -0.284 N
ATOM     28  H2  UNL     1      12.955   2.511   7.044  1.00  0.00     0.188 HD
BRANCH  27  29
HETATM   29  N1  UNL     1      11.992   3.994   5.901  1.00  0.00    -0.298 N
ATOM     30  H1  UNL     1      12.335   4.951   5.830  1.00  0.00     0.187 HD
BRANCH  29  31
HETATM   31  C3  UNL     1      10.733   3.772   5.774  1.00  0.00     0.097 C
HETATM   32  C4  UNL     1       9.820   4.936   5.759  1.00  0.00     0.076 C
BRANCH  31  33
HETATM   33  C2  UNL     1      10.209   2.403   5.647  1.00  0.00     0.306 C
HETATM   34  O2  UNL     1       9.780   1.988   4.541  1.00  0.00    -0.258 OA
BRANCH  33  35
HETATM   35  O1  UNL     1      10.174   1.539   6.727  1.00  0.00    -0.322 OA
HETATM   36  C1  UNL     1       9.080   1.493   7.638  1.00  0.00     0.213 C
ENDBRANCH  33  35
ENDBRANCH  31  33
ENDBRANCH  29  31
ENDBRANCH  27  29
ENDBRANCH   1  27
BRANCH  11  37
HETATM   37  O8  UNL     1      12.948   0.908   7.192  1.00  0.00    -0.360 OA
ATOM     38  H8  UNL     1      13.297   1.210   8.022  1.00  0.00     0.217 HD
ENDBRANCH  11  37
TORSDOF 12
ENDMDL