MODEL 3
REMARK VINA RESULT: -8.163590619      1.743      2.074
REMARK  11 active torsions:
REMARK  status: ('A' for Active; 'I' for Inactive)
REMARK    1  A    between atoms: O1_2  and  C2_3
REMARK    2  A    between atoms: C3_4  and  C4_5
REMARK    3  A    between atoms: C4_5  and  O2_6
REMARK    4  A    between atoms: C4_5  and  N1_8
REMARK    5  A    between atoms: N1_8  and  N2_10
REMARK    6  A    between atoms: C5_12  and  C6_13
REMARK    7  A    between atoms: C6_13  and  O3_16
REMARK    8  A    between atoms: C11_21  and  N3_22
REMARK    9  A    between atoms: C13_26  and  O7_27
REMARK   10  A    between atoms: C15_30  and  O8_31
REMARK   11  A    between atoms: C17_34  and  O9_35
ROOT
HETATM    1  C2  UNL     1      16.651  -3.390   2.294  1.00  0.00     0.100 A
HETATM    2  C3  UNL     1      17.675  -2.912   2.940  1.00  0.00     0.101 A
HETATM    3  C9  UNL     1      19.027  -2.949   2.290  1.00  0.00     0.202 A
HETATM    4  O4  UNL     1      19.989  -2.478   2.945  1.00  0.00    -0.286 OA
HETATM    5  C10 UNL     1      19.153  -3.510   0.962  1.00  0.00     0.060 A
HETATM    6  C11 UNL     1      20.387  -3.529   0.342  1.00  0.00     0.120 A
HETATM    7  C12 UNL     1      20.425  -4.054  -0.974  1.00  0.00     0.074 A
HETATM    8  C13 UNL     1      19.307  -4.519  -1.594  1.00  0.00     0.082 A
HETATM    9  C14 UNL     1      18.086  -4.493  -0.953  1.00  0.00     0.043 A
HETATM   10  C15 UNL     1      16.961  -4.940  -1.630  1.00  0.00     0.082 A
HETATM   11  C16 UNL     1      15.750  -4.885  -1.023  1.00  0.00     0.075 A
HETATM   12  C17 UNL     1      15.617  -4.393   0.266  1.00  0.00     0.082 A
HETATM   13  C18 UNL     1      16.737  -3.956   0.940  1.00  0.00     0.044 A
HETATM   14  C19 UNL     1      17.995  -3.990   0.335  1.00  0.00     0.012 A
ENDROOT
BRANCH   2  15
HETATM   15  C4  UNL     1      17.620  -2.334   4.243  1.00  0.00     0.172 C
BRANCH  15  16
HETATM   16  O2  UNL     1      18.277  -2.942   5.197  1.00  0.00    -0.344 OA
ATOM     17  H2  UNL     1      18.406  -2.467   6.010  1.00  0.00     0.219 HD
ENDBRANCH  15  16
BRANCH  15  18
HETATM   18  N1  UNL     1      16.979  -1.184   4.691  1.00  0.00    -0.280 N
ATOM     19  H1  UNL     1      15.985  -1.054   4.501  1.00  0.00     0.189 HD
BRANCH  18  20
HETATM   20  N2  UNL     1      17.702  -0.175   5.421  1.00  0.00    -0.311 N
HETATM   21  C5  UNL     1      18.571   0.451   4.713  1.00  0.00     0.117 C
ATOM     22  H2  UNL     1      17.539   0.023   6.407  1.00  0.00     0.185 HD
BRANCH  21  23
HETATM   23  C6  UNL     1      19.379   1.512   5.346  1.00  0.00     0.084 C
HETATM   24  C7  UNL     1      18.623   2.825   5.330  1.00  0.00     0.051 C
HETATM   25  C8  UNL     1      20.664   1.621   4.526  1.00  0.00     0.051 C
BRANCH  23  26
HETATM   26  O3  UNL     1      19.648   1.173   6.656  1.00  0.00    -0.385 OA
ATOM     27  H3  UNL     1      19.314   0.302   6.837  1.00  0.00     0.211 HD
ENDBRANCH  23  26
ENDBRANCH  21  23
ENDBRANCH  18  20
ENDBRANCH  15  18
ENDBRANCH   2  15
BRANCH   1  28
HETATM   28  O1  UNL     1      15.344  -3.411   2.845  1.00  0.00    -0.354 OA
HETATM   29  C1  UNL     1      15.261  -4.452   3.883  1.00  0.00     0.210 C
ENDBRANCH   1  28
BRANCH  12  30
HETATM   30  O9  UNL     1      14.359  -4.340   0.843  1.00  0.00    -0.360 OA
ATOM     31  H9  UNL     1      14.152  -4.931   1.559  1.00  0.00     0.217 HD
ENDBRANCH  12  30
BRANCH   6  32
HETATM   32  N3  UNL     1      21.596  -3.075   0.883  1.00  0.00    -0.115 N
HETATM   33  O5  UNL     1      22.430  -3.727   1.493  1.00  0.00    -0.532 OA
HETATM   34  O6  UNL     1      21.976  -1.737   0.619  1.00  0.00    -0.532 OA
ENDBRANCH   6  32
BRANCH  10  35
HETATM   35  O8  UNL     1      17.142  -5.429  -2.917  1.00  0.00    -0.360 OA
ATOM     36  H8  UNL     1      17.796  -5.003  -3.459  1.00  0.00     0.217 HD
ENDBRANCH  10  35
BRANCH   8  37
HETATM   37  O7  UNL     1      19.376  -5.022  -2.874  1.00  0.00    -0.360 OA
ATOM     38  H7  UNL     1      19.589  -5.936  -3.021  1.00  0.00     0.217 HD
ENDBRANCH   8  37
TORSDOF 11
ENDMDL