MODEL 5
REMARK VINA RESULT: -6.034593822      2.342      3.809
REMARK  7 active torsions:
REMARK  status: ('A' for Active; 'I' for Inactive)
REMARK    1  A    between atoms: C6_7  and  N2_8
REMARK    2  A    between atoms: N2_8  and  C7_10
REMARK    3  A    between atoms: C7_10  and  C8_11
REMARK    4  A    between atoms: C8_11  and  C9_12
REMARK    5  A    between atoms: C9_12  and  N3_13
REMARK    6  A    between atoms: N3_13  and  C10_15
REMARK    7  A    between atoms: C10_15  and  C11_16
ROOT
HETATM    1  N1  UNL     1      -6.998   8.130 -33.897  1.00  0.00    -0.191 NA
HETATM    2  C1  UNL     1      -6.718   9.236 -33.674  1.00  0.00     0.099 C
HETATM    3  C2  UNL     1      -6.361  10.617 -33.427  1.00  0.00     0.046 A
HETATM    4  C3  UNL     1      -5.901  11.023 -32.181  1.00  0.00     0.023 A
HETATM    5  C4  UNL     1      -5.560  12.337 -31.944  1.00  0.00     0.004 A
HETATM    6  C5  UNL     1      -5.676  13.267 -32.954  1.00  0.00     0.029 A
HETATM    7  C6  UNL     1      -6.132  12.913 -34.219  1.00  0.00     0.029 A
HETATM    8  C14 UNL     1      -6.457  11.582 -34.396  1.00  0.00     0.051 A
ENDROOT
BRANCH   7   9
HETATM    9  N2  UNL     1      -6.249  13.874 -35.254  1.00  0.00    -0.390 N
ATOM     10  H2  UNL     1      -5.640  13.816 -36.071  1.00  0.00     0.159 HD
BRANCH   9  11
HETATM   11  C7  UNL     1      -7.217  14.925 -35.163  1.00  0.00     0.125 C
BRANCH  11  12
HETATM   12  C8  UNL     1      -8.642  14.407 -34.955  1.00  0.00     0.064 C
BRANCH  12  13
HETATM   13  C9  UNL     1      -9.496  15.571 -34.610  1.00  0.00     0.061 C
BRANCH  13  14
HETATM   14  N3  UNL     1     -10.056  16.277 -35.650  1.00  0.00    -0.380 N
ATOM     15  H3  UNL     1     -10.184  17.270 -35.457  1.00  0.00     0.164 HD
BRANCH  14  16
HETATM   16  C10 UNL     1     -10.473  15.891 -36.893  1.00  0.00     0.092 C
BRANCH  16  17
HETATM   17  C11 UNL     1      -9.712  16.212 -38.122  1.00  0.00     0.225 C
HETATM   18  C12 UNL     1      -8.591  17.249 -37.787  1.00  0.00     0.066 C
HETATM   19  C13 UNL     1      -7.705  16.346 -38.598  1.00  0.00     0.235 C
HETATM   20  N4  UNL     1      -8.670  15.275 -38.532  1.00  0.00    -0.066 N
ATOM     21  H42 UNL     1      -8.475  14.454 -37.957  1.00  0.00     0.278 HD
ATOM     22  H41 UNL     1      -8.819  14.678 -39.345  1.00  0.00     0.278 HD
ENDBRANCH  16  17
ENDBRANCH  14  16
ENDBRANCH  13  14
ENDBRANCH  12  13
ENDBRANCH  11  12
ENDBRANCH   9  11
ENDBRANCH   7   9
TORSDOF 7
ENDMDL