MODEL 5
REMARK VINA RESULT: -6.584093479      1.355      1.463
REMARK  7 active torsions:
REMARK  status: ('A' for Active; 'I' for Inactive)
REMARK    1  A    between atoms: N1_1  and  C1_4
REMARK    2  A    between atoms: C2_9  and  C3_10
REMARK    3  A    between atoms: C3_10  and  C4_11
REMARK    4  A    between atoms: C4_11  and  C5_12
REMARK    5  A    between atoms: C5_12  and  C6_13
REMARK    6  A    between atoms: N6_20  and  C9_21
REMARK    7  A    between atoms: C9_21  and  C10_22
ROOT
HETATM    1  C1  UNL     1      -7.990  16.235 -38.367  1.00  0.00     0.694 A
HETATM    2  N2  UNL     1      -6.675  16.206 -38.693  1.00  0.00    -0.131 N
ATOM      3  H2  UNL     1      -6.194  16.878 -39.292  1.00  0.00     0.205 HD
HETATM    4  N3  UNL     1      -6.125  15.171 -38.108  1.00  0.00    -0.274 N
ATOM      5  H3  UNL     1      -5.139  14.919 -38.189  1.00  0.00     0.189 HD
HETATM    6  C2  UNL     1      -7.024  14.487 -37.389  1.00  0.00     0.115 A
HETATM    7  N6  UNL     1      -8.194  15.176 -37.568  1.00  0.00    -0.170 N
ENDROOT
BRANCH   6   8
HETATM    8  C3  UNL     1      -6.844  13.265 -36.575  1.00  0.00     0.079 C
BRANCH   8   9
HETATM    9  C4  UNL     1      -5.668  13.304 -35.672  1.00  0.00     0.013 C
BRANCH   9  10
HETATM   10  C5  UNL     1      -5.822  14.052 -34.393  1.00  0.00     0.059 C
BRANCH  10  11
HETATM   11  C6  UNL     1      -5.841  13.085 -33.258  1.00  0.00     0.027 A
HETATM   12  C7  UNL     1      -5.993  11.705 -33.377  1.00  0.00     0.045 A
HETATM   13  C8  UNL     1      -5.957  11.164 -32.113  1.00  0.00     0.109 A
HETATM   14  N4  UNL     1      -5.788  12.179 -31.252  1.00  0.00    -0.312 N
HETATM   15  N5  UNL     1      -5.720  13.312 -31.939  1.00  0.00    -0.305 N
ATOM     16  H4  UNL     1      -5.722  12.094 -30.238  1.00  0.00     0.186 HD
ATOM     17  H5  UNL     1      -5.593  14.233 -31.521  1.00  0.00     0.186 HD
ENDBRANCH  10  11
ENDBRANCH   9  10
ENDBRANCH   8   9
ENDBRANCH   6   8
BRANCH   7  18
HETATM   18  C9  UNL     1      -9.421  14.771 -36.967  1.00  0.00     0.153 C
BRANCH  18  19
HETATM   19  C10 UNL     1      -9.827  15.506 -35.733  1.00  0.00     0.005 A
HETATM   20  C11 UNL     1      -8.923  16.026 -34.715  1.00  0.00     0.007 A
HETATM   21  C12 UNL     1      -9.728  14.794 -34.398  1.00  0.00     0.007 A
ENDBRANCH  18  19
ENDBRANCH   7  18
BRANCH   1  22
HETATM   22  N1  UNL     1      -8.817  17.136 -38.775  1.00  0.00    -0.233 N
ATOM     23  H12 UNL     1      -8.642  18.082 -39.114  1.00  0.00     0.174 HD
ATOM     24  H11 UNL     1      -9.828  17.007 -38.820  1.00  0.00     0.174 HD
ENDBRANCH   1  22
TORSDOF 7
ENDMDL