MODEL 5
REMARK VINA RESULT: -6.757970977      3.992      5.132
REMARK  8 active torsions:
REMARK  status: ('A' for Active; 'I' for Inactive)
REMARK    1  A    between atoms: C1_1  and  C2_2
REMARK    2  A    between atoms: C1_1  and  C5_15
REMARK    3  A    between atoms: C2_2  and  C3_3
REMARK    4  A    between atoms: C3_3  and  N1_4
REMARK    5  A    between atoms: N1_4  and  C4_6
REMARK    6  A    between atoms: C5_15  and  C6_16
REMARK    7  A    between atoms: C6_16  and  N6_17
REMARK    8  A    between atoms: N6_17  and  C7_19
ROOT
HETATM    1  C2  UNL     1      -9.946  16.413 -38.162  1.00  0.00     0.020 C
ENDROOT
BRANCH   1   2
HETATM    2  C1  UNL     1     -10.527  16.292 -36.798  1.00  0.00     0.003 C
BRANCH   2   3
HETATM    3  C5  UNL     1     -10.707  14.914 -36.261  1.00  0.00     0.019 C
BRANCH   3   4
HETATM    4  C6  UNL     1     -10.216  14.842 -34.796  1.00  0.00     0.114 C
BRANCH   4   5
HETATM    5  N6  UNL     1      -9.305  13.742 -34.734  1.00  0.00    -0.417 N
ATOM      6  H6  UNL     1      -9.554  12.854 -34.299  1.00  0.00     0.153 HD
BRANCH   5   7
HETATM    7  C7  UNL     1      -8.030  13.969 -35.320  1.00  0.00     0.076 C
HETATM    8  C8  UNL     1      -7.012  14.549 -34.400  1.00  0.00     0.024 C
HETATM    9  C9  UNL     1      -5.651  14.616 -34.961  1.00  0.00     0.002 C
HETATM   10  C10 UNL     1      -5.466  14.241 -36.383  1.00  0.00     0.000 C
HETATM   11  C11 UNL     1      -6.392  13.203 -36.923  1.00  0.00     0.002 C
HETATM   12  C12 UNL     1      -7.416  12.727 -35.920  1.00  0.00     0.024 C
ENDBRANCH   5   7
ENDBRANCH   4   5
ENDBRANCH   3   4
ENDBRANCH   2   3
ENDBRANCH   1   2
BRANCH   1  13
HETATM   13  C3  UNL     1      -8.823  15.521 -38.523  1.00  0.00     0.138 C
BRANCH  13  14
HETATM   14  N1  UNL     1      -7.574  16.121 -38.831  1.00  0.00    -0.223 N
ATOM     15  H1  UNL     1      -6.989  15.634 -39.510  1.00  0.00     0.177 HD
BRANCH  14  16
HETATM   16  C4  UNL     1      -7.104  17.204 -38.349  1.00  0.00     0.709 A
HETATM   17  N2  UNL     1      -6.822  17.505 -37.074  1.00  0.00    -0.115 N
HETATM   18  N3  UNL     1      -6.358  18.726 -37.017  1.00  0.00    -0.213 N
ATOM     19  H2  UNL     1      -6.948  16.882 -36.277  1.00  0.00     0.207 HD
HETATM   20  N4  UNL     1      -6.330  19.233 -38.229  1.00  0.00    -0.213 N
ATOM     21  H3  UNL     1      -6.066  19.207 -36.167  1.00  0.00     0.210 HD
HETATM   22  N5  UNL     1      -6.785  18.304 -39.047  1.00  0.00    -0.115 N
ATOM     23  H4  UNL     1      -6.015  20.168 -38.487  1.00  0.00     0.210 HD
ATOM     24  H5  UNL     1      -6.880  18.406 -40.058  1.00  0.00     0.207 HD
ENDBRANCH  14  16
ENDBRANCH  13  14
ENDBRANCH   1  13
TORSDOF 8
ENDMDL