MODEL 3
REMARK VINA RESULT: -6.253577118      1.607      2.567
REMARK  7 active torsions:
REMARK  status: ('A' for Active; 'I' for Inactive)
REMARK    1  A    between atoms: N1_1  and  C1_5
REMARK    2  A    between atoms: C5_11  and  C6_12
REMARK    3  A    between atoms: C6_12  and  C7_13
REMARK    4  A    between atoms: C7_13  and  N3_14
REMARK    5  A    between atoms: N3_14  and  C8_17
REMARK    6  A    between atoms: C8_17  and  C9_18
REMARK    7  A    between atoms: C9_18  and  N4_19
ROOT
HETATM    1  C6  UNL     1      -6.206  14.208 -37.282  1.00  0.00     0.054 C
ENDROOT
BRANCH   1   2
HETATM    2  C5  UNL     1      -7.417  14.973 -36.873  1.00  0.00     0.113 C
HETATM    3  C1  UNL     1      -7.344  16.328 -37.572  1.00  0.00     0.209 C
HETATM    4  C2  UNL     1      -8.581  17.128 -37.330  1.00  0.00     0.063 C
HETATM    5  C3  UNL     1      -9.774  16.324 -37.595  1.00  0.00    -0.008 C
HETATM    6  C4  UNL     1      -9.828  15.011 -37.520  1.00  0.00     0.079 C
HETATM    7  N2  UNL     1      -8.631  14.294 -37.152  1.00  0.00    -0.392 N
ATOM      8  H2  UNL     1      -8.658  13.277 -37.091  1.00  0.00     0.159 HD
BRANCH   3   9
HETATM    9  N1  UNL     1      -7.178  16.053 -38.996  1.00  0.00    -0.073 N
ATOM     10  H13 UNL     1      -6.353  16.516 -39.377  1.00  0.00     0.274 HD
ATOM     11  H12 UNL     1      -6.901  15.085 -39.164  1.00  0.00     0.274 HD
ATOM     12  H11 UNL     1      -8.022  16.301 -39.511  1.00  0.00     0.274 HD
ENDBRANCH   3   9
ENDBRANCH   1   2
BRANCH   1  13
HETATM   13  C7  UNL     1      -5.811  13.182 -36.238  1.00  0.00     0.234 C
BRANCH  13  14
HETATM   14  N3  UNL     1      -5.534  13.922 -35.029  1.00  0.00    -0.073 N
ATOM     15  H32 UNL     1      -4.557  14.211 -34.978  1.00  0.00     0.277 HD
ATOM     16  H31 UNL     1      -5.967  14.846 -35.043  1.00  0.00     0.277 HD
BRANCH  14  17
HETATM   17  C8  UNL     1      -5.925  13.171 -33.874  1.00  0.00     0.262 C
BRANCH  17  18
HETATM   18  C9  UNL     1      -6.575  11.902 -34.226  1.00  0.00     0.299 C
BRANCH  18  19
HETATM   19  N4  UNL     1      -6.123  10.758 -33.435  1.00  0.00     0.090 N
HETATM   20  C10 UNL     1      -6.609   9.586 -34.056  1.00  0.00     0.272 C
HETATM   21  C11 UNL     1      -7.201   8.533 -33.218  1.00  0.00     0.030 C
HETATM   22  C12 UNL     1      -6.579   8.516 -31.854  1.00  0.00     0.003 C
HETATM   23  C13 UNL     1      -6.666   9.870 -31.194  1.00  0.00     0.030 C
HETATM   24  C14 UNL     1      -6.246  10.985 -32.058  1.00  0.00     0.272 C
ENDBRANCH  18  19
ENDBRANCH  17  18
ENDBRANCH  14  17
ENDBRANCH  13  14
ENDBRANCH   1  13
TORSDOF 7
ENDMDL