MODEL 1
REMARK VINA RESULT: -6.455879727      0.000      0.000
REMARK  8 active torsions:
REMARK  status: ('A' for Active; 'I' for Inactive)
REMARK    1  A    between atoms: N1_1  and  C1_5
REMARK    2  A    between atoms: C1_5  and  C2_6
REMARK    3  A    between atoms: C2_6  and  C3_7
REMARK    4  A    between atoms: C3_7  and  C4_8
REMARK    5  A    between atoms: C4_8  and  C5_9
REMARK    6  A    between atoms: C5_9  and  C6_10
REMARK    7  A    between atoms: C6_10  and  N2_11
REMARK    8  A    between atoms: N2_11  and  C7_13
ROOT
HETATM    1  C7  UNL     1      -8.337  13.887 -36.204  1.00  0.00     0.131 A
HETATM    2  N3  UNL     1      -9.050  13.864 -35.069  1.00  0.00    -0.337 N
ATOM      3  H3  UNL     1      -9.253  12.964 -34.635  1.00  0.00     0.168 HD
HETATM    4  C8  UNL     1      -9.503  14.979 -34.487  1.00  0.00     0.182 A
HETATM    5  N4  UNL     1      -9.234  16.168 -35.059  1.00  0.00    -0.354 N
ATOM      6  H4  UNL     1      -9.577  17.024 -34.620  1.00  0.00     0.166 HD
HETATM    7  C9  UNL     1      -8.521  16.250 -36.200  1.00  0.00     0.040 A
HETATM    8  C10 UNL     1      -8.062  15.092 -36.788  1.00  0.00     0.095 A
HETATM    9  N5  UNL     1      -7.322  15.158 -37.970  1.00  0.00    -0.385 N
ATOM     10  H5  UNL     1      -7.009  14.295 -38.416  1.00  0.00     0.159 HD
HETATM   11  C11 UNL     1      -6.986  16.453 -38.584  1.00  0.00     0.120 C
HETATM   12  C12 UNL     1      -8.115  17.400 -38.279  1.00  0.00     0.026 C
HETATM   13  C13 UNL     1      -8.257  17.579 -36.782  1.00  0.00     0.061 C
ENDROOT
BRANCH   1  14
HETATM   14  N2  UNL     1      -7.924  12.799 -36.729  1.00  0.00    -0.374 N
ATOM     15  H2  UNL     1      -8.364  12.437 -37.574  1.00  0.00     0.161 HD
BRANCH  14  16
HETATM   16  C6  UNL     1      -6.818  12.076 -36.111  1.00  0.00     0.121 C
BRANCH  16  17
HETATM   17  C5  UNL     1      -5.917  13.004 -35.343  1.00  0.00     0.020 C
BRANCH  17  18
HETATM   18  C4  UNL     1      -5.692  12.462 -33.963  1.00  0.00     0.002 C
BRANCH  18  19
HETATM   19  C3  UNL     1      -6.372  11.150 -33.796  1.00  0.00     0.002 C
BRANCH  19  20
HETATM   20  C2  UNL     1      -5.980  10.649 -32.385  1.00  0.00     0.027 C
BRANCH  20  21
HETATM   21  C1  UNL     1      -6.409   9.206 -32.333  1.00  0.00     0.229 C
BRANCH  21  22
HETATM   22  N1  UNL     1      -7.421   8.941 -33.326  1.00  0.00    -0.079 N
ATOM     23  H13 UNL     1      -8.361   9.066 -32.952  1.00  0.00     0.274 HD
ATOM     24  H12 UNL     1      -7.446   9.665 -34.044  1.00  0.00     0.274 HD
ATOM     25  H11 UNL     1      -7.295   8.013 -33.728  1.00  0.00     0.274 HD
ENDBRANCH  21  22
ENDBRANCH  20  21
ENDBRANCH  19  20
ENDBRANCH  18  19
ENDBRANCH  17  18
ENDBRANCH  16  17
ENDBRANCH  14  16
ENDBRANCH   1  14
TORSDOF 8
ENDMDL