MODEL 3
REMARK VINA RESULT: -7.167430785      1.694      7.263
REMARK  7 active torsions:
REMARK  status: ('A' for Active; 'I' for Inactive)
REMARK    1  A    between atoms: N1_1  and  C1_5
REMARK    2  A    between atoms: C1_5  and  C2_6
REMARK    3  A    between atoms: C1_5  and  C9_19
REMARK    4  A    between atoms: C2_6  and  N2_7
REMARK    5  A    between atoms: N2_7  and  N3_9
REMARK    6  A    between atoms: C3_11  and  C4_12
REMARK    7  A    between atoms: C9_19  and  C10_20
ROOT
HETATM    1  C2  UNL     1      -9.949  14.356 -36.795  1.00  0.00     0.172 C
ENDROOT
BRANCH   1   2
HETATM    2  C1  UNL     1      -9.872  15.825 -37.028  1.00  0.00     0.206 C
BRANCH   2   3
HETATM    3  N1  UNL     1     -11.167  16.474 -37.059  1.00  0.00    -0.073 N
ATOM      4  H13 UNL     1     -11.283  17.006 -37.921  1.00  0.00     0.274 HD
ATOM      5  H12 UNL     1     -11.912  15.787 -37.181  1.00  0.00     0.274 HD
ATOM      6  H11 UNL     1     -11.346  17.061 -36.245  1.00  0.00     0.274 HD
ENDBRANCH   2   3
BRANCH   2   7
HETATM    7  C9  UNL     1      -8.977  16.569 -36.090  1.00  0.00     0.073 C
BRANCH   7   8
HETATM    8  C10 UNL     1      -8.067  17.436 -36.935  1.00  0.00    -0.056 A
HETATM    9  C11 UNL     1      -7.850  17.152 -38.266  1.00  0.00     0.007 A
HETATM   10  C12 UNL     1      -7.011  17.957 -39.030  1.00  0.00     0.001 A
HETATM   11  C13 UNL     1      -6.372  19.055 -38.497  1.00  0.00     0.000 A
HETATM   12  C14 UNL     1      -6.595  19.332 -37.165  1.00  0.00     0.001 A
HETATM   13  C15 UNL     1      -7.427  18.534 -36.406  1.00  0.00     0.007 A
ENDBRANCH   7   8
ENDBRANCH   2   7
ENDBRANCH   1   2
BRANCH   1  14
HETATM   14  N2  UNL     1      -8.805  13.820 -36.121  1.00  0.00    -0.335 N
ATOM     15  H2  UNL     1      -8.661  14.065 -35.142  1.00  0.00     0.180 HD
BRANCH  14  16
HETATM   16  N3  UNL     1      -7.898  13.000 -36.725  1.00  0.00    -0.314 N
HETATM   17  C3  UNL     1      -6.910  12.342 -36.380  1.00  0.00     0.136 C
ATOM     18  H3  UNL     1      -8.084  12.904 -37.723  1.00  0.00     0.185 HD
BRANCH  17  19
HETATM   19  C4  UNL     1      -6.314  12.205 -35.062  1.00  0.00     0.049 A
HETATM   20  C5  UNL     1      -5.422  13.099 -34.546  1.00  0.00     0.031 A
HETATM   21  C6  UNL     1      -4.916  12.864 -33.269  1.00  0.00     0.004 A
HETATM   22  C7  UNL     1      -5.307  11.761 -32.550  1.00  0.00     0.017 A
HETATM   23  C8  UNL     1      -6.206  10.871 -33.083  1.00  0.00     0.088 A
HETATM   24  N4  UNL     1      -6.670  11.125 -34.306  1.00  0.00    -0.365 N
ATOM     25  H4  UNL     1      -7.337  10.466 -34.706  1.00  0.00     0.165 HD
ENDBRANCH  17  19
ENDBRANCH  14  16
ENDBRANCH   1  14
TORSDOF 7
ENDMDL