MODEL 5
REMARK VINA RESULT: -5.931785371      3.465      6.843
REMARK  6 active torsions:
REMARK  status: ('A' for Active; 'I' for Inactive)
REMARK    1  A    between atoms: C2_7  and  C3_8
REMARK    2  A    between atoms: C3_8  and  S1_9
REMARK    3  A    between atoms: S1_9  and  C4_10
REMARK    4  A    between atoms: C4_10  and  C5_11
REMARK    5  A    between atoms: C5_11  and  N3_12
REMARK    6  A    between atoms: N3_12  and  C6_14
ROOT
HETATM    1  C3  UNL     1      -5.226  13.601 -34.009  1.00  0.00     0.101 C
ENDROOT
BRANCH   1   2
HETATM    2  C2  UNL     1      -5.514  12.223 -33.639  1.00  0.00     0.118 C
HETATM    3  N2  UNL     1      -6.665  11.499 -34.019  1.00  0.00    -0.349 N
HETATM    4  C1  UNL     1      -6.490  10.249 -33.255  1.00  0.00     0.213 C
ATOM      5  H2  UNL     1      -7.418  11.768 -34.653  1.00  0.00     0.163 HD
HETATM    6  N1  UNL     1      -6.981   9.126 -33.659  1.00  0.00    -0.365 N
HETATM    7  O1  UNL     1      -5.750  10.568 -32.129  1.00  0.00    -0.320 OA
ATOM      8  H12 UNL     1      -7.526   8.891 -34.489  1.00  0.00     0.159 HD
ATOM      9  H11 UNL     1      -6.860   8.262 -33.131  1.00  0.00     0.159 HD
HETATM   10  C11 UNL     1      -5.572  11.998 -32.113  1.00  0.00     0.204 C
ENDBRANCH   1   2
BRANCH   1  11
HETATM   11  S1  UNL     1      -6.318  14.357 -35.134  1.00  0.00    -0.162 SA
BRANCH  11  12
HETATM   12  C4  UNL     1      -6.114  14.252 -36.878  1.00  0.00     0.118 C
BRANCH  12  13
HETATM   13  C5  UNL     1      -7.069  14.957 -37.756  1.00  0.00     0.066 C
BRANCH  13  14
HETATM   14  N3  UNL     1      -6.655  16.060 -38.499  1.00  0.00    -0.397 N
ATOM     15  H3  UNL     1      -5.772  16.018 -39.009  1.00  0.00     0.159 HD
BRANCH  14  16
HETATM   16  C6  UNL     1      -7.421  17.215 -38.558  1.00  0.00     0.080 C
HETATM   17  C7  UNL     1      -8.543  17.355 -37.589  1.00  0.00     0.025 C
HETATM   18  C8  UNL     1      -7.822  18.011 -36.388  1.00  0.00     0.002 C
HETATM   19  C9  UNL     1      -6.956  19.036 -37.040  1.00  0.00     0.002 C
HETATM   20  C10 UNL     1      -6.638  18.500 -38.397  1.00  0.00     0.025 C
ENDBRANCH  14  16
ENDBRANCH  13  14
ENDBRANCH  12  13
ENDBRANCH  11  12
ENDBRANCH   1  11
TORSDOF 6
ENDMDL