MODEL 1
REMARK VINA RESULT: -6.392690322      0.000      0.000
REMARK  6 active torsions:
REMARK  status: ('A' for Active; 'I' for Inactive)
REMARK    1  A    between atoms: C4_5  and  C5_6
REMARK    2  A    between atoms: C5_6  and  N2_7
REMARK    3  A    between atoms: N2_7  and  C6_10
REMARK    4  A    between atoms: C6_10  and  C7_11
REMARK    5  A    between atoms: C7_11  and  N3_12
REMARK    6  A    between atoms: N3_12  and  C8_14
ROOT
HETATM    1  N2  UNL     1     -10.705  14.517 -36.018  1.00  0.00    -0.068 N
ATOM      2  H21 UNL     1     -11.575  14.009 -35.861  1.00  0.00     0.277 HD
ATOM      3  H22 UNL     1     -10.390  14.012 -36.846  1.00  0.00     0.277 HD
ENDROOT
BRANCH   1   4
HETATM    4  C5  UNL     1      -9.784  14.384 -34.910  1.00  0.00     0.289 C
BRANCH   4   5
HETATM    5  C4  UNL     1      -8.400  14.269 -35.453  1.00  0.00     0.034 A
HETATM    6  C3  UNL     1      -7.311  14.847 -34.847  1.00  0.00     0.028 A
HETATM    7  C2  UNL     1      -6.051  14.715 -35.384  1.00  0.00     0.030 A
HETATM    8  C1  UNL     1      -5.892  13.979 -36.563  1.00  0.00     0.061 A
HETATM    9  N1  UNL     1      -4.591  13.831 -37.136  1.00  0.00    -0.101 NA
HETATM   10  C14 UNL     1      -7.011  13.408 -37.151  1.00  0.00     0.114 A
HETATM   11  N4  UNL     1      -8.226  13.560 -36.595  1.00  0.00    -0.366 N
ATOM     12  H4  UNL     1      -9.036  13.131 -37.044  1.00  0.00     0.165 HD
ENDBRANCH   4   5
ENDBRANCH   1   4
BRANCH   1  13
HETATM   13  C6  UNL     1     -10.933  15.936 -36.288  1.00  0.00     0.251 C
BRANCH  13  14
HETATM   14  C7  UNL     1     -10.555  16.186 -37.724  1.00  0.00     0.141 C
BRANCH  14  15
HETATM   15  N3  UNL     1      -9.660  17.275 -37.934  1.00  0.00    -0.415 N
ATOM     16  H3  UNL     1      -9.970  18.151 -38.355  1.00  0.00     0.153 HD
BRANCH  15  17
HETATM   17  C8  UNL     1      -8.309  17.075 -37.524  1.00  0.00     0.076 C
HETATM   18  C9  UNL     1      -7.969  18.133 -36.500  1.00  0.00     0.024 C
HETATM   19  C10 UNL     1      -6.590  18.722 -36.723  1.00  0.00     0.002 C
HETATM   20  C11 UNL     1      -6.596  19.306 -38.121  1.00  0.00     0.000 C
HETATM   21  C12 UNL     1      -6.776  18.235 -39.164  1.00  0.00     0.002 C
HETATM   22  C13 UNL     1      -7.314  16.952 -38.634  1.00  0.00     0.024 C
ENDBRANCH  15  17
ENDBRANCH  14  15
ENDBRANCH  13  14
ENDBRANCH   1  13
TORSDOF 6
ENDMDL