MODEL 1
REMARK VINA RESULT: -6.181105558      0.000      0.000
REMARK  7 active torsions:
REMARK  status: ('A' for Active; 'I' for Inactive)
REMARK    1  A    between atoms: N1_1  and  C1_4
REMARK    2  A    between atoms: C4_9  and  N3_10
REMARK    3  A    between atoms: N3_10  and  C5_11
REMARK    4  A    between atoms: N3_10  and  C7_17
REMARK    5  A    between atoms: C5_11  and  C6_12
REMARK    6  A    between atoms: C6_12  and  N4_13
REMARK    7  A    between atoms: C7_17  and  C8_18
ROOT
HETATM    1  N3  UNL     1      -8.918  15.515 -35.367  1.00  0.00    -0.365 N
ENDROOT
BRANCH   1   2
HETATM    2  C4  UNL     1      -8.070  14.383 -35.355  1.00  0.00     0.105 A
HETATM    3  N2  UNL     1      -7.376  14.167 -34.210  1.00  0.00    -0.352 N
HETATM    4  C3  UNL     1      -6.549  13.124 -34.077  1.00  0.00     0.092 A
ATOM      5  H2  UNL     1      -7.487  14.816 -33.431  1.00  0.00     0.166 HD
HETATM    6  C2  UNL     1      -6.376  12.234 -35.109  1.00  0.00     0.046 A
HETATM    7  C1  UNL     1      -7.061  12.421 -36.283  1.00  0.00     0.030 A
HETATM    8  C13 UNL     1      -7.912  13.518 -36.380  1.00  0.00     0.077 A
BRANCH   7   9
HETATM    9  N1  UNL     1      -6.898  11.595 -37.241  1.00  0.00    -0.399 N
ATOM     10  H12 UNL     1      -6.678  10.611 -37.084  1.00  0.00     0.156 HD
ATOM     11  H11 UNL     1      -6.990  11.921 -38.203  1.00  0.00     0.156 HD
ENDBRANCH   7   9
ENDBRANCH   1   2
BRANCH   1  12
HETATM   12  C5  UNL     1      -9.816  15.678 -34.274  1.00  0.00     0.151 C
BRANCH  12  13
HETATM   13  C6  UNL     1     -10.946  14.738 -34.142  1.00  0.00     0.249 C
BRANCH  13  14
HETATM   14  N4  UNL     1     -11.588  14.983 -32.847  1.00  0.00    -0.078 N
ATOM     15  H43 UNL     1     -12.067  14.160 -32.482  1.00  0.00     0.274 HD
ATOM     16  H42 UNL     1     -10.915  15.097 -32.088  1.00  0.00     0.274 HD
ATOM     17  H41 UNL     1     -12.207  15.786 -32.950  1.00  0.00     0.274 HD
ENDBRANCH  13  14
ENDBRANCH  12  13
ENDBRANCH   1  12
BRANCH   1  18
HETATM   18  C7  UNL     1      -8.790  16.434 -36.433  1.00  0.00     0.129 C
BRANCH  18  19
HETATM   19  C8  UNL     1      -7.499  17.083 -36.723  1.00  0.00     0.004 C
HETATM   20  C9  UNL     1      -7.466  18.571 -36.727  1.00  0.00     0.006 C
HETATM   21  C10 UNL     1      -6.495  18.955 -37.840  1.00  0.00     0.000 C
HETATM   22  C11 UNL     1      -7.027  18.023 -38.925  1.00  0.00     0.000 C
HETATM   23  C12 UNL     1      -7.177  16.729 -38.196  1.00  0.00     0.006 C
ENDBRANCH  18  19
ENDBRANCH   1  18
TORSDOF 7
ENDMDL