MODEL 5
REMARK VINA RESULT: -6.126189038      1.913      2.130
REMARK  8 active torsions:
REMARK  status: ('A' for Active; 'I' for Inactive)
REMARK    1  A    between atoms: N1_1  and  C1_5
REMARK    2  A    between atoms: C1_5  and  C2_6
REMARK    3  A    between atoms: C2_6  and  C3_7
REMARK    4  A    between atoms: C3_7  and  C4_8
REMARK    5  A    between atoms: C4_8  and  C5_9
REMARK    6  A    between atoms: C5_9  and  N2_10
REMARK    7  A    between atoms: N2_10  and  C6_12
REMARK    8  A    between atoms: C6_12  and  C7_13
ROOT
HETATM    1  C5  UNL     1      -8.310  14.496 -35.555  1.00  0.00     0.145 A
HETATM    2  C10 UNL     1      -7.596  14.168 -36.869  1.00  0.00     0.123 A
HETATM    3  C11 UNL     1      -7.263  15.486 -37.438  1.00  0.00     0.065 A
HETATM    4  N3  UNL     1      -6.720  16.063 -38.547  1.00  0.00    -0.302 N
ATOM      5  H3  UNL     1      -6.369  15.562 -39.363  1.00  0.00     0.186 HD
HETATM    6  N4  UNL     1      -6.721  17.369 -38.396  1.00  0.00    -0.309 N
ATOM      7  H4  UNL     1      -6.371  18.043 -39.078  1.00  0.00     0.186 HD
HETATM    8  C12 UNL     1      -7.253  17.673 -37.207  1.00  0.00     0.146 A
HETATM    9  C13 UNL     1      -7.609  16.473 -36.576  1.00  0.00     0.113 A
HETATM   10  O1  UNL     1      -8.160  15.908 -35.449  1.00  0.00    -0.316 OA
ENDROOT
BRANCH   1  11
HETATM   11  C4  UNL     1      -7.458  13.876 -34.486  1.00  0.00     0.062 C
BRANCH  11  12
HETATM   12  C3  UNL     1      -6.733  12.634 -34.766  1.00  0.00     0.006 C
BRANCH  12  13
HETATM   13  C2  UNL     1      -5.711  12.408 -33.624  1.00  0.00     0.027 C
BRANCH  13  14
HETATM   14  C1  UNL     1      -5.994  11.118 -32.919  1.00  0.00     0.229 C
BRANCH  14  15
HETATM   15  N1  UNL     1      -6.758  10.249 -33.811  1.00  0.00    -0.079 N
ATOM     16  H13 UNL     1      -6.226   9.430 -34.106  1.00  0.00     0.274 HD
ATOM     17  H12 UNL     1      -7.512   9.762 -33.328  1.00  0.00     0.274 HD
ATOM     18  H11 UNL     1      -7.094  10.801 -34.601  1.00  0.00     0.274 HD
ENDBRANCH  14  15
ENDBRANCH  13  14
ENDBRANCH  12  13
ENDBRANCH  11  12
ENDBRANCH   1  11
BRANCH   1  19
HETATM   19  N2  UNL     1      -9.667  14.189 -35.595  1.00  0.00    -0.370 N
ATOM     20  H2  UNL     1      -9.950  13.302 -36.012  1.00  0.00     0.161 HD
BRANCH  19  21
HETATM   21  C6  UNL     1     -10.666  15.036 -35.093  1.00  0.00     0.063 C
BRANCH  21  22
HETATM   22  C7  UNL     1     -11.228  14.462 -33.799  1.00  0.00     0.024 A
HETATM   23  C8  UNL     1     -11.609  15.270 -32.644  1.00  0.00     0.010 A
HETATM   24  C9  UNL     1     -12.708  14.871 -33.531  1.00  0.00     0.010 A
ENDBRANCH  21  22
ENDBRANCH  19  21
ENDBRANCH   1  19
TORSDOF 8
ENDMDL