MODEL 5
REMARK VINA RESULT: -7.295427148      1.293      1.445
REMARK  4 active torsions:
REMARK  status: ('A' for Active; 'I' for Inactive)
REMARK    1  A    between atoms: C7_8  and  C8_9
REMARK    2  A    between atoms: C8_9  and  C9_10
REMARK    3  A    between atoms: C9_10  and  N2_11
REMARK       I    between atoms: N2_11  and  C10_13
REMARK       I    between atoms: C10_13  and  N4_17
REMARK    4  A    between atoms: N4_17  and  C11_19
ROOT
HETATM    1  C11 UNL     1       6.485   8.827  26.459  1.00  0.00     0.140 C
HETATM    2  C12 UNL     1       5.636   7.757  25.904  1.00  0.00     0.091 C
HETATM    3  N5  UNL     1       4.980   6.901  25.473  1.00  0.00    -0.195 NA
HETATM    4  C13 UNL     1       7.941   8.500  26.323  1.00  0.00     0.073 C
HETATM    5  C14 UNL     1       8.505   7.705  27.457  1.00  0.00     0.171 C
HETATM    6  O1  UNL     1       8.122   8.268  28.672  1.00  0.00    -0.391 OA
HETATM    7  C15 UNL     1       6.734   8.020  28.770  1.00  0.00     0.171 C
HETATM    8  C16 UNL     1       6.065   9.051  27.896  1.00  0.00     0.073 C
ENDROOT
BRANCH   1   9
HETATM    9  N4  UNL     1       6.159  10.042  25.742  1.00  0.00    -0.204 N
HETATM   10  C10 UNL     1       6.396  10.200  24.343  1.00  0.00     0.668 C
HETATM   11  N2  UNL     1       5.337  10.675  23.540  1.00  0.00    -0.227 N
HETATM   12  N3  UNL     1       7.566   9.906  23.854  1.00  0.00    -0.235 N
ATOM     13  H2  UNL     1       4.571  11.189  23.974  1.00  0.00     0.177 HD
ATOM     14  H32 UNL     1       7.736  10.019  22.855  1.00  0.00     0.174 HD
ATOM     15  H31 UNL     1       8.331   9.563  24.435  1.00  0.00     0.174 HD
ATOM     16  H4  UNL     1       5.743  10.817  26.258  1.00  0.00     0.179 HD
BRANCH  11  17
HETATM   17  C9  UNL     1       5.317  10.448  22.120  1.00  0.00     0.140 C
BRANCH  17  18
HETATM   18  C8  UNL     1       4.569   9.161  21.863  1.00  0.00     0.052 C
BRANCH  18  19
HETATM   19  C7  UNL     1       5.384   8.282  20.869  1.00  0.00     0.123 C
HETATM   20  C6  UNL     1       4.684   8.483  19.573  1.00  0.00     0.032 C
HETATM   21  C5  UNL     1       5.512   8.186  18.302  1.00  0.00     0.002 C
HETATM   22  C4  UNL     1       6.409   7.144  18.730  1.00  0.00     0.002 C
HETATM   23  C3  UNL     1       7.336   6.324  17.940  1.00  0.00     0.020 C
HETATM   24  C2  UNL     1       8.027   5.501  19.070  1.00  0.00     0.121 C
HETATM   25  N1  UNL     1       7.209   5.322  20.224  1.00  0.00    -0.396 N
HETATM   26  C1  UNL     1       6.592   4.039  20.286  1.00  0.00     0.148 C
HETATM   27  C18 UNL     1       7.499   5.973  21.419  1.00  0.00     0.083 C
HETATM   28  C17 UNL     1       6.333   6.582  22.202  1.00  0.00     0.212 C
HETATM   29  O2  UNL     1       5.310   7.034  21.442  1.00  0.00    -0.381 OA
ENDBRANCH  18  19
ENDBRANCH  17  18
ENDBRANCH  11  17
ENDBRANCH   1   9
TORSDOF 4
ENDMDL