MODEL 2
REMARK VINA RESULT: -7.388472607      1.844      3.489
REMARK  10 active torsions:
REMARK  status: ('A' for Active; 'I' for Inactive)
REMARK    1  A    between atoms: C7_7  and  C9_9
REMARK    2  A    between atoms: C9_9  and  O1_10
REMARK    3  A    between atoms: C15_17  and  C16_18
REMARK    4  A    between atoms: C16_18  and  N1_19
REMARK    5  A    between atoms: N1_19  and  N2_21
REMARK    6  A    between atoms: N2_21  and  C17_22
REMARK    7  A    between atoms: C17_22  and  C18_24
REMARK    8  A    between atoms: C18_24  and  O2_25
REMARK    9  A    between atoms: C18_24  and  N4_27
REMARK   10  A    between atoms: N4_27  and  N5_28
ROOT
HETATM    1  C1  UNL     1       7.027   6.306  25.425  1.00  0.00     0.015 C
HETATM    2  C2  UNL     1       6.135   7.031  24.795  1.00  0.00    -0.072 C
HETATM    3  C3  UNL     1       5.328   6.674  23.626  1.00  0.00     0.035 C
HETATM    4  C4  UNL     1       4.970   7.916  22.809  1.00  0.00     0.015 C
HETATM    5  C5  UNL     1       6.105   8.920  22.762  1.00  0.00    -0.026 C
HETATM    6  C6  UNL     1       7.232   8.114  22.051  1.00  0.00     0.017 C
HETATM    7  C7  UNL     1       5.796   9.979  21.788  1.00  0.00    -0.015 C
HETATM    8  C8  UNL     1       6.959  10.361  20.875  1.00  0.00     0.018 C
HETATM    9  C10 UNL     1       5.362  11.297  22.414  1.00  0.00     0.012 C
HETATM   10  C11 UNL     1       6.341  11.744  23.452  1.00  0.00     0.002 C
HETATM   11  C12 UNL     1       6.190  10.732  24.570  1.00  0.00     0.011 C
HETATM   12  C13 UNL     1       6.536   9.352  24.117  1.00  0.00    -0.017 C
HETATM   13  C14 UNL     1       8.009   9.141  24.383  1.00  0.00     0.018 C
HETATM   14  C15 UNL     1       5.852   8.456  25.246  1.00  0.00     0.114 C
ENDROOT
BRANCH  14  15
HETATM   15  C16 UNL     1       6.297   8.761  26.491  1.00  0.00    -0.031 C
BRANCH  15  16
HETATM   16  N1  UNL     1       6.714   9.026  27.699  1.00  0.00    -0.202 N
ATOM     17  H1  UNL     1       6.423   9.951  28.016  1.00  0.00     0.211 HD
BRANCH  16  18
HETATM   18  N2  UNL     1       7.397   8.407  28.575  1.00  0.00    -0.297 NA
BRANCH  18  19
HETATM   19  C17 UNL     1       7.967   7.847  29.456  1.00  0.00     0.281 C
HETATM   20  N3  UNL     1       7.317   6.883  30.322  1.00  0.00    -0.060 NA
BRANCH  19  21
HETATM   21  C18 UNL     1       9.399   8.090  29.907  1.00  0.00     0.295 C
BRANCH  21  22
HETATM   22  O2  UNL     1       9.362   8.705  31.102  1.00  0.00    -0.331 OA
ATOM     23  H2  UNL     1       9.629   9.609  30.977  1.00  0.00     0.220 HD
ENDBRANCH  21  22
BRANCH  21  24
HETATM   24  N4  UNL     1      10.420   7.721  29.219  1.00  0.00    -0.302 NA
BRANCH  24  25
HETATM   25  N5  UNL     1      11.500   7.332  28.493  1.00  0.00    -0.278 N
ATOM     26  H52 UNL     1      10.697   7.600  29.061  1.00  0.00     0.191 HD
ATOM     27  H51 UNL     1      12.311   7.040  27.947  1.00  0.00     0.191 HD
ENDBRANCH  24  25
ENDBRANCH  21  24
ENDBRANCH  19  21
ENDBRANCH  18  19
ENDBRANCH  16  18
ENDBRANCH  15  16
ENDBRANCH  14  15
BRANCH   7  28
HETATM   28  C9  UNL     1       4.714   9.693  20.797  1.00  0.00     0.173 C
BRANCH  28  29
HETATM   29  O1  UNL     1       3.712  10.520  20.882  1.00  0.00    -0.400 OA
ATOM     30  H1  UNL     1       3.668  11.129  20.154  1.00  0.00     0.209 HD
ENDBRANCH  28  29
ENDBRANCH   7  28
TORSDOF 10
ENDMDL