MODEL 4
REMARK VINA RESULT: -7.259101279      2.359      3.148
REMARK  7 active torsions:
REMARK  status: ('A' for Active; 'I' for Inactive)
REMARK    1  A    between atoms: C1_2  and  N1_3
REMARK    2  A    between atoms: N1_3  and  C2_5
REMARK    3  A    between atoms: C3_10  and  S2_11
REMARK    4  A    between atoms: S2_11  and  C4_12
REMARK    5  A    between atoms: C9_19  and  N5_20
REMARK    6  A    between atoms: N5_20  and  C10_22
REMARK    7  A    between atoms: C10_22  and  C11_23
ROOT
HETATM    1  C2  UNL     1       6.556  10.455  23.579  1.00  0.00     0.165 A
HETATM    2  N2  UNL     1       5.768  10.687  24.644  1.00  0.00    -0.280 N
ATOM      3  H2  UNL     1       5.180  11.521  24.652  1.00  0.00     0.188 HD
HETATM    4  N3  UNL     1       5.732   9.865  25.686  1.00  0.00    -0.278 N
ATOM      5  H3  UNL     1       5.115  10.092  26.466  1.00  0.00     0.189 HD
HETATM    6  C3  UNL     1       6.475   8.746  25.756  1.00  0.00     0.161 A
HETATM    7  N4  UNL     1       7.277   8.478  24.709  1.00  0.00    -0.319 N
ATOM      8  H4  UNL     1       7.857   7.639  24.721  1.00  0.00     0.169 HD
HETATM    9  C9  UNL     1       7.325   9.311  23.635  1.00  0.00     0.149 A
ENDROOT
BRANCH   9  10
HETATM   10  N5  UNL     1       8.092   9.065  22.625  1.00  0.00    -0.373 N
ATOM     11  H5  UNL     1       8.884   9.685  22.457  1.00  0.00     0.161 HD
BRANCH  10  12
HETATM   12  C10 UNL     1       7.887   7.954  21.719  1.00  0.00     0.126 C
BRANCH  12  13
HETATM   13  C11 UNL     1       6.514   7.373  21.985  1.00  0.00     0.006 C
HETATM   14  C12 UNL     1       5.581   7.553  20.833  1.00  0.00     0.025 C
HETATM   15  C13 UNL     1       5.344   6.266  20.074  1.00  0.00     0.114 C
HETATM   16  N6  UNL     1       4.937   5.166  20.890  1.00  0.00    -0.421 N
HETATM   17  C14 UNL     1       5.338   5.228  22.258  1.00  0.00     0.114 C
ATOM     18  H6  UNL     1       4.395   4.386  20.518  1.00  0.00     0.153 HD
HETATM   19  C15 UNL     1       6.683   5.912  22.365  1.00  0.00     0.025 C
ENDBRANCH  12  13
ENDBRANCH  10  12
ENDBRANCH   9  10
BRANCH   1  20
HETATM   20  N1  UNL     1       6.612  11.236  22.556  1.00  0.00    -0.339 N
ATOM     21  H1  UNL     1       6.748  10.804  21.642  1.00  0.00     0.167 HD
BRANCH  20  22
HETATM   22  C1  UNL     1       6.504  12.628  22.598  1.00  0.00     0.171 C
HETATM   23  S1  UNL     1       7.294  13.505  21.448  1.00  0.00    -0.074 SA
ENDBRANCH  20  22
ENDBRANCH   1  20
BRANCH   6  24
HETATM   24  S2  UNL     1       6.384   7.672  27.190  1.00  0.00    -0.088 SA
BRANCH  24  25
HETATM   25  C4  UNL     1       7.594   8.291  28.391  1.00  0.00     0.055 C
HETATM   26  C5  UNL     1       9.006   8.004  27.947  1.00  0.00     0.015 C
HETATM   27  C6  UNL     1       9.793   7.793  29.214  1.00  0.00     0.001 C
HETATM   28  C7  UNL     1       8.818   7.937  30.357  1.00  0.00     0.001 C
HETATM   29  C8  UNL     1       7.480   7.612  29.722  1.00  0.00     0.015 C
ENDBRANCH  24  25
ENDBRANCH   6  24
TORSDOF 7
ENDMDL