MODEL 1
REMARK VINA RESULT: -7.110557408      0.000      0.000
REMARK  7 active torsions:
REMARK  status: ('A' for Active; 'I' for Inactive)
REMARK    1  A    between atoms: S1_2  and  C2_3
REMARK    2  A    between atoms: C2_3  and  O2_5
REMARK    3  A    between atoms: O2_5  and  C3_6
REMARK    4  A    between atoms: C5_8  and  C6_9
REMARK    5  A    between atoms: C7_12  and  N1_13
REMARK       I    between atoms: N1_13  and  C8_15
REMARK    6  A    between atoms: C8_15  and  C9_17
REMARK       I    between atoms: C9_17  and  N2_19
REMARK    7  A    between atoms: N2_19  and  C10_21
ROOT
HETATM    1  N1  UNL     1       6.070  10.110  25.117  1.00  0.00    -0.345 N
ATOM      2  H1  UNL     1       5.194  10.571  25.362  1.00  0.00     0.163 HD
HETATM    3  C8  UNL     1       6.851  10.686  24.066  1.00  0.00     0.309 C
HETATM    4  O5  UNL     1       7.943  10.194  23.695  1.00  0.00    -0.262 OA
ENDROOT
BRANCH   1   5
HETATM    5  C7  UNL     1       6.426   8.947  25.843  1.00  0.00     0.129 C
HETATM    6  C3  UNL     1       5.293   8.002  26.192  1.00  0.00     0.157 C
HETATM    7  C4  UNL     1       5.348   8.520  27.617  1.00  0.00     0.052 C
HETATM    8  C5  UNL     1       6.703   9.086  27.311  1.00  0.00     0.114 C
BRANCH   6   9
HETATM    9  O2  UNL     1       5.718   6.657  26.050  1.00  0.00    -0.305 OA
BRANCH   9  10
HETATM   10  C2  UNL     1       6.344   6.185  24.910  1.00  0.00     0.322 C
HETATM   11  O1  UNL     1       7.461   5.629  25.064  1.00  0.00    -0.252 OA
BRANCH  10  12
HETATM   12  S1  UNL     1       5.617   6.346  23.282  1.00  0.00    -0.066 SA
HETATM   13  C1  UNL     1       6.686   7.287  22.176  1.00  0.00     0.101 C
ENDBRANCH  10  12
ENDBRANCH   9  10
ENDBRANCH   6   9
BRANCH   8  14
HETATM   14  C6  UNL     1       7.765   8.172  27.817  1.00  0.00     0.179 C
HETATM   15  O3  UNL     1       7.699   7.578  28.908  1.00  0.00    -0.648 OA
HETATM   16  O4  UNL     1       8.881   7.989  27.009  1.00  0.00    -0.648 OA
ENDBRANCH   8  14
ENDBRANCH   1   5
BRANCH   3  17
HETATM   17  C9  UNL     1       6.413  11.881  23.373  1.00  0.00     0.309 C
HETATM   18  O6  UNL     1       5.547  12.663  23.865  1.00  0.00    -0.262 OA
HETATM   19  N2  UNL     1       6.969  12.184  22.106  1.00  0.00    -0.348 N
ATOM     20  H2  UNL     1       7.667  11.559  21.703  1.00  0.00     0.163 HD
BRANCH  19  21
HETATM   21  C10 UNL     1       6.565  13.366  21.370  1.00  0.00     0.084 C
HETATM   22  C11 UNL     1       6.463  12.972  19.911  1.00  0.00     0.025 C
HETATM   23  C12 UNL     1       6.600  14.239  19.089  1.00  0.00     0.002 C
HETATM   24  C13 UNL     1       5.993  15.369  19.878  1.00  0.00     0.000 C
HETATM   25  C14 UNL     1       6.829  15.771  21.066  1.00  0.00     0.002 C
HETATM   26  C15 UNL     1       7.534  14.513  21.554  1.00  0.00     0.025 C
ENDBRANCH  19  21
ENDBRANCH   3  17
TORSDOF 7
ENDMDL