MODEL 1
REMARK VINA RESULT: -8.486327254      0.000      0.000
REMARK  5 active torsions:
REMARK  status: ('A' for Active; 'I' for Inactive)
REMARK    1  A    between atoms: C6_7  and  C7_8
REMARK       I    between atoms: C7_8  and  N2_10
REMARK    2  A    between atoms: N2_10  and  C8_12
REMARK    3  A    between atoms: C11_15  and  C12_16
REMARK    4  A    between atoms: C12_16  and  N3_17
REMARK    5  A    between atoms: C18_23  and  O2_24
ROOT
HETATM    1  N1  UNL     1      10.801   7.297  29.137  1.00  0.00    -0.195 NA
HETATM    2  C1  UNL     1       9.776   7.726  28.791  1.00  0.00     0.092 C
HETATM    3  C2  UNL     1       8.486   8.265  28.340  1.00  0.00     0.292 C
HETATM    4  C3  UNL     1       7.374   7.731  29.226  1.00  0.00     0.048 C
HETATM    5  C4  UNL     1       6.028   8.078  28.679  1.00  0.00     0.005 C
HETATM    6  C5  UNL     1       6.205   9.001  27.490  1.00  0.00     0.043 C
HETATM    7  C6  UNL     1       7.052   8.307  26.433  1.00  0.00     0.278 C
HETATM    8  N4  UNL     1       8.300   7.849  26.959  1.00  0.00    -0.046 N
ATOM      9  H41 UNL     1       8.399   6.839  26.858  1.00  0.00     0.279 HD
ATOM     10  H42 UNL     1       9.081   8.144  26.374  1.00  0.00     0.279 HD
ENDROOT
BRANCH   7  11
HETATM   11  C7  UNL     1       7.217   9.211  25.268  1.00  0.00     0.248 C
HETATM   12  O1  UNL     1       8.315   9.243  24.680  1.00  0.00    -0.271 OA
HETATM   13  N2  UNL     1       6.149  10.041  24.810  1.00  0.00    -0.354 N
ATOM     14  H2  UNL     1       5.252  10.010  25.294  1.00  0.00     0.162 HD
BRANCH  13  15
HETATM   15  C8  UNL     1       6.307  10.917  23.682  1.00  0.00     0.088 C
HETATM   16  C9  UNL     1       5.821  12.338  23.964  1.00  0.00     0.052 C
HETATM   17  C10 UNL     1       6.405  13.152  22.837  1.00  0.00    -0.020 C
HETATM   18  C11 UNL     1       6.492  12.663  21.611  1.00  0.00    -0.056 C
HETATM   19  C19 UNL     1       6.026  11.295  21.285  1.00  0.00     0.037 C
HETATM   20  C20 UNL     1       5.575  10.478  22.442  1.00  0.00     0.029 C
BRANCH  18  21
HETATM   21  C12 UNL     1       7.070  13.475  20.510  1.00  0.00     0.306 C
BRANCH  21  22
HETATM   22  N3  UNL     1       7.288  14.830  20.914  1.00  0.00     0.097 N
HETATM   23  C13 UNL     1       8.705  15.178  20.954  1.00  0.00     0.280 C
HETATM   24  C14 UNL     1       8.881  16.257  19.924  1.00  0.00     0.045 C
HETATM   25  C15 UNL     1       7.763  15.875  18.943  1.00  0.00     0.044 C
HETATM   26  C18 UNL     1       8.285  17.519  20.505  1.00  0.00     0.126 C
HETATM   27  C16 UNL     1       6.679  15.765  20.031  1.00  0.00     0.226 C
HETATM   28  C17 UNL     1       6.821  17.144  20.653  1.00  0.00     0.068 C
BRANCH  26  29
HETATM   29  O2  UNL     1       8.469  18.533  19.562  1.00  0.00    -0.395 OA
ATOM     30  H2  UNL     1       7.661  18.606  19.067  1.00  0.00     0.210 HD
ENDBRANCH  26  29
ENDBRANCH  21  22
ENDBRANCH  18  21
ENDBRANCH  13  15
ENDBRANCH   7  11
TORSDOF 5
ENDMDL