MODEL 2
REMARK VINA RESULT: -7.742399387      4.607      9.588
REMARK  5 active torsions:
REMARK  status: ('A' for Active; 'I' for Inactive)
REMARK    1  A    between atoms: C3_6  and  N3_7
REMARK    2  A    between atoms: N3_7  and  C4_9
REMARK    3  A    between atoms: C11_17  and  C12_18
REMARK    4  A    between atoms: C12_18  and  N4_19
REMARK       I    between atoms: N4_19  and  C13_21
REMARK       I    between atoms: C13_21  and  N5_23
REMARK    5  A    between atoms: N5_23  and  C14_25
ROOT
HETATM    1  N1  UNL     1       6.328  13.152  23.911  1.00  0.00    -0.190 NA
HETATM    2  C1  UNL     1       6.364  11.974  23.903  1.00  0.00     0.119 C
HETATM    3  C2  UNL     1       6.401  10.503  23.917  1.00  0.00     0.130 A
HETATM    4  N2  UNL     1       7.185   9.821  24.712  1.00  0.00    -0.327 N
ATOM      5  H2  UNL     1       7.809  10.299  25.363  1.00  0.00     0.168 HD
HETATM    6  C3  UNL     1       7.150   8.488  24.654  1.00  0.00     0.146 A
HETATM    7  S1  UNL     1       5.984   8.185  23.450  1.00  0.00    -0.054 SA
HETATM    8  C11 UNL     1       5.587   9.800  23.069  1.00  0.00     0.041 A
ENDROOT
BRANCH   8   9
HETATM    9  C12 UNL     1       4.621  10.343  22.054  1.00  0.00     0.173 C
BRANCH   9  10
HETATM   10  N4  UNL     1       4.159   9.258  21.246  1.00  0.00    -0.338 N
HETATM   11  C13 UNL     1       3.342   9.516  20.120  1.00  0.00     0.316 C
HETATM   12  O1  UNL     1       3.026  10.712  19.814  1.00  0.00    -0.247 OA
HETATM   13  N5  UNL     1       2.893   8.417  19.349  1.00  0.00    -0.336 N
ATOM     14  H5  UNL     1       3.157   7.466  19.608  1.00  0.00     0.164 HD
ATOM     15  H4  UNL     1       4.417   8.300  21.481  1.00  0.00     0.164 HD
BRANCH  13  16
HETATM   16  C14 UNL     1       2.062   8.648  18.200  1.00  0.00     0.112 C
HETATM   17  C15 UNL     1       0.698   8.041  18.286  1.00  0.00     0.053 C
HETATM   18  C16 UNL     1       0.511   7.462  16.901  1.00  0.00     0.169 C
HETATM   19  O2  UNL     1       1.783   7.031  16.542  1.00  0.00    -0.389 OA
HETATM   20  C17 UNL     1       2.682   7.950  17.009  1.00  0.00     0.192 C
ENDBRANCH  13  16
ENDBRANCH   9  10
ENDBRANCH   8   9
BRANCH   6  21
HETATM   21  N3  UNL     1       7.859   7.636  25.369  1.00  0.00    -0.365 N
ATOM     22  H3  UNL     1       8.653   7.156  24.947  1.00  0.00     0.162 HD
BRANCH  21  23
HETATM   23  C4  UNL     1       7.518   7.386  26.727  1.00  0.00     0.088 C
HETATM   24  C5  UNL     1       6.016   7.291  26.955  1.00  0.00     0.030 C
HETATM   25  C6  UNL     1       5.892   7.997  28.295  1.00  0.00    -0.012 C
HETATM   26  C7  UNL     1       6.744   7.291  29.315  1.00  0.00     0.005 C
HETATM   27  C10 UNL     1       6.776   9.220  27.994  1.00  0.00     0.011 C
HETATM   28  C8  UNL     1       8.185   7.706  29.043  1.00  0.00     0.007 C
HETATM   29  C9  UNL     1       8.042   8.395  27.704  1.00  0.00     0.009 C
ENDBRANCH  21  23
ENDBRANCH   6  21
TORSDOF 5
ENDMDL