MODEL 4
REMARK VINA RESULT: -6.845408971      1.490      1.911
REMARK  8 active torsions:
REMARK  status: ('A' for Active; 'I' for Inactive)
REMARK    1  A    between atoms: N1_1  and  C1_5
REMARK    2  A    between atoms: C1_5  and  C2_6
REMARK    3  A    between atoms: C1_5  and  C10_18
REMARK    4  A    between atoms: C2_6  and  S1_7
REMARK    5  A    between atoms: S1_7  and  C3_8
REMARK    6  A    between atoms: C3_8  and  N2_10
REMARK    7  A    between atoms: N2_10  and  C4_12
REMARK       I    between atoms: C10_18  and  N3_20
REMARK    8  A    between atoms: C14_24  and  C15_25
ROOT
HETATM    1  C1  UNL     1       5.890  10.948  22.597  1.00  0.00     0.284 C
ENDROOT
BRANCH   1   2
HETATM    2  N1  UNL     1       4.505  11.099  22.423  1.00  0.00    -0.066 N
ATOM      3  H13 UNL     1       4.041  11.066  23.331  1.00  0.00     0.275 HD
ATOM      4  H12 UNL     1       4.299  12.058  22.143  1.00  0.00     0.275 HD
ATOM      5  H11 UNL     1       4.047  10.451  21.783  1.00  0.00     0.275 HD
ENDBRANCH   1   2
BRANCH   1   6
HETATM    6  C2  UNL     1       6.347  10.211  23.840  1.00  0.00     0.124 C
BRANCH   6   7
HETATM    7  S1  UNL     1       7.110   8.647  23.488  1.00  0.00    -0.098 SA
BRANCH   7   8
HETATM    8  C3  UNL     1       6.836   7.380  24.660  1.00  0.00     0.134 C
HETATM    9  S2  UNL     1       5.562   6.382  24.555  1.00  0.00    -0.053 SA
BRANCH   8  10
HETATM   10  N2  UNL     1       7.740   7.256  25.765  1.00  0.00    -0.371 N
ATOM     11  H2  UNL     1       8.270   6.391  25.866  1.00  0.00     0.161 HD
BRANCH  10  12
HETATM   12  C4  UNL     1       7.938   8.312  26.752  1.00  0.00     0.083 C
HETATM   13  C5  UNL     1       9.020   8.026  27.727  1.00  0.00     0.025 C
HETATM   14  C6  UNL     1       8.589   7.619  29.099  1.00  0.00     0.002 C
HETATM   15  C7  UNL     1       7.392   8.362  29.583  1.00  0.00     0.000 C
HETATM   16  C8  UNL     1       6.249   8.050  28.612  1.00  0.00     0.002 C
HETATM   17  C9  UNL     1       6.621   8.718  27.320  1.00  0.00     0.025 C
ENDBRANCH  10  12
ENDBRANCH   8  10
ENDBRANCH   7   8
ENDBRANCH   6   7
ENDBRANCH   1   6
BRANCH   1  18
HETATM   18  C10 UNL     1       6.665  12.171  22.379  1.00  0.00     0.252 C
HETATM   19  O1  UNL     1       6.876  12.890  23.421  1.00  0.00    -0.271 OA
HETATM   20  N3  UNL     1       7.192  12.625  21.155  1.00  0.00    -0.336 N
HETATM   21  C11 UNL     1       7.118  11.948  19.892  1.00  0.00     0.127 C
HETATM   22  C14 UNL     1       7.909  13.890  20.954  1.00  0.00     0.188 C
HETATM   23  C12 UNL     1       8.343  12.467  19.118  1.00  0.00     0.022 C
HETATM   24  C13 UNL     1       8.306  13.915  19.522  1.00  0.00     0.038 C
BRANCH  22  25
HETATM   25  C15 UNL     1       7.050  15.049  21.325  1.00  0.00     0.196 C
HETATM   26  O2  UNL     1       6.035  15.269  20.622  1.00  0.00    -0.646 OA
HETATM   27  O3  UNL     1       7.324  15.864  22.382  1.00  0.00    -0.646 OA
ENDBRANCH  22  25
ENDBRANCH   1  18
TORSDOF 8
ENDMDL