MODEL 4
REMARK VINA RESULT: -5.992722367      2.244      4.680
REMARK  6 active torsions:
REMARK  status: ('A' for Active; 'I' for Inactive)
REMARK    1  A    between atoms: C2_2  and  C3_3
REMARK    2  A    between atoms: C6_6  and  O1_7
REMARK    3  A    between atoms: C7_9  and  O2_10
REMARK    4  A    between atoms: N1_19  and  C14_20
REMARK    5  A    between atoms: C14_20  and  C15_21
REMARK    6  A    between atoms: C20_26  and  O4_27
ROOT
HETATM    1  C3  UNL     1       5.685  12.238  22.806  1.00  0.00     0.016 C
HETATM    2  C4  UNL     1       5.530  10.980  23.589  1.00  0.00     0.022 C
HETATM    3  C5  UNL     1       5.608   9.747  22.763  1.00  0.00     0.022 C
HETATM    4  C6  UNL     1       4.597   9.848  21.664  1.00  0.00     0.159 C
HETATM    5  C7  UNL     1       5.021  10.734  20.538  1.00  0.00     0.156 C
HETATM    6  C8  UNL     1       6.396  11.231  20.638  1.00  0.00     0.076 C
HETATM    7  C9  UNL     1       6.678  12.217  21.710  1.00  0.00     0.135 C
HETATM    8  O3  UNL     1       7.881  11.559  21.925  1.00  0.00    -0.378 OA
HETATM    9  C10 UNL     1       7.421  10.381  21.274  1.00  0.00     0.143 C
HETATM   10  C11 UNL     1       6.999   9.423  22.298  1.00  0.00     0.029 C
HETATM   11  C12 UNL     1       7.945   9.565  23.492  1.00  0.00     0.060 C
HETATM   12  C13 UNL     1       7.519   8.711  24.659  1.00  0.00     0.059 C
HETATM   13  N1  UNL     1       6.135   8.716  24.792  1.00  0.00    -0.387 N
HETATM   14  C18 UNL     1       5.355   8.515  23.630  1.00  0.00     0.098 C
HETATM   15  C19 UNL     1       5.997   7.353  22.863  1.00  0.00     0.058 C
HETATM   16  C20 UNL     1       7.027   7.978  21.948  1.00  0.00     0.132 C
ENDROOT
BRANCH  13  17
HETATM   17  C14 UNL     1       5.515   8.849  26.021  1.00  0.00     0.127 C
BRANCH  17  18
HETATM   18  C15 UNL     1       6.555   8.639  27.129  1.00  0.00     0.003 A
HETATM   19  C16 UNL     1       6.246   7.756  28.253  1.00  0.00     0.007 A
HETATM   20  C17 UNL     1       6.196   9.248  28.467  1.00  0.00     0.007 A
ENDBRANCH  17  18
ENDBRANCH  13  17
BRANCH   4  21
HETATM   21  O1  UNL     1       4.143   8.605  21.213  1.00  0.00    -0.392 OA
ATOM     22  H1  UNL     1       4.319   8.451  20.292  1.00  0.00     0.210 HD
ENDBRANCH   4  21
BRANCH  16  23
HETATM   23  O4  UNL     1       6.821   7.689  20.622  1.00  0.00    -0.395 OA
ATOM     24  H4  UNL     1       7.599   7.453  20.131  1.00  0.00     0.210 HD
ENDBRANCH  16  23
BRANCH   1  25
HETATM   25  C2  UNL     1       5.919  13.353  23.801  1.00  0.00     0.002 C
HETATM   26  C1  UNL     1       6.037  14.707  23.190  1.00  0.00     0.005 C
ENDBRANCH   1  25
BRANCH   5  27
HETATM   27  O2  UNL     1       4.857  10.103  19.281  1.00  0.00    -0.392 OA
ATOM     28  H2  UNL     1       4.049   9.604  19.239  1.00  0.00     0.210 HD
ENDBRANCH   5  27
TORSDOF 6
ENDMDL