MODEL 5
REMARK VINA RESULT: -5.918416755      1.512      4.180
REMARK  7 active torsions:
REMARK  status: ('A' for Active; 'I' for Inactive)
REMARK    1  A    between atoms: O1_2  and  C2_3
REMARK    2  A    between atoms: C2_3  and  C5_6
REMARK    3  A    between atoms: C5_6  and  C6_7
REMARK    4  A    between atoms: C11_12  and  O2_13
REMARK    5  A    between atoms: C13_17  and  O3_18
REMARK    6  A    between atoms: C18_24  and  O4_25
REMARK    7  A    between atoms: C18_24  and  O5_27
ROOT
HETATM    1  C6  UNL     1       6.659   7.865  22.338  1.00  0.00     0.036 C
HETATM    2  C7  UNL     1       5.607   7.001  23.063  1.00  0.00     0.238 C
HETATM    3  C8  UNL     1       5.677   5.537  22.973  1.00  0.00     0.037 C
HETATM    4  C9  UNL     1       6.267   4.888  24.239  1.00  0.00     0.007 C
HETATM    5  C10 UNL     1       5.478   5.513  25.383  1.00  0.00     0.064 C
HETATM    6  C11 UNL     1       5.975   6.931  25.476  1.00  0.00     0.357 C
HETATM    7  N1  UNL     1       5.955   7.599  24.269  1.00  0.00     0.130 N
HETATM    8  C12 UNL     1       7.194   8.089  23.699  1.00  0.00     0.266 C
HETATM    9  C13 UNL     1       7.432   9.440  24.226  1.00  0.00     0.152 C
HETATM   10  C14 UNL     1       6.207  10.278  24.528  1.00  0.00     0.034 C
HETATM   11  C15 UNL     1       5.674  10.949  23.248  1.00  0.00     0.013 C
HETATM   12  C16 UNL     1       5.089   9.774  22.513  1.00  0.00     0.058 A
HETATM   13  C17 UNL     1       6.213   9.145  21.787  1.00  0.00     0.070 A
HETATM   14  C18 UNL     1       5.020   9.537  21.101  1.00  0.00     0.170 A
ENDROOT
BRANCH   1  15
HETATM   15  C5  UNL     1       7.439   6.918  21.488  1.00  0.00     0.051 C
BRANCH  15  16
HETATM   16  C2  UNL     1       8.388   7.338  20.470  1.00  0.00     0.054 C
HETATM   17  C3  UNL     1       9.464   6.284  20.150  1.00  0.00     0.045 C
HETATM   18  C4  UNL     1       9.062   8.666  20.643  1.00  0.00     0.045 C
BRANCH  16  19
HETATM   19  O1  UNL     1       7.688   7.402  19.269  1.00  0.00    -0.386 OA
HETATM   20  C1  UNL     1       6.768   6.440  19.023  1.00  0.00     0.202 C
ENDBRANCH  16  19
ENDBRANCH  15  16
ENDBRANCH   1  15
BRANCH   9  21
HETATM   21  O3  UNL     1       8.340  10.260  23.633  1.00  0.00    -0.393 OA
ATOM     22  H3  UNL     1       8.150  11.183  23.517  1.00  0.00     0.210 HD
ENDBRANCH   9  21
BRANCH  14  23
HETATM   23  O4  UNL     1       4.111   8.598  20.615  1.00  0.00    -0.365 OA
ATOM     24  H4  UNL     1       3.369   8.897  20.104  1.00  0.00     0.213 HD
ENDBRANCH  14  23
BRANCH  14  25
HETATM   25  O5  UNL     1       5.022  10.694  20.293  1.00  0.00    -0.359 OA
HETATM   26  C19 UNL     1       5.977  10.434  19.290  1.00  0.00     0.205 C
ENDBRANCH  14  25
BRANCH   6  27
HETATM   27  O2  UNL     1       7.230   6.999  26.100  1.00  0.00    -0.368 OA
ATOM     28  H2  UNL     1       7.364   7.838  26.526  1.00  0.00     0.212 HD
ENDBRANCH   6  27
TORSDOF 7
ENDMDL