MODEL 1
REMARK VINA RESULT: -7.071329113      0.000      0.000
REMARK  6 active torsions:
REMARK  status: ('A' for Active; 'I' for Inactive)
REMARK    1  A    between atoms: C5_5  and  N1_6
REMARK       I    between atoms: N1_6  and  C6_8
REMARK    2  A    between atoms: C6_8  and  C7_10
REMARK    3  A    between atoms: C7_10  and  N2_11
REMARK    4  A    between atoms: N2_11  and  C8_13
REMARK    5  A    between atoms: C8_13  and  N3_15
REMARK    6  A    between atoms: N3_15  and  N4_17
ROOT
HETATM    1  N1  UNL     1       6.345   9.202  22.822  1.00  0.00    -0.353 N
ATOM      2  H1  UNL     1       5.327   9.145  22.813  1.00  0.00     0.163 HD
HETATM    3  C6  UNL     1       6.991   9.889  23.872  1.00  0.00     0.235 C
HETATM    4  O1  UNL     1       8.253   9.982  23.918  1.00  0.00    -0.272 OA
ENDROOT
BRANCH   3   5
HETATM    5  C7  UNL     1       6.162  10.514  24.943  1.00  0.00     0.224 C
BRANCH   5   6
HETATM    6  N2  UNL     1       5.145   9.565  25.315  1.00  0.00    -0.357 N
ATOM      7  H2  UNL     1       4.204   9.642  24.929  1.00  0.00     0.162 HD
BRANCH   6   8
HETATM    8  C8  UNL     1       5.460   8.523  26.218  1.00  0.00     0.182 C
HETATM    9  S1  UNL     1       5.600   6.969  25.719  1.00  0.00    -0.040 SA
BRANCH   8  10
HETATM   10  N3  UNL     1       5.655   8.852  27.582  1.00  0.00    -0.295 N
ATOM     11  H3  UNL     1       4.866   9.109  28.176  1.00  0.00     0.183 HD
BRANCH  10  12
HETATM   12  N4  UNL     1       6.954   8.813  28.093  1.00  0.00    -0.225 NA
HETATM   13  C9  UNL     1       7.940   8.447  27.112  1.00  0.00     0.140 C
HETATM   14  C10 UNL     1       9.087   7.770  27.864  1.00  0.00     0.183 C
HETATM   15  O2  UNL     1       9.243   8.312  29.118  1.00  0.00    -0.389 OA
HETATM   16  C11 UNL     1       8.200   8.072  29.982  1.00  0.00     0.183 C
HETATM   17  C12 UNL     1       6.952   7.789  29.144  1.00  0.00     0.140 C
ENDBRANCH  10  12
ENDBRANCH   8  10
ENDBRANCH   6   8
ENDBRANCH   5   6
ENDBRANCH   3   5
BRANCH   1  18
HETATM   18  C5  UNL     1       7.095   8.581  21.766  1.00  0.00     0.103 C
HETATM   19  C4  UNL     1       7.019   7.119  21.904  1.00  0.00     0.046 C
HETATM   20  C2  UNL     1       7.294   6.410  20.650  1.00  0.00     0.003 C
HETATM   21  C1  UNL     1       8.740   5.928  20.624  1.00  0.00     0.026 C
HETATM   22  C3  UNL     1       6.356   5.224  20.420  1.00  0.00     0.026 C
HETATM   23  S2  UNL     1       6.964   7.609  19.354  1.00  0.00    -0.148 SA
HETATM   24  C13 UNL     1       6.678   9.037  20.423  1.00  0.00     0.022 C
HETATM   25  C14 UNL     1       5.254   9.522  20.344  1.00  0.00     0.029 C
HETATM   26  C15 UNL     1       7.552  10.177  19.890  1.00  0.00     0.029 C
ENDBRANCH   1  18
TORSDOF 6
ENDMDL