MODEL 3
REMARK VINA RESULT: -7.199372422      2.222      5.910
REMARK  7 active torsions:
REMARK  status: ('A' for Active; 'I' for Inactive)
REMARK    1  A    between atoms: C2_2  and  C3_3
REMARK    2  A    between atoms: C6_6  and  O1_7
REMARK    3  A    between atoms: O1_7  and  C7_8
REMARK       I    between atoms: C7_8  and  N1_10
REMARK    4  A    between atoms: N1_10  and  C8_12
REMARK    5  A    between atoms: N2_17  and  C13_18
REMARK    6  A    between atoms: C13_18  and  C14_19
REMARK    7  A    between atoms: C25_31  and  O4_32
ROOT
HETATM    1  C3  UNL     1      17.180  17.237  -7.986  1.00  0.00     0.002 C
HETATM    2  C4  UNL     1      16.368  17.125  -9.299  1.00  0.00     0.022 C
HETATM    3  C5  UNL     1      17.126  15.950  -7.317  1.00  0.00     0.049 C
HETATM    4  C6  UNL     1      17.750  14.738  -7.910  1.00  0.00     0.142 C
HETATM    5  C11 UNL     1      19.164  14.925  -8.221  1.00  0.00     0.069 A
HETATM    6  C12 UNL     1      20.384  14.319  -7.806  1.00  0.00     0.248 A
HETATM    7  N2  UNL     1      21.645  14.889  -8.232  1.00  0.00     0.096 N
HETATM    8  C17 UNL     1      21.478  16.311  -8.354  1.00  0.00     0.284 C
HETATM    9  C18 UNL     1      20.431  16.714  -7.305  1.00  0.00     0.009 C
HETATM   10  C19 UNL     1      21.250  16.955  -6.022  1.00  0.00     0.020 C
HETATM   11  C20 UNL     1      20.533  16.220  -4.927  1.00  0.00     0.080 C
HETATM   12  C21 UNL     1      19.755  15.150  -5.660  1.00  0.00     0.139 C
HETATM   13  O3  UNL     1      19.233  14.258  -5.009  1.00  0.00    -0.297 OA
HETATM   14  C22 UNL     1      19.804  15.435  -7.035  1.00  0.00     0.070 A
HETATM   15  C23 UNL     1      19.637  17.888  -7.578  1.00  0.00     0.023 C
HETATM   16  C24 UNL     1      20.585  18.890  -8.283  1.00  0.00     0.013 C
HETATM   17  C25 UNL     1      18.394  17.944  -8.353  1.00  0.00     0.134 C
ENDROOT
BRANCH   4  18
HETATM   18  O1  UNL     1      17.477  13.543  -7.223  1.00  0.00    -0.298 OA
BRANCH  18  19
HETATM   19  C7  UNL     1      16.337  12.805  -7.246  1.00  0.00     0.361 C
HETATM   20  O2  UNL     1      15.982  12.422  -6.111  1.00  0.00    -0.238 OA
HETATM   21  N1  UNL     1      15.576  12.467  -8.388  1.00  0.00    -0.332 N
ATOM     22  H1  UNL     1      15.902  12.802  -9.295  1.00  0.00     0.165 HD
BRANCH  21  23
HETATM   23  C8  UNL     1      14.376  11.685  -8.358  1.00  0.00     0.086 A
HETATM   24  C9  UNL     1      13.648  11.551  -9.676  1.00  0.00     0.027 A
HETATM   25  C10 UNL     1      14.263  10.382  -9.017  1.00  0.00     0.027 A
ENDBRANCH  21  23
ENDBRANCH  18  19
ENDBRANCH   4  18
BRANCH   1  26
HETATM   26  C2  UNL     1      16.292  18.135  -7.141  1.00  0.00    -0.025 C
HETATM   27  C1  UNL     1      16.322  18.226  -5.849  1.00  0.00     0.008 C
ENDBRANCH   1  26
BRANCH  17  28
HETATM   28  O4  UNL     1      18.604  18.094  -9.761  1.00  0.00    -0.394 OA
ATOM     29  H4  UNL     1      18.394  18.952 -10.109  1.00  0.00     0.210 HD
ENDBRANCH  17  28
BRANCH   7  30
HETATM   30  C13 UNL     1      22.779  14.398  -7.621  1.00  0.00     0.277 C
BRANCH  30  31
HETATM   31  C14 UNL     1      23.789  15.531  -7.448  1.00  0.00     0.014 A
HETATM   32  C15 UNL     1      25.173  15.252  -7.040  1.00  0.00     0.007 A
HETATM   33  C16 UNL     1      24.247  15.890  -6.060  1.00  0.00     0.007 A
ENDBRANCH  30  31
ENDBRANCH   7  30
TORSDOF 7
ENDMDL