MODEL 4
REMARK VINA RESULT: -6.687805845      3.042      5.835
REMARK  8 active torsions:
REMARK  status: ('A' for Active; 'I' for Inactive)
REMARK       I    between atoms: C2_2  and  N1_4
REMARK    1  A    between atoms: N1_4  and  C3_6
REMARK    2  A    between atoms: C3_6  and  C4_7
REMARK    3  A    between atoms: N2_12  and  C9_13
REMARK    4  A    between atoms: C9_13  and  N3_14
REMARK    5  A    between atoms: C9_13  and  C14_19
REMARK    6  A    between atoms: N3_14  and  C10_15
REMARK    7  A    between atoms: C14_19  and  N4_21
REMARK       I    between atoms: N4_21  and  C16_23
REMARK    8  A    between atoms: C16_23  and  C17_25
ROOT
HETATM    1  C9  UNL     1      17.716  14.625  -6.989  1.00  0.00     0.174 C
ENDROOT
BRANCH   1   2
HETATM    2  N2  UNL     1      18.813  15.421  -7.566  1.00  0.00    -0.338 N
HETATM    3  C8  UNL     1      18.582  16.837  -7.560  1.00  0.00     0.130 C
HETATM    4  C7  UNL     1      19.258  17.403  -8.794  1.00  0.00     0.020 C
HETATM    5  C6  UNL     1      20.710  17.645  -8.360  1.00  0.00     0.002 C
HETATM    6  C5  UNL     1      21.531  16.462  -8.684  1.00  0.00     0.011 C
HETATM    7  C4  UNL     1      21.274  15.216  -7.959  1.00  0.00     0.042 C
HETATM    8  C21 UNL     1      19.888  14.650  -8.036  1.00  0.00     0.072 C
BRANCH   7   9
HETATM    9  C3  UNL     1      21.682  15.226  -6.507  1.00  0.00     0.132 C
BRANCH   9  10
HETATM   10  N1  UNL     1      22.930  15.883  -6.237  1.00  0.00    -0.361 N
HETATM   11  C2  UNL     1      24.199  15.345  -6.441  1.00  0.00     0.213 C
HETATM   12  C1  UNL     1      25.402  16.174  -6.111  1.00  0.00     0.117 C
HETATM   13  O1  UNL     1      24.406  14.185  -6.896  1.00  0.00    -0.274 OA
ATOM     14  H1  UNL     1      22.883  16.830  -5.861  1.00  0.00     0.162 HD
ENDBRANCH   9  10
ENDBRANCH   7   9
ENDBRANCH   1   2
BRANCH   1  15
HETATM   15  N3  UNL     1      16.929  14.153  -7.758  1.00  0.00    -0.422 NA
BRANCH  15  16
HETATM   16  C10 UNL     1      15.824  13.600  -8.303  1.00  0.00     0.084 C
HETATM   17  C11 UNL     1      15.998  12.526  -9.390  1.00  0.00     0.053 C
HETATM   18  C12 UNL     1      15.022  14.691  -9.055  1.00  0.00     0.053 C
HETATM   19  C13 UNL     1      14.844  12.961  -7.317  1.00  0.00     0.053 C
ENDBRANCH  15  16
ENDBRANCH   1  15
BRANCH   1  20
HETATM   20  C14 UNL     1      17.665  14.525  -5.521  1.00  0.00     0.163 C
HETATM   21  C15 UNL     1      16.660  15.517  -4.930  1.00  0.00     0.041 C
BRANCH  20  22
HETATM   22  N4  UNL     1      17.442  13.231  -4.954  1.00  0.00    -0.343 N
HETATM   23  C16 UNL     1      18.562  12.291  -4.785  1.00  0.00     0.276 C
HETATM   24  O2  UNL     1      19.642  12.706  -5.152  1.00  0.00    -0.265 OA
ATOM     25  H4  UNL     1      16.503  12.959  -4.664  1.00  0.00     0.163 HD
BRANCH  23  26
HETATM   26  C17 UNL     1      18.148  10.960  -4.169  1.00  0.00     0.142 A
HETATM   27  N5  UNL     1      17.329  11.711  -2.993  1.00  0.00    -0.349 N
HETATM   28  C18 UNL     1      16.744  11.093  -2.140  1.00  0.00     0.013 A
ATOM     29  H5  UNL     1      17.307  12.732  -2.973  1.00  0.00     0.166 HD
HETATM   30  C19 UNL     1      15.941  11.709  -0.973  1.00  0.00     0.068 C
HETATM   31  C20 UNL     1      16.792   9.714  -2.192  1.00  0.00     0.076 A
HETATM   32  S1  UNL     1      17.724   9.595  -3.537  1.00  0.00    -0.077 SA
ENDBRANCH  23  26
ENDBRANCH  20  22
ENDBRANCH   1  20
TORSDOF 8
ENDMDL