MODEL 5
REMARK VINA RESULT: -6.100665664      2.721      3.683
REMARK  7 active torsions:
REMARK  status: ('A' for Active; 'I' for Inactive)
REMARK    1  A    between atoms: C2_2  and  N1_3
REMARK    2  A    between atoms: N1_3  and  C3_4
REMARK    3  A    between atoms: N1_3  and  C5_6
REMARK    4  A    between atoms: C5_6  and  C6_8
REMARK    5  A    between atoms: C14_17  and  C15_18
REMARK       I    between atoms: C15_18  and  N2_20
REMARK    6  A    between atoms: N2_20  and  C16_22
REMARK    7  A    between atoms: C23_30  and  O3_31
ROOT
HETATM    1  C16 UNL     1      24.946  16.584  -5.860  1.00  0.00     0.188 C
HETATM    2  C17 UNL     1      26.060  15.576  -6.012  1.00  0.00     0.048 C
HETATM    3  C18 UNL     1      25.156  17.274  -4.564  1.00  0.00     0.084 C
HETATM    4  N3  UNL     1      25.318  17.828  -3.557  1.00  0.00    -0.195 NA
ENDROOT
BRANCH   1   5
HETATM    5  N2  UNL     1      23.637  15.964  -5.816  1.00  0.00    -0.344 N
HETATM    6  C15 UNL     1      22.966  15.484  -6.963  1.00  0.00     0.223 C
HETATM    7  O2  UNL     1      23.551  15.610  -8.069  1.00  0.00    -0.273 OA
ATOM      8  H2  UNL     1      23.175  15.870  -4.910  1.00  0.00     0.163 HD
BRANCH   6   9
HETATM    9  C14 UNL     1      21.654  14.866  -6.859  1.00  0.00     0.086 C
HETATM   10  C13 UNL     1      21.210  14.128  -8.073  1.00  0.00     0.015 C
HETATM   11  C12 UNL     1      19.706  14.118  -8.001  1.00  0.00     0.007 C
HETATM   12  C11 UNL     1      19.331  14.909  -6.768  1.00  0.00     0.001 C
HETATM   13  C10 UNL     1      17.991  15.534  -6.841  1.00  0.00     0.026 C
HETATM   14  C19 UNL     1      20.504  15.798  -6.575  1.00  0.00    -0.028 C
HETATM   15  C9  UNL     1      17.212  15.395  -5.543  1.00  0.00     0.015 C
HETATM   16  C23 UNL     1      17.923  16.931  -7.382  1.00  0.00     0.078 C
HETATM   17  C8  UNL     1      15.730  15.421  -5.892  1.00  0.00     0.080 C
HETATM   18  C7  UNL     1      15.584  16.563  -6.842  1.00  0.00     0.140 C
HETATM   19  C6  UNL     1      16.678  17.565  -6.816  1.00  0.00     0.151 C
HETATM   20  O1  UNL     1      14.625  16.618  -7.556  1.00  0.00    -0.297 OA
HETATM   21  C22 UNL     1      19.149  17.734  -7.115  1.00  0.00     0.040 C
HETATM   22  C21 UNL     1      20.372  16.946  -7.521  1.00  0.00     0.013 C
HETATM   23  C20 UNL     1      20.677  16.253  -5.139  1.00  0.00     0.016 C
BRANCH  19  24
HETATM   24  C5  UNL     1      16.248  18.822  -7.485  1.00  0.00     0.090 C
HETATM   25  S1  UNL     1      15.832  18.751  -9.052  1.00  0.00    -0.065 SA
BRANCH  24  26
HETATM   26  N1  UNL     1      16.197  20.022  -6.793  1.00  0.00    -0.375 N
BRANCH  26  27
HETATM   27  C2  UNL     1      15.396  20.134  -5.543  1.00  0.00     0.119 C
HETATM   28  C1  UNL     1      16.304  20.446  -4.372  1.00  0.00     0.026 C
ENDBRANCH  26  27
BRANCH  26  29
HETATM   29  C3  UNL     1      16.845  21.236  -7.128  1.00  0.00     0.119 C
HETATM   30  C4  UNL     1      18.296  21.290  -7.381  1.00  0.00     0.026 C
ENDBRANCH  26  29
ENDBRANCH  24  26
ENDBRANCH  19  24
BRANCH  16  31
HETATM   31  O3  UNL     1      17.746  16.813  -8.767  1.00  0.00    -0.388 OA
ATOM     32  H3  UNL     1      18.548  16.458  -9.130  1.00  0.00     0.210 HD
ENDBRANCH  16  31
ENDBRANCH   6   9
ENDBRANCH   1   5
TORSDOF 7
ENDMDL