MODEL 4
REMARK VINA RESULT: -6.352368339      6.113      9.180
REMARK  8 active torsions:
REMARK  status: ('A' for Active; 'I' for Inactive)
REMARK    1  A    between atoms: C2_2  and  C4_4
REMARK    2  A    between atoms: C4_4  and  N1_5
REMARK    3  A    between atoms: C4_4  and  C10_14
REMARK       I    between atoms: N1_5  and  C5_7
REMARK    4  A    between atoms: C5_7  and  O2_9
REMARK    5  A    between atoms: O2_9  and  C6_10
REMARK       I    between atoms: C10_14  and  N2_16
REMARK    6  A    between atoms: N3_19  and  C13_20
REMARK    7  A    between atoms: C13_20  and  C14_21
REMARK       I    between atoms: C14_21  and  N4_23
REMARK    8  A    between atoms: N4_23  and  C15_25
ROOT
HETATM    1  C10 UNL     1      17.380  17.009  -6.470  1.00  0.00     0.243 C
HETATM    2  O3  UNL     1      16.738  17.408  -5.430  1.00  0.00    -0.271 OA
HETATM    3  N2  UNL     1      17.442  17.908  -7.536  1.00  0.00    -0.339 N
HETATM    4  C11 UNL     1      18.113  17.610  -8.769  1.00  0.00     0.141 C
HETATM    5  C12 UNL     1      19.167  18.643  -9.040  1.00  0.00     0.115 C
HETATM    6  N3  UNL     1      18.702  19.984  -8.684  1.00  0.00    -0.284 NA
HETATM    7  C19 UNL     1      17.247  20.012  -8.672  1.00  0.00     0.125 C
HETATM    8  C20 UNL     1      16.798  19.198  -7.441  1.00  0.00     0.040 C
HETATM    9  C21 UNL     1      17.176  19.984  -6.229  1.00  0.00     0.039 C
HETATM   10  C22 UNL     1      15.292  19.088  -7.552  1.00  0.00     0.039 C
ENDROOT
BRANCH   1  11
HETATM   11  C4  UNL     1      17.949  15.658  -6.375  1.00  0.00     0.182 C
BRANCH  11  12
HETATM   12  C2  UNL     1      17.470  14.668  -7.387  1.00  0.00     0.009 C
HETATM   13  C1  UNL     1      17.764  13.279  -6.804  1.00  0.00     0.012 C
HETATM   14  C3  UNL     1      16.031  14.696  -7.732  1.00  0.00     0.012 C
ENDBRANCH  11  12
BRANCH  11  15
HETATM   15  N1  UNL     1      19.391  15.816  -6.656  1.00  0.00    -0.323 N
HETATM   16  C5  UNL     1      20.378  15.440  -5.734  1.00  0.00     0.362 C
HETATM   17  O1  UNL     1      19.996  14.954  -4.637  1.00  0.00    -0.238 OA
ATOM     18  H1  UNL     1      19.677  16.211  -7.552  1.00  0.00     0.165 HD
BRANCH  16  19
HETATM   19  O2  UNL     1      21.731  15.565  -5.938  1.00  0.00    -0.294 OA
BRANCH  19  20
HETATM   20  C6  UNL     1      22.419  15.351  -7.132  1.00  0.00     0.061 C
HETATM   21  C7  UNL     1      23.918  15.198  -6.837  1.00  0.00     0.046 C
HETATM   22  C8  UNL     1      21.981  14.080  -7.851  1.00  0.00     0.046 C
HETATM   23  C9  UNL     1      22.297  16.485  -8.123  1.00  0.00     0.046 C
ENDBRANCH  19  20
ENDBRANCH  16  19
ENDBRANCH  11  15
ENDBRANCH   1  11
BRANCH   6  24
HETATM   24  C13 UNL     1      19.234  20.858  -9.688  1.00  0.00     0.134 C
BRANCH  24  25
HETATM   25  C14 UNL     1      20.639  21.197  -9.608  1.00  0.00     0.252 C
HETATM   26  O4  UNL     1      21.290  21.117  -8.551  1.00  0.00    -0.268 OA
HETATM   27  N4  UNL     1      21.320  21.645 -10.783  1.00  0.00    -0.349 N
ATOM     28  H4  UNL     1      20.809  21.719 -11.663  1.00  0.00     0.163 HD
BRANCH  27  29
HETATM   29  C15 UNL     1      22.719  21.991 -10.742  1.00  0.00     0.022 C
HETATM   30  C16 UNL     1      23.020  22.742  -9.448  1.00  0.00     0.037 C
HETATM   31  C17 UNL     1      23.597  20.754 -10.759  1.00  0.00     0.037 C
HETATM   32  C18 UNL     1      23.044  22.882 -11.917  1.00  0.00     0.037 C
ENDBRANCH  27  29
ENDBRANCH  24  25
ENDBRANCH   6  24
TORSDOF 8
ENDMDL