MODEL 2
REMARK VINA RESULT: -8.102352891      2.024      2.922
REMARK  5 active torsions:
REMARK  status: ('A' for Active; 'I' for Inactive)
REMARK       I    between atoms: C1_2  and  N1_3
REMARK    1  A    between atoms: C1_2  and  C9_12
REMARK    2  A    between atoms: N1_3  and  C2_5
REMARK    3  A    between atoms: N2_15  and  S1_16
REMARK    4  A    between atoms: S1_16  and  C12_19
REMARK    5  A    between atoms: N4_24  and  C15_26
ROOT
HETATM    1  C9  UNL     1      18.089  12.378  -5.590  1.00  0.00     0.080 C
HETATM    2  C10 UNL     1      19.462  12.909  -5.945  1.00  0.00     0.029 C
HETATM    3  C11 UNL     1      19.290  13.693  -7.246  1.00  0.00     0.108 C
HETATM    4  N2  UNL     1      18.356  14.799  -7.052  1.00  0.00    -0.206 NA
HETATM    5  C18 UNL     1      17.905  14.883  -5.699  1.00  0.00     0.108 C
HETATM    6  C19 UNL     1      17.245  13.611  -5.241  1.00  0.00     0.029 C
ENDROOT
BRANCH   4   7
HETATM    7  S1  UNL     1      19.170  16.229  -7.529  1.00  0.00     0.251 S
HETATM    8  O2  UNL     1      18.513  17.392  -6.853  1.00  0.00    -0.205 OA
HETATM    9  O3  UNL     1      19.015  16.389  -9.003  1.00  0.00    -0.205 OA
BRANCH   7  10
HETATM   10  C12 UNL     1      20.853  16.187  -7.044  1.00  0.00     0.134 A
HETATM   11  C13 UNL     1      21.351  16.432  -5.800  1.00  0.00     0.122 A
HETATM   12  N3  UNL     1      22.653  16.352  -5.631  1.00  0.00    -0.345 N
HETATM   13  C14 UNL     1      23.428  16.041  -6.656  1.00  0.00     0.146 A
ATOM     14  H3  UNL     1      23.063  16.528  -4.713  1.00  0.00     0.167 HD
HETATM   15  N4  UNL     1      24.701  15.899  -6.761  1.00  0.00    -0.366 N
HETATM   16  S2  UNL     1      22.264  15.848  -7.938  1.00  0.00    -0.040 SA
ATOM     17  H4  UNL     1      25.003  15.651  -7.704  1.00  0.00     0.162 HD
BRANCH  15  18
HETATM   18  C15 UNL     1      25.758  16.013  -5.854  1.00  0.00     0.083 A
HETATM   19  C16 UNL     1      25.907  17.039  -4.799  1.00  0.00     0.027 A
HETATM   20  C17 UNL     1      26.889  16.959  -5.925  1.00  0.00     0.027 A
ENDBRANCH  15  18
ENDBRANCH   7  10
ENDBRANCH   4   7
BRANCH   1  21
HETATM   21  C1  UNL     1      18.109  11.403  -4.506  1.00  0.00     0.222 C
HETATM   22  O1  UNL     1      19.140  10.702  -4.314  1.00  0.00    -0.273 OA
HETATM   23  N1  UNL     1      17.021  11.171  -3.617  1.00  0.00    -0.356 N
ATOM     24  H1  UNL     1      16.171  11.720  -3.744  1.00  0.00     0.162 HD
BRANCH  23  25
HETATM   25  C2  UNL     1      17.052  10.211  -2.555  1.00  0.00     0.084 C
HETATM   26  C3  UNL     1      16.755   8.807  -3.023  1.00  0.00     0.025 C
HETATM   27  C4  UNL     1      16.388   7.883  -1.911  1.00  0.00     0.002 C
HETATM   28  C5  UNL     1      17.222   8.040  -0.677  1.00  0.00     0.000 C
HETATM   29  C6  UNL     1      16.581   8.944   0.355  1.00  0.00     0.000 C
HETATM   30  C7  UNL     1      16.763  10.385  -0.065  1.00  0.00     0.002 C
HETATM   31  C8  UNL     1      16.172  10.651  -1.430  1.00  0.00     0.025 C
ENDBRANCH  23  25
ENDBRANCH   1  21
TORSDOF 5
ENDMDL