MODEL 1
REMARK VINA RESULT: -8.313909841      0.000      0.000
REMARK  6 active torsions:
REMARK  status: ('A' for Active; 'I' for Inactive)
REMARK    1  A    between atoms: C2_2  and  N1_3
REMARK       I    between atoms: N1_3  and  C4_5
REMARK       I    between atoms: C4_5  and  N2_7
REMARK    2  A    between atoms: N2_7  and  C5_9
REMARK    3  A    between atoms: C5_9  and  C6_10
REMARK    4  A    between atoms: C9_13  and  C10_14
REMARK       I    between atoms: C10_14  and  N3_16
REMARK    5  A    between atoms: N3_16  and  C11_18
REMARK    6  A    between atoms: C12_23  and  C13_24
ROOT
HETATM    1  C10 UNL     1      20.491  14.235  -6.349  1.00  0.00     0.227 C
HETATM    2  O2  UNL     1      20.852  14.738  -5.268  1.00  0.00    -0.273 OA
HETATM    3  N3  UNL     1      20.503  12.834  -6.576  1.00  0.00    -0.306 N
ATOM      4  H3  UNL     1      21.046  12.442  -7.346  1.00  0.00     0.171 HD
ENDROOT
BRANCH   1   5
HETATM    5  C9  UNL     1      20.034  15.161  -7.434  1.00  0.00     0.078 C
HETATM    6  C8  UNL     1      18.658  15.665  -7.153  1.00  0.00     0.014 C
HETATM    7  C7  UNL     1      18.405  17.083  -7.612  1.00  0.00     0.007 C
HETATM    8  C6  UNL     1      19.313  17.553  -8.699  1.00  0.00     0.003 C
HETATM    9  C20 UNL     1      20.761  17.247  -8.521  1.00  0.00     0.007 C
HETATM   10  C19 UNL     1      21.067  16.283  -7.453  1.00  0.00     0.014 C
BRANCH   8  11
HETATM   11  C5  UNL     1      19.196  19.037  -8.867  1.00  0.00     0.129 C
BRANCH  11  12
HETATM   12  N2  UNL     1      20.249  19.641  -9.626  1.00  0.00    -0.343 N
HETATM   13  C4  UNL     1      20.914  20.738  -9.036  1.00  0.00     0.317 C
HETATM   14  N1  UNL     1      21.974  21.413  -9.644  1.00  0.00    -0.339 N
HETATM   15  O1  UNL     1      20.536  21.125  -7.891  1.00  0.00    -0.247 OA
HETATM   16  C3  UNL     1      22.633  22.534  -8.925  1.00  0.00     0.154 C
ATOM     17  H2  UNL     1      20.506  19.296 -10.551  1.00  0.00     0.164 HD
BRANCH  14  18
HETATM   18  C2  UNL     1      22.497  21.102 -10.952  1.00  0.00     0.122 C
HETATM   19  C1  UNL     1      23.969  20.784 -10.927  1.00  0.00     0.026 C
ENDBRANCH  14  18
ENDBRANCH  11  12
ENDBRANCH   8  11
ENDBRANCH   1   5
BRANCH   3  20
HETATM   20  C11 UNL     1      19.810  12.047  -5.792  1.00  0.00     0.167 A
HETATM   21  N4  UNL     1      20.040  10.775  -5.455  1.00  0.00    -0.279 N
HETATM   22  N5  UNL     1      19.229  10.202  -4.666  1.00  0.00    -0.295 N
ATOM     23  H4  UNL     1      20.849  10.277  -5.824  1.00  0.00     0.189 HD
HETATM   24  C12 UNL     1      18.190  10.818  -4.181  1.00  0.00     0.078 A
ATOM     25  H5  UNL     1      19.395   9.230  -4.404  1.00  0.00     0.187 HD
HETATM   26  S1  UNL     1      18.367  12.378  -4.917  1.00  0.00    -0.037 SA
BRANCH  24  27
HETATM   27  C13 UNL     1      17.108  10.339  -3.240  1.00  0.00     0.011 C
HETATM   28  C14 UNL     1      15.958   9.959  -4.189  1.00  0.00     0.022 C
HETATM   29  C15 UNL     1      16.731  11.483  -2.375  1.00  0.00     0.042 C
HETATM   30  C16 UNL     1      16.385  11.131  -0.950  1.00  0.00     0.168 C
HETATM   31  O3  UNL     1      17.124  10.078  -0.448  1.00  0.00    -0.391 OA
HETATM   32  C17 UNL     1      16.779   8.967  -1.240  1.00  0.00     0.168 C
HETATM   33  C18 UNL     1      17.554   9.109  -2.537  1.00  0.00     0.042 C
ENDBRANCH  24  27
ENDBRANCH   3  20
TORSDOF 6
ENDMDL