MODEL 5
REMARK VINA RESULT: -8.242292460      1.713      2.627
REMARK  5 active torsions:
REMARK  status: ('A' for Active; 'I' for Inactive)
REMARK    1  A    between atoms: N2_5  and  C3_6
REMARK    2  A    between atoms: C8_11  and  S1_12
REMARK    3  A    between atoms: S1_12  and  N3_15
REMARK    4  A    between atoms: N3_15  and  C9_17
REMARK       I    between atoms: N4_20  and  C12_21
REMARK       I    between atoms: C12_21  and  N5_23
REMARK    5  A    between atoms: N5_23  and  C13_25
ROOT
HETATM    1  C9  UNL     1      19.909  13.149  -5.630  1.00  0.00     0.096 C
HETATM    2  C10 UNL     1      18.562  13.830  -5.792  1.00  0.00     0.045 C
HETATM    3  C11 UNL     1      17.438  12.785  -5.764  1.00  0.00     0.129 C
HETATM    4  N4  UNL     1      17.712  11.742  -4.795  1.00  0.00    -0.334 N
HETATM    5  C12 UNL     1      16.779  11.389  -3.794  1.00  0.00     0.318 C
HETATM    6  O3  UNL     1      15.685  12.005  -3.753  1.00  0.00    -0.247 OA
HETATM    7  N5  UNL     1      17.065  10.381  -2.873  1.00  0.00    -0.338 N
ATOM      8  H5  UNL     1      17.970   9.920  -2.960  1.00  0.00     0.164 HD
HETATM    9  C20 UNL     1      18.986  11.035  -4.855  1.00  0.00     0.129 C
HETATM   10  C21 UNL     1      19.781  11.656  -5.984  1.00  0.00     0.045 C
ENDROOT
BRANCH   1  11
HETATM   11  N3  UNL     1      20.964  13.786  -6.289  1.00  0.00    -0.310 N
ATOM     12  H3  UNL     1      21.560  13.239  -6.911  1.00  0.00     0.172 HD
BRANCH  11  13
HETATM   13  S1  UNL     1      21.280  15.408  -6.093  1.00  0.00     0.263 S
HETATM   14  O1  UNL     1      20.647  16.310  -7.117  1.00  0.00    -0.200 OA
HETATM   15  O2  UNL     1      20.831  15.955  -4.748  1.00  0.00    -0.200 OA
BRANCH  13  16
HETATM   16  C8  UNL     1      22.999  15.709  -6.202  1.00  0.00     0.126 A
HETATM   17  C2  UNL     1      23.811  15.037  -7.116  1.00  0.00     0.047 A
HETATM   18  C1  UNL     1      23.400  14.006  -8.129  1.00  0.00     0.071 C
HETATM   19  N1  UNL     1      25.051  15.509  -6.896  1.00  0.00    -0.301 N
HETATM   20  N2  UNL     1      25.072  16.409  -5.933  1.00  0.00    -0.291 N
ATOM     21  H1  UNL     1      25.877  15.207  -7.413  1.00  0.00     0.187 HD
HETATM   22  C6  UNL     1      23.790  16.551  -5.481  1.00  0.00     0.050 A
HETATM   23  C7  UNL     1      23.382  17.457  -4.387  1.00  0.00     0.072 C
BRANCH  20  24
HETATM   24  C3  UNL     1      26.220  17.137  -5.418  1.00  0.00     0.100 C
HETATM   25  C4  UNL     1      27.283  17.197  -6.503  1.00  0.00     0.034 C
HETATM   26  C5  UNL     1      26.856  16.457  -4.231  1.00  0.00     0.034 C
ENDBRANCH  20  24
ENDBRANCH  13  16
ENDBRANCH  11  13
ENDBRANCH   1  11
BRANCH   7  27
HETATM   27  C13 UNL     1      16.196   9.931  -1.805  1.00  0.00     0.086 C
HETATM   28  C14 UNL     1      17.000   9.181  -0.771  1.00  0.00     0.026 C
HETATM   29  C15 UNL     1      16.271   7.903  -0.410  1.00  0.00     0.007 C
HETATM   30  C16 UNL     1      16.282   7.020  -1.661  1.00  0.00    -0.010 A
HETATM   31  C17 UNL     1      14.955   6.482  -2.119  1.00  0.00     0.010 A
HETATM   32  C18 UNL     1      15.576   7.710  -2.774  1.00  0.00    -0.008 A
HETATM   33  C19 UNL     1      15.086   9.066  -2.373  1.00  0.00     0.030 C
ENDBRANCH   7  27
TORSDOF 5
ENDMDL