MODEL 4
REMARK VINA RESULT: -7.235885367      3.451      9.225
REMARK  6 active torsions:
REMARK  status: ('A' for Active; 'I' for Inactive)
REMARK    1  A    between atoms: C2_2  and  C3_3
REMARK    2  A    between atoms: C3_3  and  C4_4
REMARK    3  A    between atoms: C8_10  and  N2_11
REMARK       I    between atoms: N2_11  and  C9_13
REMARK       I    between atoms: C9_13  and  N3_15
REMARK    4  A    between atoms: N3_15  and  C10_17
REMARK    5  A    between atoms: C10_17  and  C11_18
REMARK    6  A    between atoms: C11_18  and  N4_19
ROOT
HETATM    1  N2  UNL     1      20.214  11.864  -5.834  1.00  0.00    -0.289 N
ATOM      2  H2  UNL     1      20.962  11.233  -6.119  1.00  0.00     0.172 HD
HETATM    3  C9  UNL     1      20.234  13.157  -6.348  1.00  0.00     0.322 C
HETATM    4  O1  UNL     1      19.136  13.707  -6.592  1.00  0.00    -0.247 OA
HETATM    5  N3  UNL     1      21.495  13.799  -6.576  1.00  0.00    -0.332 N
ATOM      6  H3  UNL     1      22.353  13.294  -6.353  1.00  0.00     0.165 HD
ENDROOT
BRANCH   1   7
HETATM    7  C8  UNL     1      19.312  11.399  -5.016  1.00  0.00     0.153 A
HETATM    8  N1  UNL     1      18.302  11.959  -4.371  1.00  0.00    -0.339 N
HETATM    9  C7  UNL     1      17.530  11.208  -3.601  1.00  0.00     0.024 A
ATOM     10  H1  UNL     1      18.120  12.958  -4.467  1.00  0.00     0.168 HD
HETATM   11  C6  UNL     1      16.326  11.712  -2.795  1.00  0.00     0.058 C
HETATM   12  C20 UNL     1      17.832   9.879  -3.519  1.00  0.00     0.009 A
HETATM   13  C5  UNL     1      16.255  10.823  -1.588  1.00  0.00     0.011 C
HETATM   14  C4  UNL     1      15.818   9.445  -2.160  1.00  0.00    -0.009 C
HETATM   15  C21 UNL     1      17.076   8.867  -2.702  1.00  0.00     0.053 C
HETATM   16  S1  UNL     1      19.194   9.751  -4.536  1.00  0.00    -0.056 SA
BRANCH  14  17
HETATM   17  C3  UNL     1      15.161   8.737  -1.047  1.00  0.00     0.004 C
BRANCH  17  18
HETATM   18  C2  UNL     1      15.902   7.690  -0.320  1.00  0.00    -0.004 C
HETATM   19  C1  UNL     1      16.452   8.131   0.994  1.00  0.00     0.005 C
ENDBRANCH  17  18
ENDBRANCH  14  17
ENDBRANCH   1   7
BRANCH   5  20
HETATM   20  C10 UNL     1      21.587  15.111  -7.102  1.00  0.00     0.065 C
HETATM   21  C16 UNL     1      20.911  15.240  -8.482  1.00  0.00     0.059 C
HETATM   22  C17 UNL     1      19.964  16.403  -8.514  1.00  0.00     0.170 C
HETATM   23  O3  UNL     1      20.560  17.578  -8.068  1.00  0.00    -0.391 OA
HETATM   24  C18 UNL     1      20.823  17.475  -6.716  1.00  0.00     0.170 C
HETATM   25  C19 UNL     1      20.823  16.078  -6.184  1.00  0.00     0.059 C
BRANCH  20  26
HETATM   26  C11 UNL     1      22.961  15.701  -7.224  1.00  0.00     0.303 C
BRANCH  26  27
HETATM   27  N4  UNL     1      23.823  15.615  -6.109  1.00  0.00     0.095 N
HETATM   28  C12 UNL     1      25.159  15.220  -6.618  1.00  0.00     0.298 C
HETATM   29  C13 UNL     1      26.007  16.445  -6.862  1.00  0.00     0.198 C
HETATM   30  O2  UNL     1      26.431  16.970  -5.632  1.00  0.00    -0.388 OA
HETATM   31  C14 UNL     1      25.435  16.763  -4.664  1.00  0.00     0.198 C
HETATM   32  C15 UNL     1      24.056  16.795  -5.341  1.00  0.00     0.298 C
ENDBRANCH  26  27
ENDBRANCH  20  26
ENDBRANCH   5  20
TORSDOF 6
ENDMDL