MODEL 2
REMARK VINA RESULT: -8.876814330      3.867      6.953
REMARK  11 active torsions:
REMARK  status: ('A' for Active; 'I' for Inactive)
REMARK    1  A    between atoms: N1_1  and  C1_4
REMARK    2  A    between atoms: N5_17  and  C6_18
REMARK    3  A    between atoms: C6_18  and  C7_19
REMARK    4  A    between atoms: C7_19  and  C8_20
REMARK    5  A    between atoms: C8_20  and  C9_21
REMARK    6  A    between atoms: C9_21  and  N6_22
REMARK    7  A    between atoms: C9_21  and  C16_36
REMARK    8  A    between atoms: N6_22  and  C10_24
REMARK    9  A    between atoms: C13_27  and  N7_28
REMARK   10  A    between atoms: C15_32  and  N8_33
REMARK   11  A    between atoms: N12_46  and  N13_47
ROOT
HETATM    1  C7  UNL     1      22.386  -1.690   2.631  1.00  0.00     0.023 C
ENDROOT
BRANCH   1   2
HETATM    2  C6  UNL     1      22.251  -0.689   1.513  1.00  0.00     0.149 C
BRANCH   2   3
HETATM    3  N5  UNL     1      21.152   0.235   1.667  1.00  0.00    -0.167 N
HETATM    4  C2  UNL     1      21.319   1.411   2.308  1.00  0.00     0.160 A
HETATM    5  N2  UNL     1      22.527   1.783   2.748  1.00  0.00    -0.173 N
HETATM    6  C3  UNL     1      20.203   2.230   2.477  1.00  0.00     0.148 A
HETATM    7  C1  UNL     1      22.630   2.987   3.369  1.00  0.00     0.701 A
ATOM      8  H2  UNL     1      23.342   1.184   2.623  1.00  0.00     0.186 HD
HETATM    9  N12 UNL     1      21.569   3.791   3.544  1.00  0.00    -0.054 N
HETATM   10  C18 UNL     1      20.355   3.455   3.119  1.00  0.00     0.301 A
HETATM   11  O6  UNL     1      19.329   4.168   3.255  1.00  0.00    -0.264 OA
HETATM   12  C4  UNL     1      18.994   1.829   1.997  1.00  0.00     0.279 A
HETATM   13  O1  UNL     1      18.012   2.599   2.172  1.00  0.00    -0.266 OA
HETATM   14  N3  UNL     1      18.898   0.652   1.371  1.00  0.00    -0.155 N
HETATM   15  C5  UNL     1      19.931  -0.166   1.183  1.00  0.00     0.682 A
ATOM     16  H3  UNL     1      17.985   0.365   1.018  1.00  0.00     0.187 HD
HETATM   17  N4  UNL     1      19.881  -1.300   0.583  1.00  0.00    -0.234 N
ATOM     18  H42 UNL     1      18.974  -1.597   0.223  1.00  0.00     0.174 HD
ATOM     19  H41 UNL     1      20.672  -1.926   0.439  1.00  0.00     0.174 HD
BRANCH   7  20
HETATM   20  N1  UNL     1      23.784   3.357   3.798  1.00  0.00    -0.233 N
ATOM     21  H12 UNL     1      24.572   2.713   3.742  1.00  0.00     0.174 HD
ATOM     22  H11 UNL     1      23.879   4.296   4.186  1.00  0.00     0.174 HD
ENDBRANCH   7  20
BRANCH   9  23
HETATM   23  N13 UNL     1      21.737   5.034   4.197  1.00  0.00    -0.321 N
ATOM     24 2H13 UNL     1      22.685   5.359   4.391  1.00  0.00     0.178 HD
ATOM     25 1H13 UNL     1      20.916   5.578   4.461  1.00  0.00     0.178 HD
ENDBRANCH   9  23
ENDBRANCH   2   3
ENDBRANCH   1   2
BRANCH   1  26
HETATM   26  C8  UNL     1      22.391  -3.113   2.242  1.00  0.00     0.034 C
BRANCH  26  27
HETATM   27  C9  UNL     1      23.181  -3.992   3.194  1.00  0.00     0.151 C
BRANCH  27  28
HETATM   28  N6  UNL     1      24.619  -3.782   2.968  1.00  0.00    -0.376 N
ATOM     29  H6  UNL     1      24.941  -3.694   2.004  1.00  0.00     0.160 HD
BRANCH  28  30
HETATM   30  C10 UNL     1      25.573  -3.695   3.982  1.00  0.00     0.062 A
HETATM   31  C11 UNL     1      26.040  -2.423   4.361  1.00  0.00     0.034 A
HETATM   32  C12 UNL     1      26.972  -2.257   5.371  1.00  0.00     0.038 A
HETATM   33  C13 UNL     1      27.459  -3.346   6.021  1.00  0.00     0.105 A
HETATM   34  C14 UNL     1      27.030  -4.597   5.680  1.00  0.00     0.074 A
HETATM   35  C15 UNL     1      26.069  -4.774   4.640  1.00  0.00     0.131 A
BRANCH  33  36
HETATM   36  N7  UNL     1      28.431  -3.227   7.081  1.00  0.00    -0.116 N
HETATM   37  O2  UNL     1      29.394  -2.439   6.977  1.00  0.00    -0.532 OA
HETATM   38  O3  UNL     1      28.325  -3.973   8.225  1.00  0.00    -0.532 OA
ENDBRANCH  33  36
BRANCH  35  39
HETATM   39  N8  UNL     1      25.694  -6.094   4.372  1.00  0.00    -0.113 N
HETATM   40  O4  UNL     1      25.966  -6.581   3.229  1.00  0.00    -0.532 OA
HETATM   41  O5  UNL     1      25.064  -6.908   5.228  1.00  0.00    -0.532 OA
ENDBRANCH  35  39
ENDBRANCH  28  30
ENDBRANCH  27  28
BRANCH  27  42
HETATM   42  C16 UNL     1      22.915  -5.425   2.933  1.00  0.00     0.120 A
HETATM   43  N9  UNL     1      22.252  -6.299   3.709  1.00  0.00    -0.338 N
HETATM   44  C17 UNL     1      22.243  -7.515   3.142  1.00  0.00     0.198 A
ATOM     45  H9  UNL     1      21.817  -6.071   4.602  1.00  0.00     0.168 HD
HETATM   46  N10 UNL     1      22.917  -7.387   1.989  1.00  0.00    -0.295 N
HETATM   47  N11 UNL     1      23.320  -6.127   1.864  1.00  0.00    -0.286 N
ATOM     48  H10 UNL     1      23.090  -8.134   1.317  1.00  0.00     0.187 HD
ATOM     49  H11 UNL     1      23.854  -5.753   1.080  1.00  0.00     0.188 HD
ENDBRANCH  27  42
ENDBRANCH  26  27
ENDBRANCH   1  26
TORSDOF 11
ENDMDL