MODEL 4
REMARK VINA RESULT: -8.588727441      2.427      9.267
REMARK  12 active torsions:
REMARK  status: ('A' for Active; 'I' for Inactive)
REMARK    1  A    between atoms: C2_2  and  O1_3
REMARK    2  A    between atoms: O1_3  and  C3_4
REMARK    3  A    between atoms: C3_4  and  C4_6
REMARK    4  A    between atoms: N2_11  and  C7_12
REMARK    5  A    between atoms: C8_15  and  N4_16
REMARK    6  A    between atoms: N4_16  and  C9_18
REMARK    7  A    between atoms: C9_18  and  C10_19
REMARK    8  A    between atoms: C10_19  and  N5_20
REMARK    9  A    between atoms: N5_20  and  C11_22
REMARK   10  A    between atoms: C12_25  and  N7_26
REMARK   11  A    between atoms: C13_30  and  N9_31
REMARK   12  A    between atoms: C15_43  and  C16_44
ROOT
HETATM    1  C7  UNL     1      26.900  -4.033   4.587  1.00  0.00     0.706 A
HETATM    2  N3  UNL     1      25.924  -3.357   3.962  1.00  0.00    -0.022 N
ATOM      3  H3  UNL     1      25.429  -3.801   3.189  1.00  0.00     0.203 HD
HETATM    4  C8  UNL     1      25.583  -2.107   4.330  1.00  0.00     0.694 A
HETATM    5  N13 UNL     1      26.227  -1.521   5.343  1.00  0.00    -0.175 N
ATOM      6  H13 UNL     1      25.968  -0.575   5.622  1.00  0.00     0.186 HD
HETATM    7  C15 UNL     1      27.221  -2.161   6.008  1.00  0.00     0.148 A
HETATM    8  N15 UNL     1      27.526  -3.385   5.615  1.00  0.00    -0.174 N
ATOM      9  H15 UNL     1      28.271  -3.876   6.108  1.00  0.00     0.186 HD
ENDROOT
BRANCH   4  10
HETATM   10  N4  UNL     1      24.623  -1.481   3.694  1.00  0.00    -0.224 N
ATOM     11  H4  UNL     1      24.691  -0.475   3.541  1.00  0.00     0.177 HD
BRANCH  10  12
HETATM   12  C9  UNL     1      23.479  -2.199   3.209  1.00  0.00     0.158 C
BRANCH  12  13
HETATM   13  C10 UNL     1      22.723  -1.449   2.150  1.00  0.00     0.158 C
BRANCH  13  14
HETATM   14  N5  UNL     1      22.520  -0.054   2.434  1.00  0.00    -0.224 N
ATOM     15  H5  UNL     1      23.268   0.426   2.935  1.00  0.00     0.177 HD
BRANCH  14  16
HETATM   16  C11 UNL     1      21.398   0.714   2.091  1.00  0.00     0.707 A
HETATM   17  N6  UNL     1      20.246   0.131   1.742  1.00  0.00    -0.021 N
HETATM   18  C12 UNL     1      19.150   0.813   1.406  1.00  0.00     0.727 A
ATOM     19  H6  UNL     1      20.203  -0.888   1.732  1.00  0.00     0.203 HD
HETATM   20  N8  UNL     1      19.178   2.172   1.413  1.00  0.00     0.202 N
HETATM   21  C13 UNL     1      18.263   3.111   1.132  1.00  0.00     0.727 A
HETATM   22  C14 UNL     1      20.337   2.807   1.764  1.00  0.00     0.748 A
HETATM   23  N10 UNL     1      18.866   4.331   1.313  1.00  0.00    -0.117 N
HETATM   24  N11 UNL     1      20.104   4.130   1.690  1.00  0.00    -0.116 N
ATOM     25  H10 UNL     1      18.425   5.241   1.177  1.00  0.00     0.206 HD
ATOM     26  H11 UNL     1      20.784   4.862   1.895  1.00  0.00     0.206 HD
HETATM   27  N12 UNL     1      21.411   2.071   2.092  1.00  0.00    -0.019 N
ATOM     28  H12 UNL     1      22.272   2.552   2.352  1.00  0.00     0.203 HD
BRANCH  18  29
HETATM   29  N7  UNL     1      18.052   0.179   1.074  1.00  0.00    -0.233 N
ATOM     30  H72 UNL     1      18.094  -0.794   0.770  1.00  0.00     0.174 HD
ATOM     31  H71 UNL     1      17.150   0.654   1.116  1.00  0.00     0.174 HD
ENDBRANCH  18  29
BRANCH  21  32
HETATM   32  N9  UNL     1      17.062   2.959   0.768  1.00  0.00    -0.232 N
ATOM     33  H92 UNL     1      16.271   3.456   1.179  1.00  0.00     0.174 HD
ATOM     34  H91 UNL     1      16.689   2.350   0.040  1.00  0.00     0.174 HD
ENDBRANCH  21  32
ENDBRANCH  14  16
ENDBRANCH  13  14
ENDBRANCH  12  13
ENDBRANCH  10  12
ENDBRANCH   4  10
BRANCH   1  35
HETATM   35  N2  UNL     1      27.311  -5.351   4.251  1.00  0.00    -0.135 N
HETATM   36  C4  UNL     1      26.544  -6.359   3.789  1.00  0.00     0.204 A
HETATM   37  N1  UNL     1      27.303  -7.448   3.591  1.00  0.00    -0.345 N
HETATM   38  C5  UNL     1      28.552  -7.161   3.920  1.00  0.00     0.108 A
ATOM     39  H1  UNL     1      26.971  -8.349   3.244  1.00  0.00     0.167 HD
HETATM   40  C6  UNL     1      28.566  -5.847   4.336  1.00  0.00     0.134 A
BRANCH  36  41
HETATM   41  C3  UNL     1      25.101  -6.216   3.557  1.00  0.00     0.328 C
HETATM   42  O2  UNL     1      24.601  -6.383   2.419  1.00  0.00    -0.256 OA
BRANCH  41  43
HETATM   43  O1  UNL     1      24.225  -5.892   4.582  1.00  0.00    -0.316 OA
BRANCH  43  44
HETATM   44  C2  UNL     1      22.921  -6.434   4.670  1.00  0.00     0.175 C
HETATM   45  C1  UNL     1      21.845  -5.469   4.303  1.00  0.00     0.034 C
ENDBRANCH  43  44
ENDBRANCH  41  43
ENDBRANCH  36  41
ENDBRANCH   1  35
BRANCH   7  46
HETATM   46  C16 UNL     1      27.921  -1.526   7.103  1.00  0.00     0.024 A
HETATM   47  C17 UNL     1      27.294  -1.480   8.354  1.00  0.00     0.018 A
HETATM   48  C18 UNL     1      27.923  -0.885   9.423  1.00  0.00     0.018 A
HETATM   49  C19 UNL     1      29.175  -0.329   9.280  1.00  0.00     0.087 A
HETATM   50  N14 UNL     1      29.771  -0.376   8.084  1.00  0.00    -0.374 N
HETATM   51  C20 UNL     1      29.152  -0.966   7.014  1.00  0.00     0.102 A
ATOM     52  H14 UNL     1      30.698   0.033   7.966  1.00  0.00     0.164 HD
ENDBRANCH   7  46
TORSDOF 12
ENDMDL