MODEL 4
REMARK VINA RESULT: -9.228524843      1.107      2.138
REMARK  11 active torsions:
REMARK  status: ('A' for Active; 'I' for Inactive)
REMARK    1  A    between atoms: N1_1  and  C1_4
REMARK    2  A    between atoms: C2_7  and  N3_8
REMARK    3  A    between atoms: C3_11  and  C4_12
REMARK       I    between atoms: C4_12  and  N4_14
REMARK    4  A    between atoms: C5_16  and  C6_17
REMARK    5  A    between atoms: C7_20  and  N6_21
REMARK    6  A    between atoms: C8_23  and  C9_24
REMARK    7  A    between atoms: C11_26  and  O4_27
REMARK    8  A    between atoms: C13_30  and  N7_31
REMARK    9  A    between atoms: C15_37  and  N9_38
REMARK   10  A    between atoms: N9_38  and  S1_40
REMARK   11  A    between atoms: S1_40  and  N10_41
ROOT
HETATM    1  C6  UNL     1      23.768  -1.974   2.835  1.00  0.00     0.166 C
HETATM    2  N5  UNL     1      22.723  -1.138   2.297  1.00  0.00    -0.349 N
ATOM      3  H5  UNL     1      22.703  -0.119   2.356  1.00  0.00     0.163 HD
HETATM    4  C7  UNL     1      21.799  -1.877   1.720  1.00  0.00     0.177 C
HETATM    5  N8  UNL     1      22.187  -3.264   1.857  1.00  0.00    -0.338 N
ATOM      6  H8  UNL     1      21.905  -4.043   1.261  1.00  0.00     0.164 HD
HETATM    7  C15 UNL     1      23.072  -3.322   3.033  1.00  0.00     0.224 C
ENDROOT
BRANCH   1   8
HETATM    8  C5  UNL     1      24.359  -1.515   4.084  1.00  0.00     0.093 C
HETATM    9  N4  UNL     1      25.659  -1.458   4.211  1.00  0.00    -0.333 N
HETATM   10  C4  UNL     1      26.198  -1.015   5.415  1.00  0.00     0.283 C
ATOM     11  H4  UNL     1      26.267  -1.734   3.440  1.00  0.00     0.168 HD
HETATM   12  O3  UNL     1      25.542  -0.066   5.998  1.00  0.00    -0.265 OA
BRANCH  10  13
HETATM   13  C3  UNL     1      27.395  -1.522   6.036  1.00  0.00     0.197 A
HETATM   14  C2  UNL     1      27.883  -2.760   6.281  1.00  0.00     0.216 A
HETATM   15  N2  UNL     1      29.101  -2.610   6.921  1.00  0.00    -0.301 N
HETATM   16  C1  UNL     1      29.284  -1.293   7.026  1.00  0.00     0.224 A
ATOM     17  H2  UNL     1      29.726  -3.349   7.244  1.00  0.00     0.171 HD
HETATM   18  O9  UNL     1      28.301  -0.652   6.516  1.00  0.00    -0.270 OA
BRANCH  14  19
HETATM   19  N3  UNL     1      27.325  -4.021   5.978  1.00  0.00    -0.095 N
HETATM   20  O1  UNL     1      27.435  -4.939   6.845  1.00  0.00    -0.530 OA
HETATM   21  O2  UNL     1      26.691  -4.334   4.860  1.00  0.00    -0.530 OA
ENDBRANCH  14  19
BRANCH  16  22
HETATM   22  N1  UNL     1      30.328  -0.729   7.577  1.00  0.00    -0.365 N
ATOM     23  H12 UNL     1      30.751  -1.031   8.455  1.00  0.00     0.159 HD
ATOM     24  H11 UNL     1      30.827   0.071   7.188  1.00  0.00     0.159 HD
ENDBRANCH  16  22
ENDBRANCH  10  13
ENDBRANCH   1   8
BRANCH   7  25
HETATM   25  N9  UNL     1      23.959  -4.437   2.977  1.00  0.00    -0.279 N
ATOM     26  H9  UNL     1      24.959  -4.387   2.784  1.00  0.00     0.176 HD
BRANCH  25  27
HETATM   27  S1  UNL     1      23.073  -5.883   3.287  1.00  0.00     0.314 S
HETATM   28  O7  UNL     1      21.576  -5.635   3.219  1.00  0.00    -0.183 OA
HETATM   29  O8  UNL     1      23.359  -6.401   4.684  1.00  0.00    -0.183 OA
BRANCH  27  30
HETATM   30  N10 UNL     1      23.432  -7.141   2.180  1.00  0.00    -0.312 N
ATOM     31 2H10 UNL     1      23.710  -6.961   1.215  1.00  0.00     0.170 HD
ATOM     32 1H10 UNL     1      23.338  -8.071   2.588  1.00  0.00     0.170 HD
ENDBRANCH  27  30
ENDBRANCH  25  27
ENDBRANCH   7  25
BRANCH   4  33
HETATM   33  N6  UNL     1      20.634  -1.490   1.083  1.00  0.00    -0.338 N
HETATM   34  C8  UNL     1      19.910  -0.512   0.959  1.00  0.00     0.102 C
ATOM     35  H6  UNL     1      20.258  -2.271   0.546  1.00  0.00     0.168 HD
BRANCH  34  36
HETATM   36  C9  UNL     1      20.007   0.832   1.516  1.00  0.00    -0.016 A
HETATM   37  C10 UNL     1      18.975   1.728   1.519  1.00  0.00     0.049 A
HETATM   38  C11 UNL     1      19.129   3.007   2.064  1.00  0.00     0.068 A
HETATM   39  C12 UNL     1      20.332   3.393   2.611  1.00  0.00     0.072 A
HETATM   40  C13 UNL     1      21.383   2.517   2.622  1.00  0.00     0.106 A
HETATM   41  C14 UNL     1      21.205   1.272   2.082  1.00  0.00     0.049 A
BRANCH  38  42
HETATM   42  O4  UNL     1      18.080   3.899   2.061  1.00  0.00    -0.361 OA
ATOM     43  H4  UNL     1      17.249   3.669   2.460  1.00  0.00     0.217 HD
ENDBRANCH  38  42
BRANCH  40  44
HETATM   44  N7  UNL     1      22.660   2.881   3.184  1.00  0.00    -0.116 N
HETATM   45  O5  UNL     1      23.575   2.037   3.219  1.00  0.00    -0.532 OA
HETATM   46  O6  UNL     1      22.909   4.114   3.679  1.00  0.00    -0.532 OA
ENDBRANCH  40  44
ENDBRANCH  34  36
ENDBRANCH   4  33
TORSDOF 11
ENDMDL