MODEL 1
REMARK VINA RESULT: -9.863765370      0.000      0.000
REMARK  12 active torsions:
REMARK  status: ('A' for Active; 'I' for Inactive)
REMARK    1  A    between atoms: N1_1  and  C1_4
REMARK    2  A    between atoms: C2_7  and  C3_8
REMARK    3  A    between atoms: C3_8  and  O1_9
REMARK    4  A    between atoms: O1_9  and  C4_10
REMARK    5  A    between atoms: C5_13  and  N4_14
REMARK    6  A    between atoms: C9_22  and  C10_23
REMARK    7  A    between atoms: C10_23  and  O3_25
REMARK    8  A    between atoms: O3_25  and  C11_26
REMARK    9  A    between atoms: C11_26  and  C12_27
REMARK   10  A    between atoms: C15_30  and  C16_31
REMARK   11  A    between atoms: C16_31  and  C17_32
REMARK   12  A    between atoms: C19_50  and  N14_51
ROOT
HETATM    1  C4  UNL     1      27.272  -4.050   4.927  1.00  0.00     0.187 A
HETATM    2  N3  UNL     1      28.209  -4.992   5.056  1.00  0.00    -0.168 N
ATOM      3  H3  UNL     1      29.045  -4.772   5.597  1.00  0.00     0.186 HD
HETATM    4  C5  UNL     1      28.105  -6.214   4.508  1.00  0.00     0.678 A
HETATM    5  N5  UNL     1      26.999  -6.493   3.799  1.00  0.00    -0.190 N
ATOM      6  H5  UNL     1      26.896  -7.415   3.374  1.00  0.00     0.184 HD
HETATM    7  C6  UNL     1      26.018  -5.576   3.637  1.00  0.00     0.080 A
HETATM    8  C7  UNL     1      24.884  -5.884   2.901  1.00  0.00     0.035 A
HETATM    9  C8  UNL     1      23.903  -4.919   2.759  1.00  0.00     0.038 A
HETATM   10  C9  UNL     1      24.022  -3.677   3.323  1.00  0.00     0.109 A
HETATM   11  N12 UNL     1      25.138  -3.421   4.027  1.00  0.00    -0.346 N
ATOM     12  H12 UNL     1      25.244  -2.501   4.454  1.00  0.00     0.166 HD
HETATM   13  C18 UNL     1      26.119  -4.324   4.195  1.00  0.00     0.112 A
ENDROOT
BRANCH  10  14
HETATM   14  C10 UNL     1      22.968  -2.671   3.157  1.00  0.00     0.310 C
HETATM   15  O2  UNL     1      21.929  -2.713   3.857  1.00  0.00    -0.258 OA
BRANCH  14  16
HETATM   16  O3  UNL     1      23.087  -1.661   2.235  1.00  0.00    -0.310 OA
BRANCH  16  17
HETATM   17  C11 UNL     1      22.124  -1.202   1.346  1.00  0.00     0.237 C
BRANCH  17  18
HETATM   18  C12 UNL     1      21.610   0.118   1.829  1.00  0.00     0.050 A
HETATM   19  C13 UNL     1      20.299   0.506   1.554  1.00  0.00     0.031 A
HETATM   20  C14 UNL     1      19.828   1.720   1.989  1.00  0.00     0.029 A
HETATM   21  C15 UNL     1      20.677   2.538   2.699  1.00  0.00     0.033 A
HETATM   22  N10 UNL     1      21.919   2.135   2.942  1.00  0.00    -0.304 N
HETATM   23  N11 UNL     1      22.350   0.982   2.523  1.00  0.00    -0.303 N
ATOM     24  H10 UNL     1      22.547   2.742   3.468  1.00  0.00     0.186 HD
ATOM     25  H11 UNL     1      23.314   0.724   2.738  1.00  0.00     0.186 HD
BRANCH  21  26
HETATM   26  C16 UNL     1      20.227   3.861   3.196  1.00  0.00     0.138 C
BRANCH  26  27
HETATM   27  C17 UNL     1      20.323   3.987   4.661  1.00  0.00     0.118 A
HETATM   28  N6  UNL     1      21.328   4.618   5.333  1.00  0.00    -0.272 N
HETATM   29  N7  UNL     1      21.071   4.527   6.645  1.00  0.00    -0.227 N
ATOM     30  H6  UNL     1      22.135   5.078   4.910  1.00  0.00     0.190 HD
HETATM   31  N8  UNL     1      19.944   3.863   6.795  1.00  0.00    -0.227 N
ATOM     32  H7  UNL     1      21.647   4.906   7.396  1.00  0.00     0.210 HD
HETATM   33  N9  UNL     1      19.488   3.535   5.599  1.00  0.00    -0.272 N
ATOM     34  H8  UNL     1      19.498   3.640   7.684  1.00  0.00     0.210 HD
ATOM     35  H9  UNL     1      18.629   3.015   5.419  1.00  0.00     0.190 HD
ENDBRANCH  26  27
ENDBRANCH  21  26
ENDBRANCH  17  18
ENDBRANCH  16  17
ENDBRANCH  14  16
ENDBRANCH  10  14
BRANCH   1  36
HETATM   36  O1  UNL     1      27.368  -2.797   5.484  1.00  0.00    -0.326 OA
BRANCH  36  37
HETATM   37  C3  UNL     1      28.461  -2.272   6.180  1.00  0.00     0.255 C
BRANCH  37  38
HETATM   38  C2  UNL     1      28.044  -1.975   7.570  1.00  0.00     0.137 A
HETATM   39  N2  UNL     1      27.004  -2.649   8.106  1.00  0.00    -0.178 N
HETATM   40  C1  UNL     1      26.585  -2.431   9.364  1.00  0.00     0.691 A
ATOM     41  H2  UNL     1      26.521  -3.346   7.538  1.00  0.00     0.185 HD
HETATM   42  N15 UNL     1      27.248  -1.507  10.075  1.00  0.00    -0.023 N
HETATM   43  C19 UNL     1      28.291  -0.816   9.570  1.00  0.00     0.691 A
ATOM     44  H15 UNL     1      26.953  -1.321  11.033  1.00  0.00     0.203 HD
HETATM   45  N13 UNL     1      28.693  -1.056   8.299  1.00  0.00    -0.178 N
ATOM     46  H13 UNL     1      29.481  -0.543   7.902  1.00  0.00     0.185 HD
BRANCH  40  47
HETATM   47  N1  UNL     1      25.603  -3.042   9.921  1.00  0.00    -0.234 N
ATOM     48  H12 UNL     1      25.191  -3.840   9.438  1.00  0.00     0.174 HD
ATOM     49  H11 UNL     1      25.198  -2.786  10.822  1.00  0.00     0.174 HD
ENDBRANCH  40  47
BRANCH  43  50
HETATM   50  N14 UNL     1      28.865   0.053  10.331  1.00  0.00    -0.234 N
ATOM     51 2H14 UNL     1      29.884   0.051  10.374  1.00  0.00     0.174 HD
ATOM     52 1H14 UNL     1      28.342   0.733  10.884  1.00  0.00     0.174 HD
ENDBRANCH  43  50
ENDBRANCH  37  38
ENDBRANCH  36  37
ENDBRANCH   1  36
BRANCH   4  53
HETATM   53  N4  UNL     1      29.038  -7.106   4.654  1.00  0.00    -0.234 N
ATOM     54  H42 UNL     1      29.397  -7.334   5.581  1.00  0.00     0.174 HD
ATOM     55  H41 UNL     1      29.436  -7.598   3.854  1.00  0.00     0.174 HD
ENDBRANCH   4  53
TORSDOF 12
ENDMDL