MODEL 5
REMARK VINA RESULT: -8.889382817      2.300      3.059
REMARK  13 active torsions:
REMARK  status: ('A' for Active; 'I' for Inactive)
REMARK    1  A    between atoms: N1_2  and  C2_3
REMARK    2  A    between atoms: N1_2  and  C6_9
REMARK    3  A    between atoms: C2_3  and  O1_4
REMARK    4  A    between atoms: C2_3  and  C3_6
REMARK    5  A    between atoms: C8_14  and  N4_15
REMARK    6  A    between atoms: N4_15  and  C9_17
REMARK    7  A    between atoms: C10_20  and  S1_21
REMARK    8  A    between atoms: S1_21  and  C11_22
REMARK    9  A    between atoms: C11_22  and  S2_23
REMARK   10  A    between atoms: S2_23  and  C12_24
REMARK   11  A    between atoms: C13_27  and  N7_28
REMARK   12  A    between atoms: C14_38  and  C15_39
REMARK   13  A    between atoms: C17_44  and  N13_45
ROOT
HETATM    1  C9  UNL     1      23.641  -4.256   3.093  1.00  0.00     0.156 A
HETATM    2  N5  UNL     1      23.455  -2.996   2.596  1.00  0.00    -0.319 N
ATOM      3  H5  UNL     1      24.285  -2.467   2.329  1.00  0.00     0.169 HD
HETATM    4  C10 UNL     1      22.279  -2.410   2.435  1.00  0.00     0.161 A
HETATM    5  N9  UNL     1      21.181  -3.115   2.788  1.00  0.00    -0.279 N
ATOM      6  H9  UNL     1      20.256  -2.698   2.678  1.00  0.00     0.189 HD
HETATM    7  N10 UNL     1      21.294  -4.337   3.274  1.00  0.00    -0.291 N
ATOM      8  H10 UNL     1      20.447  -4.843   3.532  1.00  0.00     0.187 HD
HETATM    9  C14 UNL     1      22.501  -4.946   3.443  1.00  0.00     0.158 A
ENDROOT
BRANCH   1  10
HETATM   10  N4  UNL     1      24.954  -4.783   3.233  1.00  0.00    -0.174 N
ATOM     11  H4  UNL     1      25.262  -5.565   2.655  1.00  0.00     0.186 HD
BRANCH  10  12
HETATM   12  C8  UNL     1      25.741  -4.261   4.092  1.00  0.00     0.688 A
HETATM   13  N3  UNL     1      25.907  -2.934   4.124  1.00  0.00    -0.176 N
HETATM   14  C7  UNL     1      26.741  -2.326   5.016  1.00  0.00     0.162 A
ATOM     15  H3  UNL     1      25.393  -2.357   3.458  1.00  0.00     0.185 HD
HETATM   16  C6  UNL     1      27.413  -3.145   5.895  1.00  0.00     0.122 A
HETATM   17  N2  UNL     1      26.872  -0.923   4.999  1.00  0.00    -0.080 NA
HETATM   18  C17 UNL     1      27.226  -4.503   5.845  1.00  0.00     0.147 A
HETATM   19  N12 UNL     1      26.390  -5.063   4.943  1.00  0.00    -0.170 N
HETATM   20  C16 UNL     1      26.226  -6.495   4.928  1.00  0.00     0.177 C
BRANCH  16  21
HETATM   21  N1  UNL     1      28.310  -2.531   6.857  1.00  0.00    -0.330 N
HETATM   22  C1  UNL     1      29.688  -2.529   6.471  1.00  0.00     0.158 C
BRANCH  21  23
HETATM   23  C2  UNL     1      27.753  -2.038   8.025  1.00  0.00     0.122 C
BRANCH  23  24
HETATM   24  O1  UNL     1      27.377  -0.783   8.018  1.00  0.00    -0.349 OA
ATOM     25  H1  UNL     1      27.687  -0.237   8.731  1.00  0.00     0.219 HD
ENDBRANCH  23  24
BRANCH  23  26
HETATM   26  C3  UNL     1      27.511  -2.716   9.302  1.00  0.00     0.060 A
HETATM   27  C4  UNL     1      27.290  -2.028  10.604  1.00  0.00     0.013 A
HETATM   28  C5  UNL     1      26.152  -2.738   9.946  1.00  0.00     0.013 A
ENDBRANCH  23  26
ENDBRANCH  21  23
ENDBRANCH  16  21
BRANCH  18  29
HETATM   29  N13 UNL     1      27.862  -5.290   6.671  1.00  0.00    -0.383 N
ATOM     30 2H13 UNL     1      27.716  -5.160   7.672  1.00  0.00     0.157 HD
ATOM     31 1H13 UNL     1      28.483  -6.018   6.318  1.00  0.00     0.157 HD
ENDBRANCH  18  29
ENDBRANCH  10  12
ENDBRANCH   1  10
BRANCH   9  32
HETATM   32  C15 UNL     1      22.587  -6.297   3.963  1.00  0.00     0.286 C
HETATM   33  N11 UNL     1      23.123  -7.359   3.214  1.00  0.00    -0.056 NA
HETATM   34  O3  UNL     1      22.167  -6.542   5.132  1.00  0.00    -0.269 OA
ENDBRANCH   9  32
BRANCH   4  35
HETATM   35  S1  UNL     1      22.036  -0.774   1.765  1.00  0.00    -0.082 SA
BRANCH  35  36
HETATM   36  C11 UNL     1      20.223  -0.583   1.558  1.00  0.00     0.165 C
BRANCH  36  37
HETATM   37  S2  UNL     1      19.937   1.112   0.977  1.00  0.00    -0.073 SA
BRANCH  37  38
HETATM   38  C12 UNL     1      20.896   2.205   1.996  1.00  0.00     0.224 A
HETATM   39  N6  UNL     1      20.590   2.688   3.204  1.00  0.00    -0.161 N
HETATM   40  C13 UNL     1      21.593   3.482   3.624  1.00  0.00     0.698 A
ATOM     41  H6  UNL     1      19.735   2.488   3.723  1.00  0.00     0.187 HD
HETATM   42  N8  UNL     1      22.506   3.462   2.636  1.00  0.00    -0.089 N
HETATM   43  O2  UNL     1      22.066   2.691   1.674  1.00  0.00    -0.197 OA
ATOM     44  H8  UNL     1      23.394   3.963   2.637  1.00  0.00     0.213 HD
BRANCH  40  45
HETATM   45  N7  UNL     1      21.668   4.119   4.721  1.00  0.00    -0.233 N
ATOM     46  H72 UNL     1      21.113   3.960   5.562  1.00  0.00     0.174 HD
ATOM     47  H71 UNL     1      22.292   4.894   4.948  1.00  0.00     0.174 HD
ENDBRANCH  40  45
ENDBRANCH  37  38
ENDBRANCH  36  37
ENDBRANCH  35  36
ENDBRANCH   4  35
TORSDOF 13
ENDMDL