MODEL 2
REMARK VINA RESULT: -8.373867452      0.935      1.172
REMARK  16 active torsions:
REMARK  status: ('A' for Active; 'I' for Inactive)
REMARK    1  A    between atoms: O1_2  and  C2_3
REMARK    2  A    between atoms: C2_3  and  C3_5
REMARK    3  A    between atoms: C6_9  and  C7_10
REMARK    4  A    between atoms: C7_10  and  O4_14
REMARK    5  A    between atoms: O4_14  and  C8_15
REMARK    6  A    between atoms: C8_15  and  C9_20
REMARK    7  A    between atoms: N2_16  and  O5_18
REMARK    8  A    between atoms: C9_20  and  C13_32
REMARK    9  A    between atoms: N3_21  and  N4_23
REMARK   10  A    between atoms: N4_23  and  C10_25
REMARK   11  A    between atoms: C10_25  and  O6_26
REMARK   12  A    between atoms: C10_25  and  C11_28
REMARK   13  A    between atoms: C11_28  and  O8_30
REMARK   14  A    between atoms: C13_32  and  N5_33
REMARK   15  A    between atoms: C13_32  and  C16_38
REMARK       I    between atoms: N5_33  and  C14_35
REMARK   16  A    between atoms: C18_41  and  N6_42
ROOT
HETATM    1  C9  UNL     1      25.077  -3.545   3.715  1.00  0.00     0.107 C
HETATM    2  N3  UNL     1      25.680  -4.596   3.307  1.00  0.00    -0.300 N
ATOM      3  H3  UNL     1      25.078  -5.302   2.883  1.00  0.00     0.186 HD
ENDROOT
BRANCH   1   4
HETATM    4  C8  UNL     1      25.873  -2.486   4.333  1.00  0.00     0.196 C
HETATM    5  N2  UNL     1      25.414  -1.320   4.394  1.00  0.00    -0.245 N
ATOM      6  H2  UNL     1      24.482  -1.263   3.984  1.00  0.00     0.196 HD
BRANCH   4   7
HETATM    7  O4  UNL     1      27.157  -2.731   4.865  1.00  0.00    -0.271 OA
BRANCH   7   8
HETATM    8  C7  UNL     1      27.342  -2.805   6.232  1.00  0.00     0.179 C
HETATM    9  N1  UNL     1      26.675  -3.758   6.828  1.00  0.00    -0.377 N
ATOM     10  H12 UNL     1      26.811  -3.813   7.837  1.00  0.00     0.158 HD
ATOM     11  H11 UNL     1      26.080  -4.365   6.263  1.00  0.00     0.158 HD
BRANCH   8  12
HETATM   12  C6  UNL     1      28.180  -1.950   7.028  1.00  0.00     0.142 A
HETATM   13  C3  UNL     1      28.172  -1.642   8.359  1.00  0.00     0.079 A
HETATM   14  C4  UNL     1      29.232  -0.743   8.586  1.00  0.00     0.045 A
HETATM   15  C5  UNL     1      29.810  -0.572   7.356  1.00  0.00     0.144 A
HETATM   16  O3  UNL     1      29.191  -1.277   6.462  1.00  0.00    -0.317 OA
BRANCH  13  17
HETATM   17  C2  UNL     1      27.291  -2.113   9.399  1.00  0.00     0.295 C
HETATM   18  O2  UNL     1      26.049  -2.105   9.375  1.00  0.00    -0.259 OA
BRANCH  17  19
HETATM   19  O1  UNL     1      27.855  -2.643  10.576  1.00  0.00    -0.322 OA
HETATM   20  C1  UNL     1      27.697  -1.989  11.817  1.00  0.00     0.213 C
ENDBRANCH  17  19
ENDBRANCH  13  17
ENDBRANCH   8  12
ENDBRANCH   7   8
ENDBRANCH   4   7
BRANCH   5  21
HETATM   21  O5  UNL     1      25.814  -0.147   4.848  1.00  0.00    -0.288 OA
ATOM     22  H5  UNL     1      26.270   0.612   4.506  1.00  0.00     0.244 HD
ENDBRANCH   5  21
ENDBRANCH   1   4
BRANCH   1  23
HETATM   23  C13 UNL     1      23.626  -3.458   3.532  1.00  0.00     0.191 C
BRANCH  23  24
HETATM   24  N5  UNL     1      23.243  -2.805   2.311  1.00  0.00    -0.346 N
HETATM   25  C14 UNL     1      22.060  -2.048   2.258  1.00  0.00     0.214 C
HETATM   26  C15 UNL     1      21.636  -1.358   1.005  1.00  0.00     0.117 C
HETATM   27  O9  UNL     1      21.341  -1.946   3.280  1.00  0.00    -0.274 OA
ATOM     28  H5  UNL     1      23.831  -2.889   1.481  1.00  0.00     0.163 HD
ENDBRANCH  23  24
BRANCH  23  29
HETATM   29  C16 UNL     1      22.991  -4.849   3.569  1.00  0.00     0.047 A
HETATM   30  C17 UNL     1      22.038  -5.151   4.509  1.00  0.00     0.080 A
HETATM   31  S1  UNL     1      21.664  -6.770   4.148  1.00  0.00    -0.064 SA
HETATM   32  C18 UNL     1      22.728  -6.983   2.832  1.00  0.00     0.142 A
HETATM   33  N7  UNL     1      23.323  -5.798   2.730  1.00  0.00    -0.338 N
ATOM     34  H7  UNL     1      24.026  -5.632   2.011  1.00  0.00     0.168 HD
BRANCH  32  35
HETATM   35  N6  UNL     1      22.933  -8.049   2.080  1.00  0.00    -0.380 N
ATOM     36  H62 UNL     1      22.988  -9.020   2.386  1.00  0.00     0.158 HD
ATOM     37  H61 UNL     1      23.075  -8.115   1.073  1.00  0.00     0.158 HD
ENDBRANCH  32  35
ENDBRANCH  23  29
ENDBRANCH   1  23
BRANCH   2  38
HETATM   38  N4  UNL     1      27.003  -4.920   3.349  1.00  0.00    -0.299 N
ATOM     39  H4  UNL     1      27.656  -4.287   2.887  1.00  0.00     0.183 HD
BRANCH  38  40
HETATM   40  C10 UNL     1      27.559  -6.092   3.997  1.00  0.00     0.334 C
BRANCH  40  41
HETATM   41  O6  UNL     1      27.743  -7.114   3.070  1.00  0.00    -0.367 OA
ATOM     42  H6  UNL     1      27.353  -7.920   3.387  1.00  0.00     0.212 HD
ENDBRANCH  40  41
BRANCH  40  43
HETATM   43  C11 UNL     1      26.698  -6.595   5.082  1.00  0.00     0.308 C
HETATM   44  O7  UNL     1      25.569  -7.073   4.839  1.00  0.00    -0.260 OA
BRANCH  43  45
HETATM   45  O8  UNL     1      27.135  -6.540   6.385  1.00  0.00    -0.323 OA
HETATM   46  C12 UNL     1      28.482  -6.565   6.780  1.00  0.00     0.213 C
ENDBRANCH  43  45
ENDBRANCH  40  43
ENDBRANCH  38  40
ENDBRANCH   2  38
TORSDOF 16
ENDMDL