MODEL 2
REMARK VINA RESULT: -8.749380837      1.313      1.444
REMARK  9 active torsions:
REMARK  status: ('A' for Active; 'I' for Inactive)
REMARK       I    between atoms: C2_2  and  N1_4
REMARK    1  A    between atoms: C6_11  and  N2_12
REMARK       I    between atoms: N2_12  and  C7_14
REMARK       I    between atoms: C7_14  and  N3_15
REMARK       I    between atoms: C7_14  and  N4_19
REMARK    2  A    between atoms: N4_19  and  C8_21
REMARK    3  A    between atoms: C8_21  and  C9_22
REMARK    4  A    between atoms: C8_21  and  C17_39
REMARK    5  A    between atoms: C9_22  and  C10_24
REMARK    6  A    between atoms: C11_29  and  N7_30
REMARK    7  A    between atoms: N7_30  and  C12_31
REMARK    8  A    between atoms: C17_39  and  O3_40
REMARK    9  A    between atoms: N9_42  and  O4_44
ROOT
HETATM    1  C8  UNL     1      23.856  -4.496   3.567  1.00  0.00     0.137 C
ENDROOT
BRANCH   1   2
HETATM    2  N4  UNL     1      25.005  -3.758   3.928  1.00  0.00    -0.340 N
HETATM    3  C7  UNL     1      26.281  -4.135   3.429  1.00  0.00     0.383 C
HETATM    4  N2  UNL     1      27.268  -3.347   4.113  1.00  0.00    -0.365 N
HETATM    5  N3  UNL     1      26.620  -5.475   3.311  1.00  0.00    -0.041 N
ATOM      6  H2  UNL     1      27.688  -2.521   3.687  1.00  0.00     0.158 HD
ATOM      7  H33 UNL     1      27.532  -5.577   2.868  1.00  0.00     0.279 HD
ATOM      8  H32 UNL     1      26.828  -5.875   4.225  1.00  0.00     0.279 HD
ATOM      9  H31 UNL     1      25.919  -6.035   2.825  1.00  0.00     0.279 HD
ATOM     10  H4  UNL     1      24.918  -2.953   4.548  1.00  0.00     0.163 HD
BRANCH   4  11
HETATM   11  C6  UNL     1      27.617  -3.769   5.383  1.00  0.00     0.178 C
HETATM   12  C3  UNL     1      28.940  -4.368   5.633  1.00  0.00     0.027 C
HETATM   13  N1  UNL     1      29.999  -4.292   4.954  1.00  0.00    -0.332 N
HETATM   14  C4  UNL     1      28.821  -5.083   6.967  1.00  0.00     0.135 C
HETATM   15  C2  UNL     1      31.252  -4.841   5.291  1.00  0.00     0.217 C
ATOM     16  H1  UNL     1      29.943  -3.782   4.072  1.00  0.00     0.168 HD
HETATM   17  C1  UNL     1      32.274  -4.134   6.101  1.00  0.00     0.117 C
HETATM   18  O1  UNL     1      31.582  -6.013   4.903  1.00  0.00    -0.274 OA
HETATM   19  S1  UNL     1      28.076  -3.660   7.905  1.00  0.00    -0.114 SA
HETATM   20  C5  UNL     1      27.449  -2.773   6.491  1.00  0.00     0.073 C
HETATM   21  S2  UNL     1      26.934  -1.492   6.417  1.00  0.00    -0.075 SA
ENDBRANCH   4  11
ENDBRANCH   1   2
BRANCH   1  22
HETATM   22  C9  UNL     1      22.980  -3.989   2.544  1.00  0.00     0.237 C
HETATM   23  O2  UNL     1      22.448  -4.781   1.703  1.00  0.00    -0.283 OA
BRANCH  22  24
HETATM   24  C10 UNL     1      22.595  -2.578   2.330  1.00  0.00     0.146 A
HETATM   25  N5  UNL     1      23.224  -1.489   2.718  1.00  0.00    -0.288 N
HETATM   26  N6  UNL     1      22.795  -0.346   2.487  1.00  0.00    -0.267 N
ATOM     27  H5  UNL     1      24.100  -1.588   3.231  1.00  0.00     0.188 HD
HETATM   28  C11 UNL     1      21.616  -0.212   1.800  1.00  0.00     0.241 A
ATOM     29  H6  UNL     1      23.309   0.477   2.803  1.00  0.00     0.190 HD
HETATM   30  S3  UNL     1      21.245  -1.903   1.551  1.00  0.00    -0.014 SA
BRANCH  28  31
HETATM   31  N7  UNL     1      21.057   0.803   1.497  1.00  0.00    -0.361 NA
BRANCH  31  32
HETATM   32  C12 UNL     1      20.298   1.840   1.406  1.00  0.00     0.181 A
HETATM   33  C13 UNL     1      19.078   1.864   0.687  1.00  0.00     0.064 A
HETATM   34  C14 UNL     1      18.308   2.996   0.625  1.00  0.00     0.006 A
HETATM   35  C15 UNL     1      18.734   4.133   1.277  1.00  0.00     0.017 A
HETATM   36  C16 UNL     1      19.915   4.128   1.980  1.00  0.00     0.090 A
HETATM   37  N8  UNL     1      20.639   3.025   2.024  1.00  0.00    -0.341 N
ATOM     38  H8  UNL     1      21.511   3.050   2.552  1.00  0.00     0.167 HD
ENDBRANCH  31  32
ENDBRANCH  28  31
ENDBRANCH  22  24
ENDBRANCH   1  22
BRANCH   1  39
HETATM   39  C17 UNL     1      24.172  -5.932   3.557  1.00  0.00     0.191 C
HETATM   40  N9  UNL     1      24.366  -6.462   4.747  1.00  0.00    -0.245 N
ATOM     41  H9  UNL     1      24.290  -5.873   5.577  1.00  0.00     0.196 HD
BRANCH  39  42
HETATM   42  O3  UNL     1      24.284  -6.767   2.491  1.00  0.00    -0.343 OA
ATOM     43  H3  UNL     1      25.072  -7.059   2.048  1.00  0.00     0.219 HD
ENDBRANCH  39  42
BRANCH  40  44
HETATM   44  O4  UNL     1      24.670  -7.798   4.891  1.00  0.00    -0.288 OA
ATOM     45  H4  UNL     1      25.245  -8.099   5.584  1.00  0.00     0.244 HD
ENDBRANCH  40  44
ENDBRANCH   1  39
TORSDOF 9
ENDMDL