MODEL 4
REMARK VINA RESULT: -9.401821711      1.872      2.743
REMARK  8 active torsions:
REMARK  status: ('A' for Active; 'I' for Inactive)
REMARK    1  A    between atoms: C2_2  and  C3_3
REMARK    2  A    between atoms: C3_3  and  C4_4
REMARK    3  A    between atoms: C3_3  and  N1_6
REMARK    4  A    between atoms: N1_6  and  C5_8
REMARK    5  A    between atoms: C6_9  and  C7_10
REMARK       I    between atoms: C7_10  and  N2_12
REMARK       I    between atoms: N2_12  and  C8_14
REMARK    6  A    between atoms: C12_24  and  N6_25
REMARK    7  A    between atoms: C14_27  and  C15_28
REMARK    8  A    between atoms: C16_29  and  O3_30
ROOT
HETATM    1  C5  UNL     1      19.964   2.669   2.249  1.00  0.00     0.158 A
HETATM    2  C6  UNL     1      19.104   3.237   1.358  1.00  0.00     0.148 A
HETATM    3  N5  UNL     1      18.776   2.247   0.447  1.00  0.00    -0.333 N
ATOM      4  H5  UNL     1      18.147   2.349  -0.349  1.00  0.00     0.168 HD
HETATM    5  C9  UNL     1      19.425   1.140   0.793  1.00  0.00     0.130 A
HETATM    6  C10 UNL     1      19.411  -0.127   0.170  1.00  0.00     0.054 A
HETATM    7  C11 UNL     1      20.187  -1.092   0.756  1.00  0.00     0.056 A
HETATM    8  C12 UNL     1      20.943  -0.859   1.884  1.00  0.00     0.143 A
HETATM    9  N11 UNL     1      20.903   0.364   2.410  1.00  0.00    -0.274 N
ATOM     10  H11 UNL     1      21.456   0.558   3.244  1.00  0.00     0.189 HD
HETATM   11  N12 UNL     1      20.161   1.350   1.883  1.00  0.00    -0.220 N
ENDROOT
BRANCH   8  12
HETATM   12  N6  UNL     1      21.746  -1.910   2.464  1.00  0.00    -0.233 N
HETATM   13  C13 UNL     1      23.077  -1.901   2.659  1.00  0.00     0.152 A
HETATM   14  C14 UNL     1      23.466  -3.109   3.245  1.00  0.00     0.087 A
HETATM   15  N9  UNL     1      22.316  -3.796   3.374  1.00  0.00    -0.283 N
HETATM   16  N10 UNL     1      21.311  -3.070   2.907  1.00  0.00    -0.234 N
ATOM     17  H9  UNL     1      22.231  -4.733   3.770  1.00  0.00     0.188 HD
ATOM     18  H10 UNL     1      20.335  -3.368   2.892  1.00  0.00     0.209 HD
BRANCH  14  19
HETATM   19  C15 UNL     1      24.823  -3.496   3.617  1.00  0.00     0.112 A
HETATM   20  C16 UNL     1      25.627  -2.597   4.300  1.00  0.00     0.162 A
HETATM   21  N7  UNL     1      26.892  -2.949   4.650  1.00  0.00    -0.288 N
HETATM   22  C17 UNL     1      27.373  -4.166   4.340  1.00  0.00     0.329 A
ATOM     23  H7  UNL     1      27.481  -2.285   5.152  1.00  0.00     0.172 HD
HETATM   24  O4  UNL     1      28.561  -4.492   4.670  1.00  0.00    -0.247 OA
HETATM   25  N8  UNL     1      26.619  -5.074   3.673  1.00  0.00    -0.275 N
HETATM   26  C18 UNL     1      25.372  -4.722   3.330  1.00  0.00     0.266 A
ATOM     27  H8  UNL     1      26.989  -5.995   3.440  1.00  0.00     0.173 HD
HETATM   28  O5  UNL     1      24.663  -5.553   2.712  1.00  0.00    -0.267 OA
BRANCH  20  29
HETATM   29  O3  UNL     1      25.170  -1.339   4.637  1.00  0.00    -0.345 OA
ATOM     30  H3  UNL     1      25.609  -0.556   4.327  1.00  0.00     0.219 HD
ENDBRANCH  20  29
ENDBRANCH  14  19
ENDBRANCH   8  12
BRANCH   1  31
HETATM   31  N1  UNL     1      20.522   3.162   3.438  1.00  0.00    -0.361 N
ATOM     32  H1  UNL     1      20.676   2.429   4.130  1.00  0.00     0.162 HD
BRANCH  31  33
HETATM   33  C3  UNL     1      20.923   4.440   3.904  1.00  0.00     0.152 C
BRANCH  33  34
HETATM   34  C2  UNL     1      22.450   4.375   4.301  1.00  0.00    -0.017 A
HETATM   35  C1  UNL     1      22.757   5.030   5.621  1.00  0.00     0.018 C
HETATM   36  C19 UNL     1      23.393   4.745   3.155  1.00  0.00     0.012 A
HETATM   37  C20 UNL     1      23.282   3.314   3.723  1.00  0.00     0.012 A
ENDBRANCH  33  34
BRANCH  33  38
HETATM   38  C4  UNL     1      20.284   4.679   5.250  1.00  0.00     0.256 C
HETATM   39  O1  UNL     1      19.109   4.614   5.466  1.00  0.00    -0.305 OA
ENDBRANCH  33  38
ENDBRANCH  31  33
ENDBRANCH   1  31
BRANCH   2  40
HETATM   40  C7  UNL     1      18.620   4.594   1.187  1.00  0.00     0.278 C
HETATM   41  O2  UNL     1      18.218   5.320   2.067  1.00  0.00    -0.265 OA
HETATM   42  N2  UNL     1      18.611   5.135  -0.164  1.00  0.00    -0.296 N
HETATM   43  C8  UNL     1      18.145   6.448  -0.384  1.00  0.00     0.188 C
ATOM     44  H2  UNL     1      18.939   4.569  -0.947  1.00  0.00     0.171 HD
HETATM   45  N3  UNL     1      18.147   6.894  -1.573  1.00  0.00    -0.373 N
HETATM   46  N4  UNL     1      17.683   7.270   0.670  1.00  0.00    -0.064 NA
ATOM     47  H32 UNL     1      18.481   6.302  -2.333  1.00  0.00     0.158 HD
ATOM     48  H31 UNL     1      17.811   7.844  -1.732  1.00  0.00     0.158 HD
ENDBRANCH   2  40
TORSDOF 8
ENDMDL