MODEL 1
REMARK VINA RESULT: -8.923546914      0.000      0.000
REMARK  12 active torsions:
REMARK  status: ('A' for Active; 'I' for Inactive)
REMARK    1  A    between atoms: C4_8  and  S1_9
REMARK    2  A    between atoms: S1_9  and  S2_10
REMARK    3  A    between atoms: S2_10  and  C5_11
REMARK    4  A    between atoms: C5_11  and  C6_12
REMARK    5  A    between atoms: C6_12  and  N3_13
REMARK    6  A    between atoms: N3_13  and  C7_14
REMARK    7  A    between atoms: N3_13  and  C9_20
REMARK    8  A    between atoms: C7_14  and  C8_15
REMARK    9  A    between atoms: C8_15  and  O2_16
REMARK   10  A    between atoms: C8_15  and  O3_18
REMARK   11  A    between atoms: C10_21  and  O4_22
REMARK   12  A    between atoms: N5_27  and  O5_29
ROOT
HETATM    1  C9  UNL     1      27.020  -5.066   5.045  1.00  0.00     0.156 C
HETATM    2  C10 UNL     1      28.066  -5.360   4.289  1.00  0.00     0.187 C
HETATM    3  N4  UNL     1      29.452  -5.207   4.623  1.00  0.00    -0.319 N
ATOM      4  H4  UNL     1      30.124  -5.678   4.017  1.00  0.00     0.169 HD
HETATM    5  C11 UNL     1      29.983  -4.468   5.713  1.00  0.00     0.129 C
HETATM    6  N5  UNL     1      31.238  -4.240   5.653  1.00  0.00    -0.253 N
ATOM      7  H5  UNL     1      31.701  -3.714   6.395  1.00  0.00     0.196 HD
HETATM    8  C12 UNL     1      29.312  -3.929   6.890  1.00  0.00     0.091 C
HETATM    9  C13 UNL     1      27.999  -3.957   7.175  1.00  0.00     0.119 C
HETATM   10  C14 UNL     1      27.604  -3.345   8.420  1.00  0.00     0.117 C
HETATM   11  N6  UNL     1      27.296  -2.839   9.421  1.00  0.00    -0.190 NA
HETATM   12  N7  UNL     1      26.991  -4.532   6.360  1.00  0.00    -0.330 N
ATOM     13  H7  UNL     1      26.072  -4.569   6.802  1.00  0.00     0.168 HD
ENDROOT
BRANCH   1  14
HETATM   14  N3  UNL     1      25.735  -5.343   4.404  1.00  0.00    -0.358 N
BRANCH  14  15
HETATM   15  C6  UNL     1      25.301  -4.430   3.381  1.00  0.00     0.136 C
BRANCH  15  16
HETATM   16  C5  UNL     1      24.649  -3.173   3.804  1.00  0.00     0.106 C
BRANCH  16  17
HETATM   17  S2  UNL     1      22.865  -3.210   3.826  1.00  0.00    -0.088 SA
BRANCH  17  18
HETATM   18  S1  UNL     1      22.181  -2.862   1.845  1.00  0.00    -0.021 SA
BRANCH  18  19
HETATM   19  C4  UNL     1      21.438  -1.255   1.826  1.00  0.00     0.157 A
HETATM   20  N2  UNL     1      20.229  -1.013   1.266  1.00  0.00    -0.329 N
HETATM   21  C3  UNL     1      19.889   0.280   1.381  1.00  0.00     0.148 A
ATOM     22  H2  UNL     1      19.651  -1.722   0.815  1.00  0.00     0.168 HD
HETATM   23  C2  UNL     1      18.808   1.060   1.007  1.00  0.00     0.281 A
HETATM   24  C15 UNL     1      20.934   0.882   2.046  1.00  0.00     0.146 A
HETATM   25  N1  UNL     1      18.737   2.388   1.267  1.00  0.00    -0.269 N
HETATM   26  O1  UNL     1      17.850   0.531   0.403  1.00  0.00    -0.265 OA
HETATM   27  C1  UNL     1      17.588   3.193   0.863  1.00  0.00     0.164 C
HETATM   28  C17 UNL     1      19.779   2.935   1.917  1.00  0.00     0.332 A
HETATM   29  N9  UNL     1      20.847   2.196   2.295  1.00  0.00    -0.287 N
HETATM   30  O6  UNL     1      19.707   4.174   2.157  1.00  0.00    -0.246 OA
HETATM   31  C16 UNL     1      21.946   2.832   2.993  1.00  0.00     0.163 C
HETATM   32  N8  UNL     1      21.848  -0.067   2.298  1.00  0.00    -0.320 N
ATOM     33  H8  UNL     1      22.732   0.092   2.782  1.00  0.00     0.169 HD
ENDBRANCH  18  19
ENDBRANCH  17  18
ENDBRANCH  16  17
ENDBRANCH  15  16
ENDBRANCH  14  15
BRANCH  14  34
HETATM   34  C7  UNL     1      25.032  -6.509   4.861  1.00  0.00     0.184 C
BRANCH  34  35
HETATM   35  C8  UNL     1      23.730  -6.769   4.140  1.00  0.00     0.271 C
BRANCH  35  36
HETATM   36  O2  UNL     1      23.592  -8.000   3.594  1.00  0.00    -0.370 OA
ATOM     37  H2  UNL     1      22.876  -8.102   2.977  1.00  0.00     0.212 HD
ENDBRANCH  35  36
BRANCH  35  38
HETATM   38  O3  UNL     1      22.652  -6.593   5.041  1.00  0.00    -0.370 OA
ATOM     39  H3  UNL     1      21.960  -6.104   4.612  1.00  0.00     0.212 HD
ENDBRANCH  35  38
ENDBRANCH  34  35
ENDBRANCH  14  34
ENDBRANCH   1  14
BRANCH   6  40
HETATM   40  O5  UNL     1      31.956  -4.703   4.591  1.00  0.00    -0.288 OA
ATOM     41  H5  UNL     1      32.895  -4.564   4.565  1.00  0.00     0.244 HD
ENDBRANCH   6  40
BRANCH   2  42
HETATM   42  O4  UNL     1      27.785  -5.874   3.035  1.00  0.00    -0.343 OA
ATOM     43  H4  UNL     1      28.493  -5.840   2.402  1.00  0.00     0.219 HD
ENDBRANCH   2  42
TORSDOF 12
ENDMDL