MODEL 3
REMARK VINA RESULT: -6.821618520      1.057      1.256
REMARK  2 active torsions:
REMARK  status: ('A' for Active; 'I' for Inactive)
REMARK    1  A    between atoms: C7_15  and  N5_16
REMARK    2  A    between atoms: N5_16  and  N6_18
ROOT
HETATM    1  N1  UNL     1      30.194  -9.168  12.871  1.00  0.00    -0.188 NA
HETATM    2  C1  UNL     1      29.060  -9.079  12.709  1.00  0.00     0.137 C
HETATM    3  C2  UNL     1      27.646  -8.947  12.491  1.00  0.00     0.191 A
HETATM    4  N2  UNL     1      26.865  -8.278  13.359  1.00  0.00    -0.299 N
ATOM      5  H2  UNL     1      27.304  -7.863  14.181  1.00  0.00     0.171 HD
HETATM    6  C3  UNL     1      25.539  -8.124  13.206  1.00  0.00     0.276 A
HETATM    7  O1  UNL     1      24.825  -7.490  14.034  1.00  0.00    -0.266 OA
HETATM    8  C4  UNL     1      24.972  -8.700  12.077  1.00  0.00     0.141 A
HETATM    9  C5  UNL     1      25.737  -9.388  11.173  1.00  0.00     0.062 A
HETATM   10  N3  UNL     1      27.048  -9.498  11.396  1.00  0.00    -0.333 N
ATOM     11  H3  UNL     1      27.622 -10.010  10.726  1.00  0.00     0.168 HD
HETATM   12  C6  UNL     1      25.117  -9.998   9.973  1.00  0.00     0.197 A
HETATM   13  N4  UNL     1      23.716  -9.793   9.881  1.00  0.00    -0.219 N
ATOM     14  H4  UNL     1      23.243 -10.195   9.072  1.00  0.00     0.178 HD
HETATM   15  C7  UNL     1      22.988  -9.152  10.717  1.00  0.00     0.698 A
HETATM   16  N7  UNL     1      23.585  -8.572  11.863  1.00  0.00    -0.183 N
ATOM     17  H7  UNL     1      23.011  -8.062  12.533  1.00  0.00     0.184 HD
ENDROOT
BRANCH  15  18
HETATM   18  N5  UNL     1      21.568  -9.010  10.516  1.00  0.00    -0.072 N
ATOM     19  H5  UNL     1      20.953  -8.850  11.313  1.00  0.00     0.212 HD
BRANCH  18  20
HETATM   20  N6  UNL     1      21.040  -9.090   9.239  1.00  0.00    -0.024 N
HETATM   21  O2  UNL     1      21.514  -8.503   8.256  1.00  0.00    -0.516 OA
HETATM   22  O3  UNL     1      19.916  -9.863   9.013  1.00  0.00    -0.516 OA
ENDBRANCH  18  20
ENDBRANCH  15  18
TORSDOF 2
ENDMDL