MODEL 4
REMARK VINA RESULT: -4.250267264      1.354      2.635
REMARK  2 active torsions:
REMARK  status: ('A' for Active; 'I' for Inactive)
REMARK    1  A    between atoms: C8_11  and  O4_12
REMARK    2  A    between atoms: C8_11  and  O5_14
ROOT
HETATM    1  C1  UNL     1      25.630  -9.309   9.502  1.00  0.00     0.081 C
HETATM    2  C2  UNL     1      24.470  -8.975  10.425  1.00  0.00     0.193 C
HETATM    3  C3  UNL     1      24.915  -9.397  11.828  1.00  0.00     0.081 C
HETATM    4  O1  UNL     1      24.182  -7.638  10.475  1.00  0.00    -0.199 OA
HETATM    5  O2  UNL     1      23.476  -7.176   9.498  1.00  0.00    -0.200 OA
HETATM    6  C4  UNL     1      22.347  -7.897   9.207  1.00  0.00     0.353 C
HETATM    7  O3  UNL     1      21.210  -7.156   9.053  1.00  0.00    -0.335 OA
HETATM    8  C5  UNL     1      20.098  -7.953   8.955  1.00  0.00     0.141 C
HETATM    9  C6  UNL     1      18.874  -7.047   8.837  1.00  0.00     0.054 C
HETATM   10  C7  UNL     1      20.127  -8.900   7.778  1.00  0.00     0.054 C
HETATM   11  C8  UNL     1      19.990  -8.835  10.206  1.00  0.00     0.312 C
HETATM   12  O6  UNL     1      21.074  -9.737  10.104  1.00  0.00    -0.294 OA
HETATM   13  C9  UNL     1      22.220  -8.990  10.259  1.00  0.00     0.327 C
HETATM   14  O7  UNL     1      23.369  -9.778  10.119  1.00  0.00    -0.318 OA
ENDROOT
BRANCH  11  15
HETATM   15  O4  UNL     1      18.771  -9.521  10.210  1.00  0.00    -0.341 OA
ATOM     16  H4  UNL     1      18.458  -9.629  11.100  1.00  0.00     0.215 HD
ENDBRANCH  11  15
BRANCH  11  17
HETATM   17  O5  UNL     1      20.130  -8.113  11.364  1.00  0.00    -0.341 OA
ATOM     18  H5  UNL     1      20.959  -8.283  11.795  1.00  0.00     0.215 HD
ENDBRANCH  11  17
TORSDOF 2
ENDMDL