MODEL 2
REMARK VINA RESULT: -7.490527853      2.091      6.613
REMARK  2 active torsions:
REMARK  status: ('A' for Active; 'I' for Inactive)
REMARK    1  A    between atoms: C4_8  and  C5_9
REMARK    2  A    between atoms: C6_12  and  C7_13
REMARK       I    between atoms: C7_13  and  N3_15
ROOT
HETATM    1  C7  UNL     1      19.865  -9.317   9.385  1.00  0.00     0.300 C
HETATM    2  O3  UNL     1      19.870  -8.962   8.192  1.00  0.00    -0.263 OA
HETATM    3  N3  UNL     1      18.756  -9.969   9.972  1.00  0.00    -0.257 N
ATOM      4  H3  UNL     1      18.793 -10.244  10.953  1.00  0.00     0.181 HD
HETATM    5  C8  UNL     1      17.601 -10.242   9.214  1.00  0.00     0.184 C
HETATM    6  N4  UNL     1      16.659 -10.482   8.583  1.00  0.00    -0.172 NA
ENDROOT
BRANCH   1   7
HETATM    7  C6  UNL     1      21.044  -9.051  10.203  1.00  0.00     0.198 A
HETATM    8  N2  UNL     1      22.309  -9.476   9.998  1.00  0.00    -0.314 N
HETATM    9  C5  UNL     1      23.122  -9.024  10.974  1.00  0.00     0.190 A
ATOM     10  H2  UNL     1      22.608 -10.057   9.215  1.00  0.00     0.169 HD
HETATM   11  O4  UNL     1      22.348  -8.325  11.768  1.00  0.00    -0.217 OA
HETATM   12  N5  UNL     1      21.119  -8.321  11.343  1.00  0.00    -0.238 N
ATOM     13  H5  UNL     1      20.337  -7.846  11.794  1.00  0.00     0.197 HD
BRANCH   9  14
HETATM   14  C4  UNL     1      24.557  -9.269  11.104  1.00  0.00     0.118 A
HETATM   15  C2  UNL     1      25.393  -8.783  12.086  1.00  0.00     0.049 A
HETATM   16  C1  UNL     1      24.962  -7.913  13.197  1.00  0.00     0.071 C
HETATM   17  N1  UNL     1      26.645  -9.259  11.820  1.00  0.00    -0.261 N
HETATM   18  O1  UNL     1      26.581  -9.980  10.758  1.00  0.00    -0.195 OA
ATOM     19  H1  UNL     1      27.485  -9.073  12.369  1.00  0.00     0.194 HD
HETATM   20  C3  UNL     1      25.355 -10.027  10.276  1.00  0.00     0.321 A
HETATM   21  O2  UNL     1      24.917 -10.628   9.261  1.00  0.00    -0.257 OA
ENDBRANCH   9  14
ENDBRANCH   1   7
TORSDOF 2
ENDMDL