MODEL 1
REMARK VINA RESULT: -5.953571729      0.000      0.000
REMARK  3 active torsions:
REMARK  status: ('A' for Active; 'I' for Inactive)
REMARK    1  A    between atoms: N1_1  and  N2_4
REMARK    2  A    between atoms: N3_7  and  N4_8
REMARK    3  A    between atoms: N4_8  and  O2_10
ROOT
HETATM    1  N2  UNL     1      24.806  -7.952  12.996  1.00  0.00    -0.191 N
HETATM    2  C1  UNL     1      26.057  -8.424  12.827  1.00  0.00     0.370 A
HETATM    3  O1  UNL     1      27.065  -8.217  13.564  1.00  0.00    -0.242 OA
HETATM    4  N3  UNL     1      26.093  -9.182  11.714  1.00  0.00    -0.175 N
HETATM    5  C2  UNL     1      24.846  -9.167  11.205  1.00  0.00     0.177 A
HETATM    6  C3  UNL     1      24.256  -9.747  10.090  1.00  0.00     0.280 A
HETATM    7  O3  UNL     1      25.015 -10.457   9.357  1.00  0.00    -0.265 OA
HETATM    8  N5  UNL     1      22.956  -9.571   9.798  1.00  0.00    -0.298 N
ATOM      9  H5  UNL     1      22.561 -10.015   8.969  1.00  0.00     0.171 HD
HETATM   10  C4  UNL     1      22.170  -8.816  10.586  1.00  0.00     0.180 A
HETATM   11  S1  UNL     1      20.571  -8.601  10.224  1.00  0.00    -0.040 SA
HETATM   12  N6  UNL     1      22.712  -8.240  11.675  1.00  0.00    -0.315 N
ATOM     13  H6  UNL     1      22.122  -7.665  12.278  1.00  0.00     0.170 HD
HETATM   14  C5  UNL     1      24.008  -8.400  11.989  1.00  0.00     0.168 A
ENDROOT
BRANCH   4  15
HETATM   15  N4  UNL     1      27.206  -9.853  11.189  1.00  0.00    -0.199 N
ATOM     16  H4  UNL     1      27.061 -10.479  10.397  1.00  0.00     0.216 HD
BRANCH  15  17
HETATM   17  O2  UNL     1      28.357  -9.729  11.633  1.00  0.00    -0.274 OA
ATOM     18  H2  UNL     1      29.076 -10.308  11.405  1.00  0.00     0.246 HD
ENDBRANCH  15  17
ENDBRANCH   4  15
BRANCH   1  19
HETATM   19  N1  UNL     1      24.405  -7.135  14.042  1.00  0.00    -0.333 N
ATOM     20  H12 UNL     1      24.310  -7.420  15.016  1.00  0.00     0.177 HD
ATOM     21  H11 UNL     1      24.159  -6.149  13.947  1.00  0.00     0.177 HD
ENDBRANCH   1  19
TORSDOF 3
ENDMDL