MODEL 4
REMARK VINA RESULT: -4.006180849      2.357      5.321
REMARK  1 active torsions:
REMARK  status: ('A' for Active; 'I' for Inactive)
REMARK    1  A    between atoms: O1_2  and  C2_3
REMARK       I    between atoms: N1_5  and  C4_6
REMARK       I    between atoms: C4_6  and  N3_10
ROOT
HETATM    1  C2  UNL     1      21.048  -7.607   9.607  1.00  0.00     0.153 A
HETATM    2  C3  UNL     1      21.968  -8.359  10.318  1.00  0.00     0.162 A
HETATM    3  N1  UNL     1      23.285  -8.288  10.055  1.00  0.00    -0.101 N
HETATM    4  C4  UNL     1      24.240  -9.055  10.777  1.00  0.00     0.730 C
HETATM    5  N2  UNL     1      24.706 -10.154  10.246  1.00  0.00    -0.231 N
ATOM      6  H21 UNL     1      25.391 -10.705  10.764  1.00  0.00     0.174 HD
ATOM      7  H22 UNL     1      24.365 -10.427   9.324  1.00  0.00     0.174 HD
HETATM    8  N3  UNL     1      24.716  -8.674  12.065  1.00  0.00     0.155 N
HETATM    9  O2  UNL     1      24.163  -8.390  13.207  1.00  0.00    -0.106 OA
HETATM   10  N4  UNL     1      25.285  -8.162  13.814  1.00  0.00    -0.068 N
ATOM     11  H4  UNL     1      25.566  -7.887  14.755  1.00  0.00     0.216 HD
HETATM   12  C5  UNL     1      25.918  -8.444  12.659  1.00  0.00     0.741 A
HETATM   13  N5  UNL     1      27.134  -8.489  12.251  1.00  0.00    -0.230 N
ATOM     14  H51 UNL     1      28.035  -8.317  12.696  1.00  0.00     0.174 HD
ATOM     15  H52 UNL     1      27.613  -8.703  11.376  1.00  0.00     0.174 HD
HETATM   16  C6  UNL     1      23.682  -7.460   9.078  1.00  0.00     0.347 A
HETATM   17  O3  UNL     1      24.903  -7.359   8.796  1.00  0.00    -0.245 OA
HETATM   18  N6  UNL     1      22.825  -6.708   8.360  1.00  0.00    -0.272 N
ATOM     19  H6  UNL     1      23.180  -6.093   7.628  1.00  0.00     0.173 HD
HETATM   20  C7  UNL     1      21.506  -6.764   8.605  1.00  0.00     0.284 A
HETATM   21  O4  UNL     1      20.699  -6.056   7.930  1.00  0.00    -0.265 OA
ENDROOT
BRANCH   1  22
HETATM   22  O1  UNL     1      19.684  -7.663   9.860  1.00  0.00    -0.350 OA
HETATM   23  C1  UNL     1      19.116  -6.602  10.608  1.00  0.00     0.210 C
ENDBRANCH   1  22
TORSDOF 1
ENDMDL