MODEL 1
REMARK VINA RESULT: -5.807782357      0.000      0.000
REMARK  2 active torsions:
REMARK  status: ('A' for Active; 'I' for Inactive)
REMARK    1  A    between atoms: O1_1  and  N1_3
REMARK    2  A    between atoms: N1_3  and  C1_5
ROOT
HETATM    1  C1  UNL     1      20.151  -8.817  10.157  1.00  0.00     0.166 A
HETATM    2  C2  UNL     1      21.517  -8.595  10.178  1.00  0.00     0.145 A
HETATM    3  N2  UNL     1      22.048  -7.742   9.273  1.00  0.00    -0.261 N
HETATM    4  C3  UNL     1      21.260  -7.126   8.377  1.00  0.00     0.332 A
HETATM    5  O2  UNL     1      21.737  -6.331   7.532  1.00  0.00    -0.246 OA
HETATM    6  N3  UNL     1      19.933  -7.347   8.365  1.00  0.00    -0.273 N
ATOM      7  H3  UNL     1      19.357  -6.866   7.673  1.00  0.00     0.173 HD
HETATM    8  C4  UNL     1      19.342  -8.184   9.238  1.00  0.00     0.281 A
HETATM    9  O3  UNL     1      18.113  -8.421   9.264  1.00  0.00    -0.265 OA
HETATM   10  C5  UNL     1      23.401  -7.264   8.987  1.00  0.00     0.307 C
HETATM   11  O4  UNL     1      24.321  -8.252   9.306  1.00  0.00    -0.347 OA
HETATM   12  C6  UNL     1      24.722  -8.207  10.627  1.00  0.00     0.342 C
HETATM   13  O5  UNL     1      24.418  -9.421  11.263  1.00  0.00    -0.348 OA
HETATM   14  C7  UNL     1      23.251  -9.283  12.041  1.00  0.00     0.294 C
HETATM   15  N4  UNL     1      22.056  -9.383  11.227  1.00  0.00    -0.353 N
ATOM     16  H4  UNL     1      21.480 -10.193  11.459  1.00  0.00     0.163 HD
ENDROOT
BRANCH   1  17
HETATM   17  N1  UNL     1      19.636  -9.728  11.134  1.00  0.00    -0.260 N
ATOM     18  H1  UNL     1      19.811  -9.619  12.133  1.00  0.00     0.194 HD
BRANCH  17  19
HETATM   19  O1  UNL     1      18.949 -10.678  10.662  1.00  0.00    -0.289 OA
ATOM     20  H1  UNL     1      19.176 -11.538  10.995  1.00  0.00     0.244 HD
ENDBRANCH  17  19
ENDBRANCH   1  17
TORSDOF 2
ENDMDL