MODEL 3
REMARK VINA RESULT: -3.407438127      1.917      3.629
REMARK  3 active torsions:
REMARK  status: ('A' for Active; 'I' for Inactive)
REMARK       I    between atoms: N1_2  and  C2_4
REMARK       I    between atoms: C2_4  and  N2_6
REMARK    1  A    between atoms: C3_7  and  N3_8
REMARK    2  A    between atoms: C4_11  and  C5_12
REMARK    3  A    between atoms: C5_12  and  O4_13
ROOT
HETATM    1  C1  UNL     1      19.229 -11.064  11.821  1.00  0.00     0.151 C
HETATM    2  N1  UNL     1      19.961  -9.911  11.370  1.00  0.00    -0.346 N
ATOM      3  H1  UNL     1      20.679  -9.513  11.977  1.00  0.00     0.163 HD
HETATM    4  C2  UNL     1      19.724  -9.321  10.136  1.00  0.00     0.342 C
HETATM    5  O1  UNL     1      18.735  -9.711   9.466  1.00  0.00    -0.246 OA
HETATM    6  N2  UNL     1      20.561  -8.285   9.552  1.00  0.00    -0.073 N
HETATM    7  C3  UNL     1      21.834  -8.092   9.816  1.00  0.00     0.226 A
HETATM    8  C4  UNL     1      22.304  -7.025   8.934  1.00  0.00     0.103 A
HETATM    9  N4  UNL     1      21.278  -6.672   8.238  1.00  0.00    -0.185 N
HETATM   10  C6  UNL     1      21.172  -5.763   7.109  1.00  0.00     0.175 C
HETATM   11  C7  UNL     1      20.210  -7.424   8.611  1.00  0.00     0.690 A
HETATM   12  N5  UNL     1      18.960  -7.114   8.266  1.00  0.00    -0.234 N
ATOM     13  H51 UNL     1      18.690  -6.450   7.541  1.00  0.00     0.174 HD
ATOM     14  H52 UNL     1      18.158  -7.679   8.547  1.00  0.00     0.174 HD
ENDROOT
BRANCH   7  15
HETATM   15  N3  UNL     1      22.754  -8.720  10.682  1.00  0.00    -0.095 N
HETATM   16  O2  UNL     1      22.572  -8.448  11.967  1.00  0.00    -0.530 OA
HETATM   17  O3  UNL     1      23.667  -9.679  10.579  1.00  0.00    -0.530 OA
ENDBRANCH   7  15
BRANCH   8  18
HETATM   18  C5  UNL     1      23.730  -6.822   8.769  1.00  0.00     0.226 C
BRANCH  18  19
HETATM   19  O4  UNL     1      24.141  -5.598   8.368  1.00  0.00    -0.395 OA
ATOM     20  H4  UNL     1      23.878  -4.854   8.897  1.00  0.00     0.209 HD
ENDBRANCH  18  19
ENDBRANCH   8  18
TORSDOF 3
ENDMDL