MODEL 5
REMARK VINA RESULT: -4.667374978      2.918      5.757
REMARK  3 active torsions:
REMARK  status: ('A' for Active; 'I' for Inactive)
REMARK    1  A    between atoms: C4_7  and  C5_8
REMARK    2  A    between atoms: C5_8  and  O3_9
REMARK    3  A    between atoms: O3_9  and  N2_10
ROOT
HETATM    1  C1  UNL     1      18.648  -7.712   8.610  1.00  0.00     0.166 C
HETATM    2  N1  UNL     1      20.043  -8.038   8.872  1.00  0.00    -0.249 N
HETATM    3  C2  UNL     1      20.409  -9.245   9.347  1.00  0.00     0.377 A
HETATM    4  O1  UNL     1      19.495 -10.084   9.556  1.00  0.00    -0.237 OA
HETATM    5  O2  UNL     1      21.676  -9.503   9.572  1.00  0.00    -0.241 OA
HETATM    6  C3  UNL     1      22.635  -8.644   9.359  1.00  0.00     0.191 A
HETATM    7  C4  UNL     1      24.023  -8.707   9.526  1.00  0.00     0.090 A
HETATM    8  N3  UNL     1      24.476  -7.515   9.142  1.00  0.00    -0.330 N
ATOM      9  H3  UNL     1      25.455  -7.230   9.139  1.00  0.00     0.168 HD
HETATM   10  C6  UNL     1      23.423  -6.734   8.750  1.00  0.00     0.189 A
HETATM   11  S1  UNL     1      23.553  -5.197   8.207  1.00  0.00    -0.040 SA
HETATM   12  N4  UNL     1      22.289  -7.438   8.887  1.00  0.00    -0.216 N
HETATM   13  C7  UNL     1      21.000  -7.139   8.646  1.00  0.00     0.341 A
HETATM   14  O4  UNL     1      20.648  -6.015   8.203  1.00  0.00    -0.246 OA
ENDROOT
BRANCH   7  15
HETATM   15  C5  UNL     1      24.771  -9.904  10.042  1.00  0.00     0.262 C
BRANCH  15  16
HETATM   16  O3  UNL     1      25.532  -9.632  11.151  1.00  0.00    -0.281 OA
BRANCH  16  17
HETATM   17  N2  UNL     1      26.853  -9.680  10.968  1.00  0.00    -0.311 N
ATOM     18  H22 UNL     1      27.258 -10.119  10.142  1.00  0.00     0.184 HD
ATOM     19  H21 UNL     1      27.414  -9.254  11.705  1.00  0.00     0.184 HD
ENDBRANCH  16  17
ENDBRANCH  15  16
ENDBRANCH   7  15
TORSDOF 3
ENDMDL