MODEL 4
REMARK VINA RESULT: -5.548628181      3.301      4.393
REMARK  2 active torsions:
REMARK  status: ('A' for Active; 'I' for Inactive)
REMARK    1  A    between atoms: O1_1  and  C1_3
REMARK    2  A    between atoms: C1_3  and  C2_4
ROOT
HETATM    1  C2  UNL     1      22.906  -5.457   7.568  1.00  0.00     0.150 C
HETATM    2  C3  UNL     1      23.077  -6.330   8.793  1.00  0.00     0.110 C
HETATM    3  C4  UNL     1      21.869  -7.225   8.758  1.00  0.00     0.253 C
HETATM    4  C5  UNL     1      21.079  -6.619   7.597  1.00  0.00     0.242 C
HETATM    5  O2  UNL     1      21.528  -5.285   7.531  1.00  0.00    -0.378 OA
HETATM    6  O3  UNL     1      22.170  -8.550   8.554  1.00  0.00    -0.190 OA
HETATM    7  O4  UNL     1      21.584  -9.366   9.396  1.00  0.00    -0.162 OA
HETATM    8  C6  UNL     1      20.241  -9.099   9.390  1.00  0.00     0.414 C
HETATM    9  C7  UNL     1      19.470  -9.905  10.414  1.00  0.00     0.340 C
HETATM   10  N1  UNL     1      18.139 -10.058   9.820  1.00  0.00    -0.044 N
ATOM     11  H11 UNL     1      17.381  -9.761  10.434  1.00  0.00     0.279 HD
ATOM     12  H12 UNL     1      17.845 -11.030   9.722  1.00  0.00     0.279 HD
HETATM   13  C8  UNL     1      18.181  -9.337   8.562  1.00  0.00     0.469 C
HETATM   14  N2  UNL     1      19.580  -9.563   8.159  1.00  0.00     0.013 N
ATOM     15  H21 UNL     1      19.815 -10.504   7.844  1.00  0.00     0.286 HD
ATOM     16  H22 UNL     1      19.878  -9.121   7.290  1.00  0.00     0.286 HD
HETATM   17  O5  UNL     1      19.950  -7.756   9.631  1.00  0.00    -0.162 OA
HETATM   18  O6  UNL     1      21.084  -7.109   9.912  1.00  0.00    -0.190 OA
ENDROOT
BRANCH   1  19
HETATM   19  C1  UNL     1      23.522  -4.089   7.767  1.00  0.00     0.196 C
BRANCH  19  20
HETATM   20  O1  UNL     1      23.704  -3.424   6.576  1.00  0.00    -0.398 OA
ATOM     21  H1  UNL     1      24.545  -2.983   6.538  1.00  0.00     0.209 HD
ENDBRANCH  19  20
ENDBRANCH   1  19
TORSDOF 2
ENDMDL