MODEL 5
REMARK VINA RESULT: -5.822810442      1.985      5.952
REMARK  3 active torsions:
REMARK  status: ('A' for Active; 'I' for Inactive)
REMARK    1  A    between atoms: O1_2  and  C2_3
REMARK    2  A    between atoms: C2_3  and  C3_5
REMARK    3  A    between atoms: C8_14  and  N3_15
ROOT
HETATM    1  C3  UNL     1      26.399  -9.298  12.229  1.00  0.00     0.113 A
HETATM    2  C4  UNL     1      25.169  -8.837  12.668  1.00  0.00     0.072 A
HETATM    3  C5  UNL     1      24.057  -8.791  11.834  1.00  0.00     0.122 A
HETATM    4  C6  UNL     1      24.204  -9.222  10.531  1.00  0.00     0.176 A
HETATM    5  C7  UNL     1      25.444  -9.672  10.140  1.00  0.00     0.278 A
HETATM    6  O3  UNL     1      25.595 -10.072   8.946  1.00  0.00    -0.266 OA
HETATM    7  N1  UNL     1      26.496  -9.704  10.967  1.00  0.00    -0.316 N
ATOM      8  H1  UNL     1      27.392 -10.048  10.621  1.00  0.00     0.169 HD
HETATM    9  N2  UNL     1      22.913  -8.941  10.316  1.00  0.00    -0.048 N
HETATM   10  C8  UNL     1      21.700  -8.793   9.731  1.00  0.00     0.721 A
HETATM   11  N4  UNL     1      20.866  -8.296  10.641  1.00  0.00    -0.068 N
ATOM     12  H4  UNL     1      19.880  -8.075  10.496  1.00  0.00     0.216 HD
HETATM   13  O4  UNL     1      21.523  -8.142  11.733  1.00  0.00    -0.118 OA
HETATM   14  N5  UNL     1      22.753  -8.519  11.572  1.00  0.00    -0.111 N
ENDROOT
BRANCH   1  15
HETATM   15  C2  UNL     1      27.542  -9.322  13.160  1.00  0.00     0.309 C
HETATM   16  O2  UNL     1      27.770 -10.339  13.865  1.00  0.00    -0.258 OA
BRANCH  15  17
HETATM   17  O1  UNL     1      28.382  -8.246  13.280  1.00  0.00    -0.321 OA
HETATM   18  C1  UNL     1      29.739  -8.325  13.675  1.00  0.00     0.213 C
ENDBRANCH  15  17
ENDBRANCH   1  15
BRANCH  10  19
HETATM   19  N3  UNL     1      21.393  -9.076   8.520  1.00  0.00    -0.231 N
ATOM     20  H32 UNL     1      20.715  -9.781   8.232  1.00  0.00     0.174 HD
ATOM     21  H31 UNL     1      21.774  -8.645   7.678  1.00  0.00     0.174 HD
ENDBRANCH  10  19
TORSDOF 3
ENDMDL