MODEL 5
REMARK VINA RESULT: -7.083445272      3.261      7.928
REMARK  14 active torsions:
REMARK  status: ('A' for Active; 'I' for Inactive)
REMARK    1  A    between atoms: C2_2  and  C3_3
REMARK    2  A    between atoms: C3_3  and  N1_4
REMARK    3  A    between atoms: C5_9  and  N3_10
REMARK    4  A    between atoms: C6_12  and  C7_13
REMARK       I    between atoms: C7_13  and  N4_15
REMARK    5  A    between atoms: N4_15  and  C8_16
REMARK    6  A    between atoms: N7_25  and  C13_26
REMARK    7  A    between atoms: C15_28  and  N8_29
REMARK    8  A    between atoms: N8_29  and  C16_31
REMARK    9  A    between atoms: C16_31  and  C17_32
REMARK   10  A    between atoms: C17_32  and  C18_33
REMARK   11  A    between atoms: C18_33  and  C19_34
REMARK   12  A    between atoms: C19_34  and  N9_35
REMARK   13  A    between atoms: N9_35  and  C20_38
REMARK   14  A    between atoms: C23_41  and  C24_42
ROOT
HETATM    1  N1  UNL     1       8.850  24.417   1.147  1.00  0.00    -0.350 N
ATOM      2  H1  UNL     1       8.584  23.433   1.147  1.00  0.00     0.166 HD
HETATM    3  C4  UNL     1       8.874  25.019   2.279  1.00  0.00     0.151 A
HETATM    4  N2  UNL     1       8.521  24.288   3.367  1.00  0.00    -0.174 N
ATOM      5  H2  UNL     1       8.300  23.301   3.232  1.00  0.00     0.186 HD
HETATM    6  C5  UNL     1       8.446  24.786   4.605  1.00  0.00     0.685 A
HETATM    7  N5  UNL     1       8.728  26.053   4.799  1.00  0.00    -0.174 N
ATOM      8  H5  UNL     1       8.700  26.431   5.746  1.00  0.00     0.186 HD
HETATM    9  C10 UNL     1       9.053  26.863   3.780  1.00  0.00     0.155 A
HETATM   10  C11 UNL     1       9.130  26.326   2.470  1.00  0.00     0.123 A
HETATM   11  N6  UNL     1       9.404  27.351   1.670  1.00  0.00    -0.346 N
ATOM     12  H6  UNL     1       9.532  27.285   0.660  1.00  0.00     0.167 HD
HETATM   13  C12 UNL     1       9.488  28.478   2.378  1.00  0.00     0.185 A
HETATM   14  N7  UNL     1       9.270  28.169   3.682  1.00  0.00    -0.321 N
ENDROOT
BRANCH  14  15
HETATM   15  C13 UNL     1       8.894  29.191   4.611  1.00  0.00     0.102 C
HETATM   16  C14 UNL     1       7.538  29.409   5.143  1.00  0.00     0.051 C
HETATM   17  C15 UNL     1       7.821  30.736   5.884  1.00  0.00     0.079 C
HETATM   18  C22 UNL     1       8.580  31.539   4.875  1.00  0.00     0.035 C
HETATM   19  C23 UNL     1       9.207  30.535   3.976  1.00  0.00     0.033 C
BRANCH  17  20
HETATM   20  N8  UNL     1       6.874  31.325   6.630  1.00  0.00    -0.417 N
ATOM     21  H8  UNL     1       6.125  31.841   6.169  1.00  0.00     0.153 HD
BRANCH  20  22
HETATM   22  C16 UNL     1       6.896  31.246   8.045  1.00  0.00     0.114 C
BRANCH  22  23
HETATM   23  C17 UNL     1       6.103  29.967   8.450  1.00  0.00     0.021 C
BRANCH  23  24
HETATM   24  C18 UNL     1       7.012  28.971   9.108  1.00  0.00     0.029 C
BRANCH  24  25
HETATM   25  C19 UNL     1       8.374  29.536   9.294  1.00  0.00     0.232 C
BRANCH  25  26
HETATM   26  N9  UNL     1       8.979  29.124  10.557  1.00  0.00    -0.075 N
ATOM     27  H92 UNL     1       9.925  28.754  10.468  1.00  0.00     0.277 HD
ATOM     28  H91 UNL     1       9.221  29.897  11.177  1.00  0.00     0.277 HD
BRANCH  26  29
HETATM   29  C20 UNL     1       8.008  28.175  11.124  1.00  0.00     0.228 C
HETATM   30  C21 UNL     1       8.688  27.152  11.951  1.00  0.00     0.034 C
ENDBRANCH  26  29
ENDBRANCH  25  26
ENDBRANCH  24  25
ENDBRANCH  23  24
ENDBRANCH  22  23
ENDBRANCH  20  22
ENDBRANCH  17  20
BRANCH  19  31
HETATM   31  C24 UNL     1      10.532  30.789   3.511  1.00  0.00    -0.030 C
HETATM   32  C25 UNL     1      11.109  31.962   3.576  1.00  0.00     0.007 C
ENDBRANCH  19  31
ENDBRANCH  14  15
BRANCH   6  33
HETATM   33  N3  UNL     1       7.814  24.110   5.441  1.00  0.00    -0.195 N
HETATM   34  C6  UNL     1       6.727  23.607   6.016  1.00  0.00     0.196 C
ATOM     35  H3  UNL     1       8.563  23.715   6.011  1.00  0.00     0.183 HD
BRANCH  34  36
HETATM   36  C7  UNL     1       5.351  23.658   5.288  1.00  0.00     0.331 C
HETATM   37  O1  UNL     1       5.340  24.404   4.286  1.00  0.00    -0.250 OA
HETATM   38  N4  UNL     1       4.277  22.976   5.754  1.00  0.00    -0.383 NA
BRANCH  38  39
HETATM   39  C8  UNL     1       3.141  22.288   6.208  1.00  0.00     0.155 C
HETATM   40  C9  UNL     1       3.335  21.757   7.625  1.00  0.00     0.070 C
ENDBRANCH  38  39
ENDBRANCH  34  36
ENDBRANCH   6  33
BRANCH   1  41
HETATM   41  C3  UNL     1       9.158  24.994  -0.081  1.00  0.00     0.089 C
BRANCH  41  42
HETATM   42  C2  UNL     1       9.773  24.005  -1.062  1.00  0.00     0.007 C
HETATM   43  C1  UNL     1       9.584  24.153  -2.337  1.00  0.00     0.012 C
ENDBRANCH  41  42
ENDBRANCH   1  41
TORSDOF 14
ENDMDL