MODEL 1
REMARK VINA RESULT: -7.029481002      0.000      0.000
REMARK  16 active torsions:
REMARK  status: ('A' for Active; 'I' for Inactive)
REMARK    1  A    between atoms: N1_2  and  C2_3
REMARK    2  A    between atoms: N1_2  and  C5_7
REMARK    3  A    between atoms: C2_3  and  C3_4
REMARK    4  A    between atoms: C3_4  and  C4_5
REMARK    5  A    between atoms: C5_7  and  C6_8
REMARK    6  A    between atoms: C6_8  and  C7_9
REMARK    7  A    between atoms: C7_9  and  N2_10
REMARK    8  A    between atoms: N2_10  and  C8_11
REMARK       I    between atoms: N2_10  and  C10_15
REMARK    9  A    between atoms: C8_11  and  C9_12
REMARK   10  A    between atoms: C9_12  and  O1_13
REMARK   11  A    between atoms: C10_15  and  C11_17
REMARK   12  A    between atoms: C11_17  and  N3_18
REMARK   13  A    between atoms: C11_17  and  C18_31
REMARK       I    between atoms: N3_18  and  C12_20
REMARK   14  A    between atoms: C12_20  and  C13_22
REMARK   15  A    between atoms: C15_24  and  O4_25
REMARK   16  A    between atoms: C16_27  and  O5_28
ROOT
HETATM    1  C11 UNL     1       8.400  27.501   3.012  1.00  0.00     0.181 C
ENDROOT
BRANCH   1   2
HETATM    2  C10 UNL     1       8.949  26.313   3.633  1.00  0.00     0.246 C
HETATM    3  N2  UNL     1       8.314  25.142   4.112  1.00  0.00    -0.328 N
HETATM    4  O2  UNL     1      10.236  26.296   3.778  1.00  0.00    -0.271 OA
BRANCH   3   5
HETATM    5  C7  UNL     1       6.921  24.976   3.968  1.00  0.00     0.068 C
BRANCH   5   6
HETATM    6  C6  UNL     1       5.961  24.823   5.055  1.00  0.00     0.064 C
BRANCH   6   7
HETATM    7  C5  UNL     1       4.609  24.342   4.722  1.00  0.00     0.126 C
BRANCH   7   8
HETATM    8  N1  UNL     1       4.110  23.310   5.599  1.00  0.00    -0.397 N
HETATM    9  C1  UNL     1       5.045  22.575   6.295  1.00  0.00     0.148 C
BRANCH   8  10
HETATM   10  C2  UNL     1       2.748  23.300   5.813  1.00  0.00     0.058 C
BRANCH  10  11
HETATM   11  C3  UNL     1       2.165  22.823   7.082  1.00  0.00     0.055 C
BRANCH  11  12
HETATM   12  C4  UNL     1       0.857  22.135   6.969  1.00  0.00     0.091 C
HETATM   13  S1  UNL     1       0.531  20.967   8.330  1.00  0.00    -0.097 SA
ENDBRANCH  11  12
ENDBRANCH  10  11
ENDBRANCH   8  10
ENDBRANCH   7   8
ENDBRANCH   6   7
ENDBRANCH   5   6
ENDBRANCH   3   5
BRANCH   3  14
HETATM   14  C8  UNL     1       9.173  24.090   4.609  1.00  0.00     0.157 C
BRANCH  14  15
HETATM   15  C9  UNL     1       8.614  23.093   5.538  1.00  0.00     0.184 C
BRANCH  15  16
HETATM   16  O1  UNL     1       8.025  22.075   4.722  1.00  0.00    -0.399 OA
ATOM     17  H1  UNL     1       8.716  21.449   4.542  1.00  0.00     0.209 HD
ENDBRANCH  15  16
ENDBRANCH  14  15
ENDBRANCH   3  14
ENDBRANCH   1   2
BRANCH   1  18
HETATM   18  N3  UNL     1       8.873  27.487   1.580  1.00  0.00    -0.347 N
HETATM   19  C12 UNL     1       8.225  26.743   0.594  1.00  0.00     0.222 C
HETATM   20  O3  UNL     1       7.214  26.057   0.907  1.00  0.00    -0.273 OA
ATOM     21  H3  UNL     1       9.692  28.038   1.325  1.00  0.00     0.163 HD
BRANCH  19  22
HETATM   22  C13 UNL     1       8.724  26.762  -0.804  1.00  0.00     0.083 C
HETATM   23  C14 UNL     1       8.803  25.338  -1.298  1.00  0.00     0.048 C
HETATM   24  C15 UNL     1      10.146  24.820  -0.895  1.00  0.00     0.147 C
HETATM   25  C16 UNL     1      10.942  26.026  -0.473  1.00  0.00     0.147 C
HETATM   26  C17 UNL     1      10.152  27.233  -0.897  1.00  0.00     0.048 C
BRANCH  24  27
HETATM   27  O4  UNL     1       9.967  23.921   0.168  1.00  0.00    -0.393 OA
ATOM     28  H4  UNL     1       9.846  24.425   0.964  1.00  0.00     0.210 HD
ENDBRANCH  24  27
BRANCH  25  29
HETATM   29  O5  UNL     1      11.187  26.020   0.901  1.00  0.00    -0.393 OA
ATOM     30  H5  UNL     1      10.771  26.759   1.330  1.00  0.00     0.210 HD
ENDBRANCH  25  29
ENDBRANCH  19  22
ENDBRANCH   1  18
BRANCH   1  31
HETATM   31  C18 UNL     1       8.872  28.837   3.464  1.00  0.00     0.018 C
HETATM   32  C19 UNL     1       8.410  29.231   4.862  1.00  0.00     0.007 C
HETATM   33  C20 UNL     1       8.604  30.746   5.054  1.00  0.00     0.000 C
HETATM   34  C21 UNL     1       7.610  31.512   4.226  1.00  0.00     0.000 C
HETATM   35  C22 UNL     1       7.381  30.692   2.945  1.00  0.00     0.000 C
HETATM   36  C23 UNL     1       8.697  30.016   2.606  1.00  0.00     0.007 C
ENDBRANCH   1  31
TORSDOF 16
ENDMDL