MODEL 4
REMARK VINA RESULT: -7.093639799      2.521      8.522
REMARK  16 active torsions:
REMARK  status: ('A' for Active; 'I' for Inactive)
REMARK       I    between atoms: N1_2  and  C2_4
REMARK    1  A    between atoms: C2_4  and  C3_6
REMARK    2  A    between atoms: C3_6  and  C4_7
REMARK    3  A    between atoms: C3_6  and  C13_22
REMARK    4  A    between atoms: C4_7  and  N2_8
REMARK    5  A    between atoms: C8_12  and  C9_13
REMARK    6  A    between atoms: C9_13  and  C10_14
REMARK    7  A    between atoms: C10_14  and  N3_15
REMARK    8  A    between atoms: C10_14  and  C12_19
REMARK    9  A    between atoms: N3_15  and  C11_17
REMARK   10  A    between atoms: C13_22  and  C14_23
REMARK   11  A    between atoms: C13_22  and  N4_30
REMARK   12  A    between atoms: C14_23  and  C15_24
REMARK   13  A    between atoms: N4_30  and  C21_32
REMARK   14  A    between atoms: C21_32  and  O5_33
REMARK   15  A    between atoms: C21_32  and  C22_35
REMARK   16  A    between atoms: C22_35  and  C24_37
ROOT
HETATM    1  C3  UNL     1       8.845  27.801   1.192  1.00  0.00     0.047 C
ENDROOT
BRANCH   1   2
HETATM    2  C2  UNL     1       7.973  28.830   0.647  1.00  0.00     0.250 C
HETATM    3  N1  UNL     1       6.938  29.484   1.386  1.00  0.00    -0.361 N
HETATM    4  C1  UNL     1       6.089  30.507   0.777  1.00  0.00     0.149 C
ATOM      5  H1  UNL     1       6.787  29.231   2.363  1.00  0.00     0.162 HD
HETATM    6  O1  UNL     1       8.084  29.222  -0.574  1.00  0.00    -0.268 OA
ENDBRANCH   1   2
BRANCH   1   7
HETATM    7  C4  UNL     1       8.275  26.856   2.173  1.00  0.00     0.100 C
BRANCH   7   8
HETATM    8  N2  UNL     1       8.694  26.971   3.506  1.00  0.00    -0.384 N
HETATM    9  C5  UNL     1       8.944  28.255   3.982  1.00  0.00     0.122 C
HETATM   10  C6  UNL     1       8.722  28.161   5.499  1.00  0.00     0.022 C
HETATM   11  C7  UNL     1       7.674  27.025   5.582  1.00  0.00     0.027 C
HETATM   12  C8  UNL     1       8.225  26.130   4.501  1.00  0.00     0.086 C
BRANCH  12  13
HETATM   13  C9  UNL     1       7.279  25.080   4.010  1.00  0.00     0.061 C
BRANCH  13  14
HETATM   14  C10 UNL     1       6.462  24.406   5.080  1.00  0.00     0.186 C
BRANCH  14  15
HETATM   15  N3  UNL     1       5.076  24.282   4.732  1.00  0.00    -0.354 N
ATOM     16  H3  UNL     1       4.747  24.726   3.875  1.00  0.00     0.162 HD
BRANCH  15  17
HETATM   17  C11 UNL     1       4.147  23.570   5.527  1.00  0.00     0.349 C
HETATM   18  O2  UNL     1       2.994  23.391   5.067  1.00  0.00    -0.284 OA
ENDBRANCH  15  17
ENDBRANCH  14  15
BRANCH  14  19
HETATM   19  C12 UNL     1       7.025  23.174   5.620  1.00  0.00     0.196 C
HETATM   20  O3  UNL     1       7.250  22.119   4.976  1.00  0.00    -0.646 OA
HETATM   21  O4  UNL     1       7.356  23.127   6.983  1.00  0.00    -0.646 OA
ENDBRANCH  14  19
ENDBRANCH  13  14
ENDBRANCH  12  13
ENDBRANCH   7   8
ENDBRANCH   1   7
BRANCH   1  22
HETATM   22  C13 UNL     1       9.884  27.263   0.238  1.00  0.00     0.119 C
BRANCH  22  23
HETATM   23  C14 UNL     1      11.295  27.209   0.770  1.00  0.00     0.034 C
BRANCH  23  24
HETATM   24  C15 UNL     1      12.344  27.953   0.063  1.00  0.00    -0.012 C
HETATM   25  C16 UNL     1      11.845  28.854  -1.048  1.00  0.00     0.005 C
HETATM   26  C17 UNL     1      13.065  29.612  -1.544  1.00  0.00     0.000 C
HETATM   27  C18 UNL     1      14.058  28.629  -2.179  1.00  0.00     0.000 C
HETATM   28  C19 UNL     1      14.432  27.613  -1.134  1.00  0.00     0.000 C
HETATM   29  C20 UNL     1      13.181  26.882  -0.698  1.00  0.00     0.005 C
ENDBRANCH  23  24
ENDBRANCH  22  23
BRANCH  22  30
HETATM   30  N4  UNL     1       9.589  25.948  -0.221  1.00  0.00    -0.388 N
ATOM     31  H4  UNL     1       9.641  25.182   0.449  1.00  0.00     0.156 HD
BRANCH  30  32
HETATM   32  C21 UNL     1       9.238  25.653  -1.521  1.00  0.00     0.224 C
BRANCH  32  33
HETATM   33  O5  UNL     1       8.208  24.655  -1.487  1.00  0.00    -0.376 OA
ATOM     34  H5  UNL     1       7.406  25.048  -1.808  1.00  0.00     0.212 HD
ENDBRANCH  32  33
BRANCH  32  35
HETATM   35  C22 UNL     1      10.330  25.054  -2.355  1.00  0.00     0.091 C
HETATM   36  C23 UNL     1      10.879  26.075  -3.350  1.00  0.00     0.022 C
BRANCH  35  37
HETATM   37  C24 UNL     1      10.083  23.749  -2.952  1.00  0.00     0.239 C
HETATM   38  O6  UNL     1      10.312  22.728  -2.306  1.00  0.00    -0.306 OA
ENDBRANCH  35  37
ENDBRANCH  32  35
ENDBRANCH  30  32
ENDBRANCH  22  30
ENDBRANCH   1  22
TORSDOF 16
ENDMDL