MODEL 3
REMARK VINA RESULT: -8.228761910      1.228      1.544
REMARK  16 active torsions:
REMARK  status: ('A' for Active; 'I' for Inactive)
REMARK    1  A    between atoms: C2_2  and  C3_3
REMARK    2  A    between atoms: C3_3  and  O1_4
REMARK    3  A    between atoms: O1_4  and  C4_5
REMARK    4  A    between atoms: C7_8  and  C8_9
REMARK    5  A    between atoms: C8_9  and  O2_10
REMARK    6  A    between atoms: O2_10  and  C9_11
REMARK    7  A    between atoms: C12_17  and  C13_18
REMARK    8  A    between atoms: C13_18  and  C14_19
REMARK    9  A    between atoms: C14_19  and  C15_20
REMARK   10  A    between atoms: C15_20  and  C16_21
REMARK   11  A    between atoms: C16_21  and  N2_22
REMARK   12  A    between atoms: C18_30  and  C19_31
REMARK   13  A    between atoms: C19_31  and  C20_32
REMARK   14  A    between atoms: C20_32  and  C21_33
REMARK   15  A    between atoms: C21_33  and  C22_34
REMARK   16  A    between atoms: C22_34  and  N4_35
ROOT
HETATM    1  C9  UNL     1       8.664  25.297   2.525  1.00  0.00     0.231 C
HETATM    2  C10 UNL     1       9.119  26.378   3.451  1.00  0.00     0.164 C
HETATM    3  N1  UNL     1       8.530  27.660   3.296  1.00  0.00    -0.356 N
ATOM      4  H1  UNL     1       8.058  28.033   4.119  1.00  0.00     0.162 HD
HETATM    5  C11 UNL     1       8.513  28.475   2.167  1.00  0.00     0.240 C
HETATM    6  O3  UNL     1       7.431  29.125   1.937  1.00  0.00    -0.271 OA
HETATM    7  C12 UNL     1       9.573  28.712   1.175  1.00  0.00     0.176 C
HETATM    8  N3  UNL     1      10.722  27.875   1.288  1.00  0.00    -0.346 N
ATOM      9  H3  UNL     1      11.356  28.085   2.059  1.00  0.00     0.163 HD
HETATM   10  C17 UNL     1      11.088  26.796   0.465  1.00  0.00     0.241 C
HETATM   11  O4  UNL     1      12.323  26.683   0.166  1.00  0.00    -0.271 OA
HETATM   12  C18 UNL     1      10.197  25.770  -0.096  1.00  0.00     0.176 C
HETATM   13  N5  UNL     1       8.808  26.006   0.076  1.00  0.00    -0.346 N
ATOM     14  H5  UNL     1       8.299  26.405  -0.712  1.00  0.00     0.163 HD
HETATM   15  C23 UNL     1       8.070  25.730   1.262  1.00  0.00     0.249 C
HETATM   16  O5  UNL     1       6.802  25.867   1.229  1.00  0.00    -0.271 OA
ENDROOT
BRANCH   1  17
HETATM   17  O2  UNL     1       7.751  24.437   3.148  1.00  0.00    -0.370 OA
BRANCH  17  18
HETATM   18  C8  UNL     1       7.852  24.405   4.516  1.00  0.00     0.207 C
BRANCH  18  19
HETATM   19  C7  UNL     1       6.576  23.887   5.045  1.00  0.00    -0.034 A
HETATM   20  C6  UNL     1       5.373  24.423   4.650  1.00  0.00     0.012 A
HETATM   21  C5  UNL     1       4.191  23.934   5.152  1.00  0.00     0.037 A
HETATM   22  C4  UNL     1       4.191  22.872   6.085  1.00  0.00     0.069 A
HETATM   23  C25 UNL     1       5.395  22.345   6.472  1.00  0.00     0.037 A
HETATM   24  C24 UNL     1       6.583  22.858   5.949  1.00  0.00     0.012 A
BRANCH  22  25
HETATM   25  O1  UNL     1       2.990  22.454   6.529  1.00  0.00    -0.348 OA
BRANCH  25  26
HETATM   26  C3  UNL     1       2.413  22.240   7.739  1.00  0.00     0.202 C
BRANCH  26  27
HETATM   27  C2  UNL     1       1.624  20.997   7.914  1.00  0.00    -0.011 C
HETATM   28  C1  UNL     1       0.377  20.935   8.337  1.00  0.00     0.009 C
ENDBRANCH  26  27
ENDBRANCH  25  26
ENDBRANCH  22  25
ENDBRANCH  18  19
ENDBRANCH  17  18
ENDBRANCH   1  17
BRANCH  12  29
HETATM   29  C19 UNL     1      10.546  25.597  -1.556  1.00  0.00     0.035 C
BRANCH  29  30
HETATM   30  C20 UNL     1       9.953  24.363  -2.167  1.00  0.00     0.004 C
BRANCH  30  31
HETATM   31  C21 UNL     1       8.866  24.733  -3.125  1.00  0.00     0.027 C
BRANCH  31  32
HETATM   32  C22 UNL     1       8.975  23.844  -4.350  1.00  0.00     0.229 C
BRANCH  32  33
HETATM   33  N4  UNL     1       9.689  22.616  -4.055  1.00  0.00    -0.079 N
ATOM     34  H43 UNL     1      10.618  22.613  -4.476  1.00  0.00     0.274 HD
ATOM     35  H42 UNL     1       9.961  22.570  -3.073  1.00  0.00     0.274 HD
ATOM     36  H41 UNL     1       9.151  21.795  -4.332  1.00  0.00     0.274 HD
ENDBRANCH  32  33
ENDBRANCH  31  32
ENDBRANCH  30  31
ENDBRANCH  29  30
ENDBRANCH  12  29
BRANCH   7  37
HETATM   37  C13 UNL     1       9.913  30.188   1.245  1.00  0.00     0.035 C
BRANCH  37  38
HETATM   38  C14 UNL     1      10.644  30.552   2.493  1.00  0.00     0.004 C
BRANCH  38  39
HETATM   39  C15 UNL     1      11.398  31.829   2.309  1.00  0.00     0.027 C
BRANCH  39  40
HETATM   40  C16 UNL     1      11.816  32.454   3.622  1.00  0.00     0.229 C
BRANCH  40  41
HETATM   41  N2  UNL     1      13.246  32.688   3.653  1.00  0.00    -0.079 N
ATOM     42  H23 UNL     1      13.471  33.669   3.486  1.00  0.00     0.274 HD
ATOM     43  H22 UNL     1      13.621  32.602   4.598  1.00  0.00     0.274 HD
ATOM     44  H21 UNL     1      13.732  32.074   2.999  1.00  0.00     0.274 HD
ENDBRANCH  40  41
ENDBRANCH  39  40
ENDBRANCH  38  39
ENDBRANCH  37  38
ENDBRANCH   7  37
TORSDOF 16
ENDMDL