MODEL 1
REMARK VINA RESULT: -8.003040159      0.000      0.000
REMARK  15 active torsions:
REMARK  status: ('A' for Active; 'I' for Inactive)
REMARK    1  A    between atoms: C2_2  and  C4_4
REMARK    2  A    between atoms: C4_4  and  N1_5
REMARK    3  A    between atoms: N1_5  and  C5_7
REMARK    4  A    between atoms: C5_7  and  C6_8
REMARK    5  A    between atoms: C5_7  and  C13_15
REMARK    6  A    between atoms: C6_8  and  C7_9
REMARK    7  A    between atoms: C13_15  and  O1_16
REMARK    8  A    between atoms: C13_15  and  C14_18
REMARK    9  A    between atoms: C14_18  and  C15_19
REMARK   10  A    between atoms: C15_19  and  C16_20
REMARK   11  A    between atoms: C15_19  and  C18_28
REMARK   12  A    between atoms: C16_20  and  C17_21
REMARK       I    between atoms: C17_21  and  N2_23
REMARK   13  A    between atoms: N2_23  and  N3_25
REMARK   14  A    between atoms: C18_28  and  C19_29
REMARK   15  A    between atoms: C18_28  and  N4_31
REMARK       I    between atoms: N4_31  and  C20_33
REMARK       I    between atoms: C20_33  and  N5_35
ROOT
HETATM    1  C15 UNL     1       7.868  25.781   4.340  1.00  0.00    -0.043 C
ENDROOT
BRANCH   1   2
HETATM    2  C14 UNL     1       7.418  25.712   2.954  1.00  0.00     0.016 C
BRANCH   2   3
HETATM    3  C13 UNL     1       8.343  25.467   1.833  1.00  0.00     0.190 C
BRANCH   3   4
HETATM    4  C5  UNL     1       8.025  26.480   0.700  1.00  0.00     0.034 C
BRANCH   4   5
HETATM    5  N1  UNL     1       7.259  27.570   1.088  1.00  0.00    -0.391 N
ATOM      6  H1  UNL     1       6.679  27.452   1.919  1.00  0.00     0.159 HD
BRANCH   5   7
HETATM    7  C4  UNL     1       7.204  28.800   0.459  1.00  0.00     0.123 C
BRANCH   7   8
HETATM    8  C2  UNL     1       7.672  29.872   1.477  1.00  0.00    -0.005 C
HETATM    9  C1  UNL     1       6.537  30.567   2.141  1.00  0.00     0.011 C
HETATM   10  C3  UNL     1       8.454  30.924   0.679  1.00  0.00     0.011 C
ENDBRANCH   7   8
ENDBRANCH   5   7
ENDBRANCH   4   5
BRANCH   4  11
HETATM   11  C6  UNL     1       9.130  26.607  -0.258  1.00  0.00     0.005 C
BRANCH  11  12
HETATM   12  C7  UNL     1      10.533  26.639   0.151  1.00  0.00     0.010 C
HETATM   13  C8  UNL     1      10.852  28.021   0.773  1.00  0.00     0.008 C
HETATM   14  C9  UNL     1      11.488  28.933  -0.240  1.00  0.00     0.001 C
HETATM   15  C10 UNL     1      12.846  28.484  -0.676  1.00  0.00     0.000 C
HETATM   16  C11 UNL     1      12.931  26.975  -0.466  1.00  0.00     0.001 C
HETATM   17  C12 UNL     1      11.560  26.434  -0.925  1.00  0.00     0.008 C
ENDBRANCH  11  12
ENDBRANCH   4  11
ENDBRANCH   3   4
BRANCH   3  18
HETATM   18  O1  UNL     1       8.347  24.239   1.248  1.00  0.00    -0.386 OA
ATOM     19  H1  UNL     1       8.691  23.640   1.900  1.00  0.00     0.210 HD
ENDBRANCH   3  18
ENDBRANCH   2   3
ENDBRANCH   1   2
BRANCH   1  20
HETATM   20  C16 UNL     1       7.772  27.102   5.041  1.00  0.00     0.141 C
BRANCH  20  21
HETATM   21  C17 UNL     1       8.916  27.964   4.646  1.00  0.00     0.239 C
HETATM   22  O2  UNL     1      10.002  27.555   4.181  1.00  0.00    -0.272 OA
HETATM   23  N2  UNL     1       8.790  29.365   4.799  1.00  0.00    -0.276 N
ATOM     24  H2  UNL     1       7.926  29.758   5.173  1.00  0.00     0.189 HD
BRANCH  23  25
HETATM   25  N3  UNL     1       9.830  30.207   4.445  1.00  0.00    -0.343 N
ATOM     26  H32 UNL     1      10.609  29.825   3.908  1.00  0.00     0.176 HD
ATOM     27  H31 UNL     1       9.817  31.190   4.717  1.00  0.00     0.176 HD
ENDBRANCH  23  25
ENDBRANCH  20  21
ENDBRANCH   1  20
BRANCH   1  28
HETATM   28  C18 UNL     1       7.681  24.584   5.216  1.00  0.00     0.177 C
BRANCH  28  29
HETATM   29  C19 UNL     1       8.561  23.446   5.069  1.00  0.00     0.260 C
HETATM   30  O3  UNL     1       9.719  23.630   4.750  1.00  0.00    -0.304 OA
ENDBRANCH  28  29
BRANCH  28  31
HETATM   31  N4  UNL     1       6.270  24.205   5.301  1.00  0.00    -0.328 N
HETATM   32  C20 UNL     1       5.790  23.226   6.203  1.00  0.00     0.319 C
HETATM   33  O4  UNL     1       6.537  22.599   7.001  1.00  0.00    -0.247 OA
HETATM   34  N5  UNL     1       4.407  22.904   6.244  1.00  0.00    -0.330 N
HETATM   35  C21 UNL     1       3.392  23.511   5.406  1.00  0.00     0.153 C
HETATM   36  C24 UNL     1       3.896  21.893   7.177  1.00  0.00     0.153 C
HETATM   37  C22 UNL     1       2.048  23.433   6.142  1.00  0.00     0.187 C
HETATM   38  O5  UNL     1       1.671  22.123   6.341  1.00  0.00    -0.388 OA
HETATM   39  C23 UNL     1       2.726  21.236   6.436  1.00  0.00     0.187 C
ATOM     40  H4  UNL     1       5.603  24.667   4.684  1.00  0.00     0.165 HD
ENDBRANCH  28  31
ENDBRANCH   1  28
TORSDOF 15
ENDMDL