MODEL 5
REMARK VINA RESULT: -7.943913631      1.686      2.514
REMARK  16 active torsions:
REMARK  status: ('A' for Active; 'I' for Inactive)
REMARK    1  A    between atoms: C2_2  and  N1_3
REMARK    2  A    between atoms: N1_3  and  C3_4
REMARK    3  A    between atoms: N1_3  and  C5_6
REMARK    4  A    between atoms: C5_6  and  C6_7
REMARK    5  A    between atoms: C6_7  and  C7_8
REMARK    6  A    between atoms: C7_8  and  N2_9
REMARK    7  A    between atoms: N2_9  and  C8_12
REMARK    8  A    between atoms: C8_12  and  C9_13
REMARK    9  A    between atoms: C9_13  and  C10_14
REMARK   10  A    between atoms: C10_14  and  N3_15
REMARK   11  A    between atoms: C12_20  and  N5_21
REMARK   12  A    between atoms: N5_21  and  C13_23
REMARK   13  A    between atoms: C13_23  and  C14_24
REMARK   14  A    between atoms: C14_24  and  C15_25
REMARK   15  A    between atoms: C16_30  and  N8_31
REMARK   16  A    between atoms: N8_31  and  C17_33
ROOT
HETATM    1  C17 UNL     1       8.591  29.409   4.032  1.00  0.00     0.136 C
HETATM    2  C18 UNL     1       9.798  30.208   3.773  1.00  0.00     0.091 C
HETATM    3  N9  UNL     1      10.757  30.858   3.593  1.00  0.00    -0.195 NA
HETATM    4  C19 UNL     1       8.697  28.790   5.426  1.00  0.00     0.047 C
HETATM    5  C20 UNL     1       7.470  29.006   6.258  1.00  0.00     0.004 C
HETATM    6  C21 UNL     1       7.174  30.477   6.468  1.00  0.00     0.000 C
HETATM    7  C22 UNL     1       7.712  31.301   5.309  1.00  0.00     0.004 C
HETATM    8  C23 UNL     1       7.461  30.474   4.068  1.00  0.00     0.047 C
ENDROOT
BRANCH   1   9
HETATM    9  N8  UNL     1       8.224  28.460   3.115  1.00  0.00    -0.203 N
ATOM     10  H8  UNL     1       7.581  28.902   2.458  1.00  0.00     0.179 HD
BRANCH   9  11
HETATM   11  C16 UNL     1       8.359  27.283   2.764  1.00  0.00     0.708 A
HETATM   12  N7  UNL     1       9.068  26.786   1.752  1.00  0.00    -0.021 N
HETATM   13  C12 UNL     1       9.157  25.478   1.433  1.00  0.00     0.707 A
ATOM     14  H7  UNL     1       9.585  27.446   1.172  1.00  0.00     0.203 HD
HETATM   15  N4  UNL     1       8.479  24.616   2.193  1.00  0.00    -0.022 N
HETATM   16  C11 UNL     1       7.722  25.039   3.257  1.00  0.00     0.707 A
ATOM     17  H4  UNL     1       8.524  23.620   1.978  1.00  0.00     0.203 HD
HETATM   18  N3  UNL     1       7.099  24.189   3.949  1.00  0.00    -0.225 N
HETATM   19  N10 UNL     1       7.681  26.342   3.514  1.00  0.00    -0.021 N
ATOM     20  H3  UNL     1       7.227  23.228   3.633  1.00  0.00     0.177 HD
ATOM     21  H10 UNL     1       7.121  26.663   4.303  1.00  0.00     0.203 HD
BRANCH  13  22
HETATM   22  N5  UNL     1       9.836  24.995   0.460  1.00  0.00    -0.225 N
ATOM     23  H5  UNL     1       9.747  24.005   0.228  1.00  0.00     0.177 HD
BRANCH  22  24
HETATM   24  C13 UNL     1      10.727  25.829  -0.312  1.00  0.00     0.147 C
BRANCH  24  25
HETATM   25  C14 UNL     1      10.666  25.476  -1.786  1.00  0.00     0.119 C
BRANCH  25  26
HETATM   26  C15 UNL     1       9.753  24.327  -1.948  1.00  0.00     0.232 C
HETATM   27  N6  UNL     1       8.363  24.639  -2.063  1.00  0.00    -0.062 NA
HETATM   28  O1  UNL     1      10.178  23.147  -1.982  1.00  0.00    -0.277 OA
ENDBRANCH  25  26
ENDBRANCH  24  25
ENDBRANCH  22  24
ENDBRANCH  13  22
BRANCH  18  29
HETATM   29  C10 UNL     1       6.257  24.306   5.078  1.00  0.00     0.139 C
BRANCH  29  30
HETATM   30  C9  UNL     1       6.775  23.395   6.202  1.00  0.00     0.048 C
BRANCH  30  31
HETATM   31  C8  UNL     1       5.756  22.261   6.307  1.00  0.00     0.234 C
BRANCH  31  32
HETATM   32  N2  UNL     1       4.430  22.774   6.190  1.00  0.00    -0.075 N
ATOM     33  H22 UNL     1       4.037  22.607   5.263  1.00  0.00     0.277 HD
ATOM     34  H21 UNL     1       4.417  23.795   6.176  1.00  0.00     0.277 HD
BRANCH  32  35
HETATM   35  C7  UNL     1       3.600  22.242   7.227  1.00  0.00     0.234 C
BRANCH  35  36
HETATM   36  C6  UNL     1       2.342  21.658   6.649  1.00  0.00     0.057 C
BRANCH  36  37
HETATM   37  C5  UNL     1       1.133  22.135   7.419  1.00  0.00     0.274 C
BRANCH  37  38
HETATM   38  N1  UNL     1       0.047  22.532   6.571  1.00  0.00     0.087 N
BRANCH  38  39
HETATM   39  C2  UNL     1       0.293  23.857   6.107  1.00  0.00     0.268 C
HETATM   40  C1  UNL     1      -0.752  24.866   6.537  1.00  0.00     0.037 C
ENDBRANCH  38  39
BRANCH  38  41
HETATM   41  C3  UNL     1      -1.206  22.283   7.185  1.00  0.00     0.268 C
HETATM   42  C4  UNL     1      -1.301  20.880   7.750  1.00  0.00     0.037 C
ENDBRANCH  38  41
ENDBRANCH  37  38
ENDBRANCH  36  37
ENDBRANCH  35  36
ENDBRANCH  32  35
ENDBRANCH  31  32
ENDBRANCH  30  31
ENDBRANCH  29  30
ENDBRANCH  18  29
ENDBRANCH   9  11
ENDBRANCH   1   9
TORSDOF 16
ENDMDL