MODEL 2
REMARK VINA RESULT: -8.242494492      1.246      1.585
REMARK  19 active torsions:
REMARK  status: ('A' for Active; 'I' for Inactive)
REMARK    1  A    between atoms: C2_2  and  C3_3
REMARK    2  A    between atoms: C3_3  and  C4_4
REMARK    3  A    between atoms: C4_4  and  O1_5
REMARK    4  A    between atoms: O1_5  and  C5_6
REMARK    5  A    between atoms: C5_6  and  C6_7
REMARK    6  A    between atoms: C6_7  and  C7_8
REMARK    7  A    between atoms: C7_8  and  N1_9
REMARK    8  A    between atoms: N1_9  and  C8_11
REMARK    9  A    between atoms: C8_11  and  O2_12
REMARK   10  A    between atoms: C9_14  and  C10_15
REMARK   11  A    between atoms: C10_15  and  C11_16
REMARK   12  A    between atoms: C11_16  and  C12_17
REMARK   13  A    between atoms: C12_17  and  C13_18
REMARK   14  A    between atoms: C15_20  and  S1_21
REMARK   15  A    between atoms: S1_21  and  N2_24
REMARK   16  A    between atoms: N2_24  and  C16_26
REMARK   17  A    between atoms: C20_30  and  O5_31
REMARK   18  A    between atoms: C21_33  and  O6_34
REMARK   19  A    between atoms: C22_36  and  O7_37
ROOT
HETATM    1  C13 UNL     1       8.604  25.257   4.003  1.00  0.00    -0.029 C
HETATM    2  C14 UNL     1       8.965  26.415   4.596  1.00  0.00     0.007 C
HETATM    3  C15 UNL     1       9.104  27.688   3.908  1.00  0.00     0.183 C
HETATM    4  C20 UNL     1       8.436  27.703   2.583  1.00  0.00     0.173 C
HETATM    5  C21 UNL     1       8.898  26.470   1.844  1.00  0.00     0.181 C
HETATM    6  C22 UNL     1       8.328  25.228   2.563  1.00  0.00     0.182 C
ENDROOT
BRANCH   1   7
HETATM    7  C12 UNL     1       8.518  24.106   4.840  1.00  0.00     0.009 C
BRANCH   7   8
HETATM    8  C11 UNL     1       7.759  23.751   5.806  1.00  0.00     0.001 C
BRANCH   8   9
HETATM    9  C10 UNL     1       6.416  23.311   5.931  1.00  0.00     0.004 C
BRANCH   9  10
HETATM   10  C9  UNL     1       5.289  23.740   5.455  1.00  0.00     0.055 C
HETATM   11  C8  UNL     1       3.940  23.321   5.499  1.00  0.00     0.135 C
BRANCH  11  12
HETATM   12  N1  UNL     1       3.331  22.246   6.105  1.00  0.00    -0.371 N
ATOM     13  H1  UNL     1       2.655  21.744   5.528  1.00  0.00     0.161 HD
BRANCH  12  14
HETATM   14  C7  UNL     1       3.509  21.737   7.411  1.00  0.00     0.123 C
BRANCH  14  15
HETATM   15  C6  UNL     1       2.406  21.701   8.376  1.00  0.00     0.046 C
BRANCH  15  16
HETATM   16  C5  UNL     1       1.071  21.339   7.927  1.00  0.00     0.169 C
BRANCH  16  17
HETATM   17  O1  UNL     1       0.604  22.111   6.830  1.00  0.00    -0.391 OA
BRANCH  17  18
HETATM   18  C4  UNL     1       0.023  23.291   7.172  1.00  0.00     0.167 C
BRANCH  18  19
HETATM   19  C3  UNL     1      -1.168  22.975   8.103  1.00  0.00     0.026 C
BRANCH  19  20
HETATM   20  C2  UNL     1      -2.363  22.629   7.227  1.00  0.00    -0.002 C
HETATM   21  C1  UNL     1      -2.685  21.160   7.335  1.00  0.00     0.005 C
ENDBRANCH  19  20
ENDBRANCH  18  19
ENDBRANCH  17  18
ENDBRANCH  16  17
ENDBRANCH  15  16
ENDBRANCH  14  15
ENDBRANCH  12  14
ENDBRANCH  11  12
BRANCH  11  22
HETATM   22  O2  UNL     1       3.145  24.144   4.819  1.00  0.00    -0.346 OA
ATOM     23  H2  UNL     1       2.414  23.744   4.364  1.00  0.00     0.219 HD
ENDBRANCH  11  22
ENDBRANCH   9  10
ENDBRANCH   8   9
ENDBRANCH   7   8
ENDBRANCH   1   7
BRANCH   6  24
HETATM   24  O7  UNL     1       6.957  25.185   2.367  1.00  0.00    -0.388 OA
ATOM     25  H7  UNL     1       6.777  24.798   1.519  1.00  0.00     0.210 HD
ENDBRANCH   6  24
BRANCH   3  26
HETATM   26  S1  UNL     1       8.532  29.021   4.957  1.00  0.00     0.236 S
HETATM   27  O3  UNL     1       7.105  29.326   4.545  1.00  0.00    -0.205 OA
HETATM   28  O4  UNL     1       9.344  30.225   4.570  1.00  0.00    -0.205 OA
BRANCH  26  29
HETATM   29  N2  UNL     1       8.544  28.688   6.602  1.00  0.00    -0.314 N
ATOM     30  H2  UNL     1       8.914  27.802   6.947  1.00  0.00     0.172 HD
BRANCH  29  31
HETATM   31  C16 UNL     1       8.036  29.651   7.505  1.00  0.00     0.092 C
HETATM   32  C17 UNL     1       8.558  29.527   8.946  1.00  0.00     0.026 C
HETATM   33  C18 UNL     1       7.154  29.860   9.403  1.00  0.00     0.004 C
HETATM   34  C19 UNL     1       6.655  29.335   8.077  1.00  0.00     0.026 C
ENDBRANCH  29  31
ENDBRANCH  26  29
ENDBRANCH   3  26
BRANCH   5  35
HETATM   35  O6  UNL     1      10.279  26.358   1.912  1.00  0.00    -0.390 OA
ATOM     36  H6  UNL     1      10.523  25.616   2.452  1.00  0.00     0.210 HD
ENDBRANCH   5  35
BRANCH   4  37
HETATM   37  O5  UNL     1       8.751  28.825   1.819  1.00  0.00    -0.391 OA
ATOM     38  H5  UNL     1       8.915  28.623   0.906  1.00  0.00     0.210 HD
ENDBRANCH   4  37
TORSDOF 19
ENDMDL