MODEL 4
REMARK VINA RESULT: -6.603065676      1.658      3.730
REMARK  16 active torsions:
REMARK  status: ('A' for Active; 'I' for Inactive)
REMARK    1  A    between atoms: C2_2  and  C3_3
REMARK    2  A    between atoms: C3_3  and  N1_4
REMARK    3  A    between atoms: N1_4  and  C4_5
REMARK    4  A    between atoms: N1_4  and  C14_15
REMARK    5  A    between atoms: C4_5  and  C5_6
REMARK    6  A    between atoms: C5_6  and  C6_7
REMARK    7  A    between atoms: C6_7  and  C7_8
REMARK    8  A    between atoms: C7_8  and  C8_9
REMARK    9  A    between atoms: C14_15  and  C15_16
REMARK   10  A    between atoms: C14_15  and  C16_19
REMARK   11  A    between atoms: C15_16  and  O1_17
REMARK       I    between atoms: C16_19  and  N2_21
REMARK   12  A    between atoms: C18_24  and  C19_25
REMARK   13  A    between atoms: C19_25  and  O4_26
REMARK   14  A    between atoms: C21_32  and  C22_33
REMARK   15  A    between atoms: C22_33  and  C23_35
REMARK   16  A    between atoms: C23_35  and  C24_36
ROOT
HETATM    1  C16 UNL     1       9.511  26.942   2.886  1.00  0.00     0.253 C
HETATM    2  O2  UNL     1      10.674  26.875   3.351  1.00  0.00    -0.270 OA
HETATM    3  N2  UNL     1       9.397  27.362   1.548  1.00  0.00    -0.264 N
HETATM    4  C17 UNL     1       8.188  27.488   0.810  1.00  0.00     0.252 C
HETATM    5  O3  UNL     1       7.306  26.604   0.919  1.00  0.00    -0.270 OA
HETATM    6  C18 UNL     1       7.915  28.619  -0.092  1.00  0.00     0.200 C
HETATM    7  N3  UNL     1       9.104  29.403  -0.366  1.00  0.00    -0.344 N
ATOM      8  H3  UNL     1       9.008  30.329  -0.781  1.00  0.00     0.163 HD
HETATM    9  C20 UNL     1      10.394  28.906  -0.068  1.00  0.00     0.249 C
HETATM   10  O5  UNL     1      11.382  29.496  -0.525  1.00  0.00    -0.271 OA
HETATM   11  C21 UNL     1      10.601  27.712   0.767  1.00  0.00     0.257 C
ENDROOT
BRANCH   1  12
HETATM   12  C14 UNL     1       8.382  26.581   3.779  1.00  0.00     0.204 C
BRANCH  12  13
HETATM   13  N1  UNL     1       8.064  25.226   3.829  1.00  0.00    -0.355 N
BRANCH  13  14
HETATM   14  C3  UNL     1       8.857  24.336   4.538  1.00  0.00     0.064 C
BRANCH  14  15
HETATM   15  C2  UNL     1       8.312  23.472   5.624  1.00  0.00     0.040 C
HETATM   16  C1  UNL     1       7.897  22.145   4.941  1.00  0.00     0.010 C
ENDBRANCH  14  15
ENDBRANCH  13  14
BRANCH  13  17
HETATM   17  C4  UNL     1       6.707  24.853   3.726  1.00  0.00     0.087 C
BRANCH  17  18
HETATM   18  C5  UNL     1       5.751  24.938   4.830  1.00  0.00    -0.009 C
BRANCH  18  19
HETATM   19  C6  UNL     1       4.583  24.049   4.950  1.00  0.00     0.029 C
BRANCH  19  20
HETATM   20  C7  UNL     1       4.663  23.024   6.068  1.00  0.00     0.008 C
BRANCH  20  21
HETATM   21  C8  UNL     1       3.347  22.303   6.285  1.00  0.00    -0.014 C
HETATM   22  C9  UNL     1       3.309  21.585   7.609  1.00  0.00     0.004 C
HETATM   23  C10 UNL     1       2.056  21.903   8.395  1.00  0.00     0.000 C
HETATM   24  C11 UNL     1       0.846  21.751   7.540  1.00  0.00     0.000 C
HETATM   25  C12 UNL     1       0.880  22.742   6.432  1.00  0.00     0.000 C
HETATM   26  C13 UNL     1       2.240  23.315   6.142  1.00  0.00     0.004 C
ENDBRANCH  20  21
ENDBRANCH  19  20
ENDBRANCH  18  19
ENDBRANCH  17  18
ENDBRANCH  13  17
ENDBRANCH  12  13
BRANCH  12  27
HETATM   27  C15 UNL     1       8.842  27.163   5.131  1.00  0.00     0.199 C
BRANCH  27  28
HETATM   28  O1  UNL     1       9.021  28.524   5.076  1.00  0.00    -0.398 OA
ATOM     29  H1  UNL     1       9.937  28.761   4.993  1.00  0.00     0.209 HD
ENDBRANCH  27  28
ENDBRANCH  12  27
ENDBRANCH   1  12
BRANCH  11  30
HETATM   30  C22 UNL     1      10.994  26.575  -0.107  1.00  0.00     0.164 C
HETATM   31  O6  UNL     1      12.144  26.166  -0.021  1.00  0.00    -0.295 OA
BRANCH  30  32
HETATM   32  C23 UNL     1      10.025  25.952  -1.057  1.00  0.00     0.125 C
BRANCH  32  33
HETATM   33  C24 UNL     1       9.911  24.515  -0.725  1.00  0.00     0.060 C
HETATM   34  N4  UNL     1       9.584  24.184   0.483  1.00  0.00    -0.411 N
ATOM     35  H42 UNL     1       9.413  24.910   1.179  1.00  0.00     0.155 HD
ATOM     36  H41 UNL     1       9.505  23.194   0.713  1.00  0.00     0.155 HD
ENDBRANCH  32  33
ENDBRANCH  30  32
ENDBRANCH  11  30
BRANCH   6  37
HETATM   37  C19 UNL     1       6.877  29.514   0.540  1.00  0.00     0.199 C
BRANCH  37  38
HETATM   38  O4  UNL     1       6.870  29.380   1.929  1.00  0.00    -0.398 OA
ATOM     39  H4  UNL     1       7.240  28.547   2.198  1.00  0.00     0.209 HD
ENDBRANCH  37  38
ENDBRANCH   6  37
TORSDOF 16
ENDMDL