MODEL 4
REMARK VINA RESULT: -7.785423041      1.283      1.782
REMARK  18 active torsions:
REMARK  status: ('A' for Active; 'I' for Inactive)
REMARK    1  A    between atoms: C2_2  and  C3_3
REMARK    2  A    between atoms: C3_3  and  C4_4
REMARK    3  A    between atoms: C4_4  and  C5_5
REMARK    4  A    between atoms: C5_5  and  C6_6
REMARK    5  A    between atoms: C6_6  and  C7_7
REMARK    6  A    between atoms: C7_7  and  C8_8
REMARK    7  A    between atoms: C8_8  and  C9_9
REMARK    8  A    between atoms: C9_9  and  C10_10
REMARK    9  A    between atoms: C10_10  and  C11_11
REMARK   10  A    between atoms: C11_11  and  C12_12
REMARK   11  A    between atoms: C12_12  and  N1_13
REMARK   12  A    between atoms: C14_15  and  C15_16
REMARK   13  A    between atoms: C15_16  and  N2_17
REMARK       I    between atoms: N2_17  and  C16_19
REMARK       I    between atoms: C16_19  and  N3_21
REMARK   14  A    between atoms: C20_27  and  O4_28
REMARK   15  A    between atoms: C21_30  and  O5_31
REMARK   16  A    between atoms: C22_33  and  O6_34
REMARK   17  A    between atoms: C23_36  and  C24_37
REMARK   18  A    between atoms: C24_37  and  O7_38
ROOT
HETATM    1  N1  UNL     1       8.362  25.575   4.641  1.00  0.00    -0.400 N
HETATM    2  C13 UNL     1       7.785  25.558   3.337  1.00  0.00     0.126 C
HETATM    3  C14 UNL     1       8.795  25.616   2.205  1.00  0.00     0.052 C
HETATM    4  C20 UNL     1       9.840  26.678   2.460  1.00  0.00     0.156 C
HETATM    5  C21 UNL     1       9.168  27.866   3.114  1.00  0.00     0.178 C
HETATM    6  C22 UNL     1       9.398  27.784   4.578  1.00  0.00     0.173 C
HETATM    7  C23 UNL     1       8.435  26.812   5.292  1.00  0.00     0.134 C
ENDROOT
BRANCH   1   8
HETATM    8  C12 UNL     1       8.049  24.394   5.385  1.00  0.00     0.144 C
BRANCH   8   9
HETATM    9  C11 UNL     1       6.675  23.923   5.304  1.00  0.00    -0.012 C
BRANCH   9  10
HETATM   10  C10 UNL     1       6.207  22.678   5.884  1.00  0.00    -0.029 C
BRANCH  10  11
HETATM   11  C9  UNL     1       4.958  22.491   6.600  1.00  0.00     0.027 C
BRANCH  11  12
HETATM   12  C8  UNL     1       3.684  22.981   5.979  1.00  0.00     0.004 C
BRANCH  12  13
HETATM   13  C7  UNL     1       2.507  22.947   6.911  1.00  0.00     0.000 C
BRANCH  13  14
HETATM   14  C6  UNL     1       2.684  22.004   8.076  1.00  0.00     0.000 C
BRANCH  14  15
HETATM   15  C5  UNL     1       1.549  20.990   8.030  1.00  0.00     0.000 C
BRANCH  15  16
HETATM   16  C4  UNL     1       0.273  21.624   7.518  1.00  0.00     0.000 C
BRANCH  16  17
HETATM   17  C3  UNL     1      -0.809  21.620   8.568  1.00  0.00    -0.000 C
BRANCH  17  18
HETATM   18  C2  UNL     1      -1.545  22.936   8.488  1.00  0.00    -0.005 C
HETATM   19  C1  UNL     1      -1.090  23.751   7.324  1.00  0.00     0.005 C
ENDBRANCH  17  18
ENDBRANCH  16  17
ENDBRANCH  15  16
ENDBRANCH  14  15
ENDBRANCH  13  14
ENDBRANCH  12  13
ENDBRANCH  11  12
ENDBRANCH  10  11
ENDBRANCH   9  10
ENDBRANCH   8   9
ENDBRANCH   1   8
BRANCH   7  20
HETATM   20  C24 UNL     1       7.135  27.567   5.392  1.00  0.00     0.191 C
BRANCH  20  21
HETATM   21  O7  UNL     1       6.932  28.232   6.570  1.00  0.00    -0.399 OA
ATOM     22  H7  UNL     1       6.264  28.907   6.547  1.00  0.00     0.209 HD
ENDBRANCH  20  21
ENDBRANCH   7  20
BRANCH   3  23
HETATM   23  C15 UNL     1       8.055  25.956   0.933  1.00  0.00     0.133 C
BRANCH  23  24
HETATM   24  N2  UNL     1       8.955  26.037  -0.203  1.00  0.00    -0.342 N
HETATM   25  C16 UNL     1       9.095  27.228  -0.963  1.00  0.00     0.326 C
HETATM   26  O1  UNL     1       8.408  28.254  -0.636  1.00  0.00    -0.247 OA
HETATM   27  N3  UNL     1       9.956  27.360  -2.075  1.00  0.00    -0.243 N
HETATM   28  C17 UNL     1      10.156  28.559  -2.904  1.00  0.00     0.166 C
HETATM   29  C19 UNL     1      10.826  26.405  -2.669  1.00  0.00     0.371 C
HETATM   30  C18 UNL     1      11.683  28.484  -3.047  1.00  0.00     0.201 C
HETATM   31  O2  UNL     1      11.867  27.108  -3.311  1.00  0.00    -0.302 OA
HETATM   32  O3  UNL     1      10.685  25.155  -2.624  1.00  0.00    -0.238 OA
ATOM     33  H2  UNL     1       9.502  25.216  -0.462  1.00  0.00     0.164 HD
ENDBRANCH  23  24
ENDBRANCH   3  23
BRANCH   6  34
HETATM   34  O6  UNL     1       9.184  29.027   5.214  1.00  0.00    -0.391 OA
ATOM     35  H6  UNL     1       9.565  29.050   6.083  1.00  0.00     0.210 HD
ENDBRANCH   6  34
BRANCH   4  36
HETATM   36  O4  UNL     1      10.868  26.173   3.264  1.00  0.00    -0.392 OA
ATOM     37  H4  UNL     1      10.731  26.416   4.172  1.00  0.00     0.210 HD
ENDBRANCH   4  36
BRANCH   5  38
HETATM   38  O5  UNL     1       9.795  29.056   2.675  1.00  0.00    -0.390 OA
ATOM     39  H5  UNL     1       9.253  29.800   2.909  1.00  0.00     0.210 HD
ENDBRANCH   5  38
TORSDOF 18
ENDMDL