MODEL 3
REMARK VINA RESULT: -7.847325467      2.232      7.393
REMARK  9 active torsions:
REMARK  status: ('A' for Active; 'I' for Inactive)
REMARK    1  A    between atoms: C4_6  and  C5_7
REMARK    2  A    between atoms: C5_7  and  O1_8
REMARK    3  A    between atoms: N4_20  and  C12_21
REMARK    4  A    between atoms: C12_21  and  C13_22
REMARK    5  A    between atoms: C13_22  and  C14_23
REMARK    6  A    between atoms: C14_23  and  N5_24
REMARK       I    between atoms: N5_24  and  C15_26
REMARK    7  A    between atoms: C15_26  and  C16_28
REMARK    8  A    between atoms: C17_29  and  C18_30
REMARK    9  A    between atoms: N6_34  and  C22_35
ROOT
HETATM    1  C1  UNL     1      23.412  34.839  16.062  1.00  0.00     0.040 C
HETATM    2  C2  UNL     1      23.105  33.373  16.164  1.00  0.00     0.018 C
HETATM    3  C3  UNL     1      22.596  32.904  17.298  1.00  0.00     0.103 A
HETATM    4  N1  UNL     1      22.344  33.776  18.402  1.00  0.00    -0.342 N
ATOM      5  H1  UNL     1      22.561  34.769  18.317  1.00  0.00     0.167 HD
HETATM    6  C4  UNL     1      21.797  33.280  19.613  1.00  0.00     0.064 A
HETATM    7  C6  UNL     1      21.539  31.982  19.657  1.00  0.00     0.087 A
HETATM    8  N2  UNL     1      21.023  31.198  20.645  1.00  0.00    -0.350 N
ATOM      9  H2  UNL     1      20.740  31.535  21.565  1.00  0.00     0.166 HD
HETATM   10  C7  UNL     1      20.936  29.923  20.243  1.00  0.00     0.076 A
HETATM   11  C8  UNL     1      21.404  29.824  18.951  1.00  0.00     0.090 A
HETATM   12  N3  UNL     1      21.310  28.542  18.567  1.00  0.00    -0.352 N
ATOM     13  H3  UNL     1      21.588  28.186  17.652  1.00  0.00     0.166 HD
HETATM   14  C9  UNL     1      20.789  27.778  19.576  1.00  0.00     0.048 A
HETATM   15  C10 UNL     1      20.485  26.452  19.732  1.00  0.00     0.047 A
HETATM   16  C11 UNL     1      19.954  25.989  20.916  1.00  0.00     0.092 A
HETATM   17  N4  UNL     1      19.728  26.823  21.930  1.00  0.00    -0.365 N
HETATM   18  C25 UNL     1      20.023  28.116  21.782  1.00  0.00     0.106 A
HETATM   19  C26 UNL     1      20.555  28.659  20.636  1.00  0.00     0.035 A
HETATM   20  C27 UNL     1      21.774  31.111  18.602  1.00  0.00     0.094 A
HETATM   21  N7  UNL     1      22.281  31.534  17.461  1.00  0.00    -0.334 N
HETATM   22  C28 UNL     1      22.499  30.547  16.414  1.00  0.00     0.158 C
ENDROOT
BRANCH  17  23
HETATM   23  C12 UNL     1      19.180  26.353  23.174  1.00  0.00     0.129 C
BRANCH  23  24
HETATM   24  C13 UNL     1      18.787  27.400  24.147  1.00  0.00     0.040 C
BRANCH  24  25
HETATM   25  C14 UNL     1      19.725  27.694  25.260  1.00  0.00     0.124 C
BRANCH  25  26
HETATM   26  N5  UNL     1      20.776  28.582  24.919  1.00  0.00    -0.358 N
HETATM   27  C15 UNL     1      22.115  28.118  24.557  1.00  0.00     0.241 C
HETATM   28  O2  UNL     1      22.268  26.895  24.573  1.00  0.00    -0.269 OA
ATOM     29  H5  UNL     1      20.591  29.586  24.925  1.00  0.00     0.162 HD
BRANCH  27  30
HETATM   30  C16 UNL     1      23.124  29.059  24.220  1.00  0.00     0.075 C
HETATM   31  C17 UNL     1      23.897  29.401  23.287  1.00  0.00     0.018 C
BRANCH  31  32
HETATM   32  C18 UNL     1      24.218  29.012  21.949  1.00  0.00    -0.021 A
HETATM   33  C19 UNL     1      24.098  27.758  21.424  1.00  0.00     0.014 A
HETATM   34  C20 UNL     1      24.423  27.522  20.083  1.00  0.00     0.018 A
HETATM   35  C21 UNL     1      24.864  28.544  19.286  1.00  0.00     0.090 A
HETATM   36  N6  UNL     1      24.992  29.790  19.777  1.00  0.00    -0.366 N
HETATM   37  C24 UNL     1      24.680  29.999  21.052  1.00  0.00     0.101 A
BRANCH  36  38
HETATM   38  C22 UNL     1      25.460  30.881  18.906  1.00  0.00     0.123 C
HETATM   39  C23 UNL     1      25.344  32.159  19.709  1.00  0.00     0.027 C
ENDBRANCH  36  38
ENDBRANCH  31  32
ENDBRANCH  27  30
ENDBRANCH  25  26
ENDBRANCH  24  25
ENDBRANCH  23  24
ENDBRANCH  17  23
BRANCH   6  40
HETATM   40  C5  UNL     1      21.536  34.154  20.763  1.00  0.00     0.223 C
BRANCH  40  41
HETATM   41  O1  UNL     1      22.120  33.620  21.925  1.00  0.00    -0.395 OA
ATOM     42  H1  UNL     1      22.089  34.255  22.631  1.00  0.00     0.209 HD
ENDBRANCH  40  41
ENDBRANCH   6  40
TORSDOF 9
ENDMDL