MODEL 3
REMARK VINA RESULT: -7.566488615      3.325      8.521
REMARK  11 active torsions:
REMARK  status: ('A' for Active; 'I' for Inactive)
REMARK    1  A    between atoms: C2_2  and  C3_3
REMARK    2  A    between atoms: C6_8  and  C7_9
REMARK    3  A    between atoms: C7_9  and  C8_10
REMARK    4  A    between atoms: C9_13  and  C10_14
REMARK    5  A    between atoms: C10_14  and  C11_15
REMARK    6  A    between atoms: C11_15  and  C12_16
REMARK       I    between atoms: C12_16  and  N3_18
REMARK    7  A    between atoms: N3_18  and  C13_19
REMARK    8  A    between atoms: N3_18  and  C15_21
REMARK    9  A    between atoms: C17_23  and  C18_24
REMARK   10  A    between atoms: N4_29  and  C22_30
REMARK   11  A    between atoms: C22_30  and  C23_31
ROOT
HETATM    1  C3  UNL     1      20.053  33.345  19.024  1.00  0.00     0.084 A
HETATM    2  N1  UNL     1      20.606  34.166  19.965  1.00  0.00    -0.347 N
ATOM      3  H1  UNL     1      20.269  35.100  20.201  1.00  0.00     0.167 HD
HETATM    4  C4  UNL     1      21.645  33.566  20.523  1.00  0.00     0.033 A
HETATM    5  C5  UNL     1      22.538  34.157  21.579  1.00  0.00     0.070 C
HETATM    6  C6  UNL     1      21.798  32.302  19.945  1.00  0.00     0.060 A
HETATM    7  N4  UNL     1      20.787  32.215  19.023  1.00  0.00    -0.331 N
ENDROOT
BRANCH   6   8
HETATM    8  C7  UNL     1      22.832  31.341  20.224  1.00  0.00     0.061 C
BRANCH   8   9
HETATM    9  C8  UNL     1      22.810  30.365  21.132  1.00  0.00     0.041 A
HETATM   10  N2  UNL     1      21.677  29.748  21.555  1.00  0.00    -0.355 N
HETATM   11  C9  UNL     1      21.940  28.811  22.488  1.00  0.00     0.043 A
ATOM     12  H2  UNL     1      20.743  29.966  21.208  1.00  0.00     0.166 HD
HETATM   13  C17 UNL     1      23.291  28.808  22.691  1.00  0.00     0.044 A
HETATM   14  C20 UNL     1      23.829  29.788  21.836  1.00  0.00    -0.019 A
HETATM   15  C21 UNL     1      25.286  30.091  21.785  1.00  0.00     0.052 C
BRANCH  11  16
HETATM   16  C10 UNL     1      21.005  28.072  23.062  1.00  0.00     0.013 C
BRANCH  16  17
HETATM   17  C11 UNL     1      20.586  28.158  24.454  1.00  0.00     0.132 C
BRANCH  17  18
HETATM   18  C12 UNL     1      19.261  27.489  24.659  1.00  0.00     0.223 C
HETATM   19  O1  UNL     1      18.915  26.625  23.813  1.00  0.00    -0.273 OA
HETATM   20  N3  UNL     1      18.392  27.768  25.734  1.00  0.00    -0.353 N
BRANCH  20  21
HETATM   21  C13 UNL     1      18.675  28.742  26.774  1.00  0.00     0.121 C
HETATM   22  C14 UNL     1      17.483  29.559  27.155  1.00  0.00     0.026 C
ENDBRANCH  20  21
BRANCH  20  23
HETATM   23  C15 UNL     1      17.126  27.016  25.790  1.00  0.00     0.121 C
HETATM   24  C16 UNL     1      15.981  27.773  25.204  1.00  0.00     0.026 C
ENDBRANCH  20  23
ENDBRANCH  17  18
ENDBRANCH  16  17
ENDBRANCH  11  16
BRANCH  13  25
HETATM   25  C18 UNL     1      24.132  27.990  23.580  1.00  0.00     0.158 C
HETATM   26  C19 UNL     1      24.307  28.220  25.015  1.00  0.00     0.097 C
HETATM   27  O2  UNL     1      24.753  27.016  23.065  1.00  0.00    -0.293 OA
ENDBRANCH  13  25
ENDBRANCH   8   9
ENDBRANCH   6   8
BRANCH   7  28
HETATM   28  C22 UNL     1      20.531  31.089  18.169  1.00  0.00     0.169 C
BRANCH  28  29
HETATM   29  C23 UNL     1      21.390  30.924  16.979  1.00  0.00    -0.035 A
HETATM   30  C24 UNL     1      22.276  29.894  16.775  1.00  0.00     0.026 A
HETATM   31  C25 UNL     1      23.030  29.797  15.595  1.00  0.00     0.090 A
HETATM   32  N5  UNL     1      22.886  30.729  14.640  1.00  0.00    -0.353 N
HETATM   33  C26 UNL     1      22.044  31.746  14.783  1.00  0.00     0.099 A
ATOM     34  H5  UNL     1      23.436  30.655  13.785  1.00  0.00     0.166 HD
HETATM   35  N6  UNL     1      21.961  32.612  13.811  1.00  0.00    -0.385 N
HETATM   36  C27 UNL     1      21.311  31.847  15.925  1.00  0.00     0.056 A
ATOM     37  H62 UNL     1      22.511  32.536  12.956  1.00  0.00     0.157 HD
ATOM     38  H61 UNL     1      21.314  33.393  13.921  1.00  0.00     0.157 HD
ENDBRANCH  28  29
ENDBRANCH   7  28
BRANCH   1  39
HETATM   39  C2  UNL     1      18.889  33.739  18.164  1.00  0.00     0.072 C
HETATM   40  C1  UNL     1      18.727  35.266  18.272  1.00  0.00     0.013 C
ENDBRANCH   1  39
TORSDOF 11
ENDMDL