MODEL 3
REMARK VINA RESULT: -5.713544167      6.336      8.996
REMARK  16 active torsions:
REMARK  status: ('A' for Active; 'I' for Inactive)
REMARK    1  A    between atoms: C2_2  and  N1_3
REMARK    2  A    between atoms: C3_6  and  C4_7
REMARK    3  A    between atoms: C5_8  and  C6_9
REMARK    4  A    between atoms: C7_10  and  C8_11
REMARK    5  A    between atoms: C9_12  and  C10_13
REMARK    6  A    between atoms: C10_13  and  C11_14
REMARK    7  A    between atoms: C11_14  and  C12_15
REMARK    8  A    between atoms: C13_16  and  C14_17
REMARK    9  A    between atoms: C19_22  and  C20_23
REMARK   10  A    between atoms: C20_23  and  N3_24
REMARK   11  A    between atoms: N3_24  and  N4_25
REMARK   12  A    between atoms: C21_28  and  C22_29
REMARK   13  A    between atoms: C24_31  and  C25_32
REMARK       I    between atoms: C25_32  and  N5_34
REMARK   14  A    between atoms: N5_34  and  C26_36
REMARK   15  A    between atoms: C26_36  and  C27_37
REMARK   16  A    between atoms: C28_38  and  C29_39
ROOT
HETATM    1  C29 UNL     1      26.332  36.719  31.600  1.00  0.00    -0.015 C
HETATM    2  C30 UNL     1      26.275  36.094  32.642  1.00  0.00    -0.097 C
HETATM    3  C31 UNL     1      26.231  35.327  33.899  1.00  0.00     0.113 C
ENDROOT
BRANCH   1   4
HETATM    4  C28 UNL     1      26.418  37.431  30.382  1.00  0.00    -0.013 C
HETATM    5  C27 UNL     1      26.482  38.019  29.331  1.00  0.00    -0.073 C
BRANCH   5   6
HETATM    6  C26 UNL     1      26.549  38.712  28.044  1.00  0.00     0.218 C
BRANCH   6   7
HETATM    7  N5  UNL     1      26.545  37.675  27.014  1.00  0.00    -0.345 N
HETATM    8  C25 UNL     1      27.229  37.947  25.815  1.00  0.00     0.271 C
HETATM    9  O1  UNL     1      27.833  39.071  25.662  1.00  0.00    -0.266 OA
ATOM     10  H5  UNL     1      26.064  36.787  27.158  1.00  0.00     0.163 HD
BRANCH   8  11
HETATM   11  C24 UNL     1      27.291  36.999  24.717  1.00  0.00     0.132 A
HETATM   12  N1  UNL     1      28.299  36.161  24.439  1.00  0.00    -0.261 N
HETATM   13  N2  UNL     1      28.060  35.503  23.279  1.00  0.00    -0.285 N
HETATM   14  C3  UNL     1      26.898  35.885  22.768  1.00  0.00     0.111 A
ATOM     15  H2  UNL     1      28.684  34.814  22.860  1.00  0.00     0.188 HD
HETATM   16  C21 UNL     1      26.394  36.839  23.673  1.00  0.00     0.013 A
BRANCH  12  17
HETATM   17  C2  UNL     1      29.469  35.938  25.195  1.00  0.00     0.106 C
HETATM   18  C1  UNL     1      29.620  35.095  26.191  1.00  0.00     0.032 C
ENDBRANCH  12  17
BRANCH  14  19
HETATM   19  C4  UNL     1      26.264  35.426  21.542  1.00  0.00    -0.033 C
HETATM   20  C5  UNL     1      25.714  35.047  20.537  1.00  0.00    -0.007 C
BRANCH  20  21
HETATM   21  C6  UNL     1      25.047  34.599  19.373  1.00  0.00    -0.001 C
HETATM   22  C7  UNL     1      24.451  34.208  18.379  1.00  0.00    -0.001 C
BRANCH  22  23
HETATM   23  C8  UNL     1      23.738  33.763  17.242  1.00  0.00    -0.014 C
HETATM   24  C9  UNL     1      23.122  33.368  16.287  1.00  0.00    -0.092 C
BRANCH  24  25
HETATM   25  C10 UNL     1      22.385  32.857  15.161  1.00  0.00     0.099 C
BRANCH  25  26
HETATM   26  C11 UNL     1      21.199  31.990  15.407  1.00  0.00     0.052 C
BRANCH  26  27
HETATM   27  C12 UNL     1      21.031  31.463  16.747  1.00  0.00    -0.043 A
HETATM   28  C13 UNL     1      21.764  30.416  17.221  1.00  0.00    -0.052 A
HETATM   29  C16 UNL     1      21.595  30.054  18.564  1.00  0.00     0.007 A
HETATM   30  C17 UNL     1      20.724  30.705  19.408  1.00  0.00     0.001 A
HETATM   31  C18 UNL     1      19.989  31.755  18.908  1.00  0.00     0.009 A
HETATM   32  C19 UNL     1      20.129  32.150  17.575  1.00  0.00    -0.035 A
BRANCH  28  33
HETATM   33  C14 UNL     1      22.599  29.574  16.377  1.00  0.00     0.034 C
HETATM   34  C15 UNL     1      24.069  29.748  16.812  1.00  0.00     0.010 C
ENDBRANCH  28  33
BRANCH  32  35
HETATM   35  C20 UNL     1      19.281  33.260  17.093  1.00  0.00     0.173 C
BRANCH  35  36
HETATM   36  N3  UNL     1      18.530  33.832  18.235  1.00  0.00    -0.144 NA
BRANCH  36  37
HETATM   37  N4  UNL     1      18.307  35.191  17.899  1.00  0.00    -0.348 N
ATOM     38  H42 UNL     1      18.871  35.989  18.191  1.00  0.00     0.172 HD
ATOM     39  H41 UNL     1      17.474  35.194  17.312  1.00  0.00     0.172 HD
ENDBRANCH  36  37
ENDBRANCH  35  36
ENDBRANCH  32  35
ENDBRANCH  26  27
ENDBRANCH  25  26
ENDBRANCH  24  25
ENDBRANCH  22  23
ENDBRANCH  20  21
ENDBRANCH  14  19
BRANCH  16  40
HETATM   40  C22 UNL     1      25.118  37.526  23.423  1.00  0.00     0.040 C
HETATM   41  C23 UNL     1      25.321  38.809  22.668  1.00  0.00     0.010 C
ENDBRANCH  16  40
ENDBRANCH   8  11
ENDBRANCH   6   7
ENDBRANCH   5   6
ENDBRANCH   1   4
TORSDOF 16
ENDMDL