MODEL 4
REMARK VINA RESULT: -8.726183477      1.272      1.915
REMARK  10 active torsions:
REMARK  status: ('A' for Active; 'I' for Inactive)
REMARK    1  A    between atoms: N1_2  and  C3_4
REMARK    2  A    between atoms: C5_8  and  C6_9
REMARK    3  A    between atoms: C6_9  and  C7_10
REMARK    4  A    between atoms: C9_14  and  C10_15
REMARK    5  A    between atoms: C10_15  and  C11_16
REMARK    6  A    between atoms: C11_16  and  C12_17
REMARK    7  A    between atoms: C12_17  and  C13_18
REMARK    8  A    between atoms: C13_18  and  C14_19
REMARK    9  A    between atoms: C14_19  and  C15_20
REMARK   10  A    between atoms: C15_20  and  C16_21
ROOT
HETATM    1  C13 UNL     1      21.736  31.143  20.459  1.00  0.00     0.000 C
ENDROOT
BRANCH   1   2
HETATM    2  C12 UNL     1      23.042  31.500  21.161  1.00  0.00     0.000 C
BRANCH   2   3
HETATM    3  C11 UNL     1      23.757  30.238  21.570  1.00  0.00     0.006 C
BRANCH   3   4
HETATM    4  C10 UNL     1      23.775  30.101  23.041  1.00  0.00     0.057 C
BRANCH   4   5
HETATM    5  C9  UNL     1      22.946  28.956  23.486  1.00  0.00     0.009 A
HETATM    6  N3  UNL     1      23.024  28.152  24.553  1.00  0.00    -0.369 N
HETATM    7  C8  UNL     1      22.034  27.248  24.561  1.00  0.00     0.095 A
ATOM      8  H3  UNL     1      23.747  28.218  25.270  1.00  0.00     0.165 HD
HETATM    9  C7  UNL     1      21.253  27.453  23.451  1.00  0.00    -0.035 A
HETATM   10  C28 UNL     1      21.814  28.511  22.779  1.00  0.00     0.033 A
BRANCH   9  11
HETATM   11  C6  UNL     1      20.028  26.678  23.043  1.00  0.00     0.099 C
BRANCH  11  12
HETATM   12  C5  UNL     1      18.934  26.975  24.037  1.00  0.00     0.046 A
HETATM   13  C4  UNL     1      17.741  26.303  24.191  1.00  0.00     0.132 A
HETATM   14  N2  UNL     1      17.078  26.913  25.195  1.00  0.00    -0.200 N
HETATM   15  C3  UNL     1      17.794  27.938  25.680  1.00  0.00     0.679 A
ATOM     16  H2  UNL     1      16.159  26.634  25.538  1.00  0.00     0.183 HD
HETATM   17  N6  UNL     1      18.944  27.962  24.949  1.00  0.00    -0.194 N
ATOM     18  H6  UNL     1      19.703  28.631  25.075  1.00  0.00     0.184 HD
BRANCH  15  19
HETATM   19  N1  UNL     1      17.487  28.748  26.634  1.00  0.00    -0.226 N
HETATM   20  C1  UNL     1      16.146  28.702  27.168  1.00  0.00     0.168 C
HETATM   21  C2  UNL     1      18.432  29.675  27.166  1.00  0.00     0.168 C
ENDBRANCH  15  19
ENDBRANCH  11  12
ENDBRANCH   9  11
ENDBRANCH   4   5
ENDBRANCH   3   4
ENDBRANCH   2   3
ENDBRANCH   1   2
BRANCH   1  22
HETATM   22  C14 UNL     1      20.647  32.126  20.724  1.00  0.00     0.001 C
BRANCH  22  23
HETATM   23  C15 UNL     1      21.123  33.525  20.505  1.00  0.00     0.010 C
BRANCH  23  24
HETATM   24  C16 UNL     1      20.736  33.966  19.129  1.00  0.00    -0.027 A
HETATM   25  C17 UNL     1      19.514  34.819  18.893  1.00  0.00     0.017 A
HETATM   26  C18 UNL     1      19.503  33.409  18.525  1.00  0.00     0.021 A
HETATM   27  C19 UNL     1      19.577  32.856  17.158  1.00  0.00     0.239 C
HETATM   28  N4  UNL     1      20.330  33.485  16.165  1.00  0.00    -0.056 N
HETATM   29  C20 UNL     1      21.679  32.943  16.051  1.00  0.00     0.217 C
ATOM     30  H42 UNL     1      19.848  33.456  15.266  1.00  0.00     0.278 HD
ATOM     31  H41 UNL     1      20.353  34.495  16.307  1.00  0.00     0.278 HD
HETATM   32  C21 UNL     1      21.666  31.630  15.332  1.00  0.00     0.171 C
HETATM   33  C23 UNL     1      22.570  33.790  15.223  1.00  0.00     0.254 C
HETATM   34  C24 UNL     1      22.170  32.848  17.465  1.00  0.00     0.062 A
HETATM   35  N5  UNL     1      23.001  31.535  14.813  1.00  0.00    -0.352 N
HETATM   36  C22 UNL     1      23.376  32.867  14.418  1.00  0.00     0.290 C
ATOM     37  H5  UNL     1      23.571  30.692  14.740  1.00  0.00     0.162 HD
HETATM   38  O1  UNL     1      24.234  33.171  13.549  1.00  0.00    -0.264 OA
HETATM   39  O2  UNL     1      22.691  35.039  15.145  1.00  0.00    -0.284 OA
HETATM   40  C25 UNL     1      23.506  33.096  17.879  1.00  0.00    -0.022 A
HETATM   41  C27 UNL     1      21.832  34.142  18.117  1.00  0.00     0.027 A
HETATM   42  C26 UNL     1      23.225  34.217  18.464  1.00  0.00    -0.024 A
ENDBRANCH  23  24
ENDBRANCH  22  23
ENDBRANCH   1  22
TORSDOF 10
ENDMDL