MODEL 2
REMARK VINA RESULT: -8.665664470      1.252      1.675
REMARK  11 active torsions:
REMARK  status: ('A' for Active; 'I' for Inactive)
REMARK    1  A    between atoms: C3_5  and  C4_6
REMARK    2  A    between atoms: C4_6  and  C5_7
REMARK    3  A    between atoms: C11_13  and  C12_14
REMARK    4  A    between atoms: C12_14  and  C13_15
REMARK    5  A    between atoms: N2_19  and  C17_20
REMARK    6  A    between atoms: C17_20  and  C18_21
REMARK    7  A    between atoms: C20_23  and  C21_24
REMARK    8  A    between atoms: C21_24  and  N3_25
REMARK       I    between atoms: C22_27  and  N5_29
REMARK    9  A    between atoms: C27_37  and  C28_38
REMARK   10  A    between atoms: C28_38  and  C29_39
REMARK   11  A    between atoms: C29_39  and  O1_40
ROOT
HETATM    1  C5  UNL     1      22.741  29.369  16.555  1.00  0.00    -0.033 A
HETATM    2  C6  UNL     1      23.212  28.569  17.556  1.00  0.00     0.014 A
HETATM    3  C7  UNL     1      22.846  28.749  18.888  1.00  0.00     0.031 A
HETATM    4  C8  UNL     1      21.986  29.745  19.268  1.00  0.00     0.045 A
HETATM    5  C9  UNL     1      21.500  30.566  18.245  1.00  0.00    -0.002 A
HETATM    6  C10 UNL     1      21.879  30.371  16.921  1.00  0.00     0.025 A
HETATM    7  C11 UNL     1      20.645  31.593  18.532  1.00  0.00    -0.044 A
HETATM    8  C15 UNL     1      20.281  31.789  19.855  1.00  0.00     0.025 A
HETATM    9  C16 UNL     1      20.779  30.961  20.832  1.00  0.00     0.092 A
HETATM   10  N2  UNL     1      21.637  29.930  20.545  1.00  0.00    -0.350 N
ENDROOT
BRANCH  10  11
HETATM   11  C17 UNL     1      22.105  29.095  21.601  1.00  0.00     0.185 C
BRANCH  11  12
HETATM   12  C18 UNL     1      21.007  28.161  21.989  1.00  0.00     0.028 A
HETATM   13  C19 UNL     1      20.213  28.239  23.132  1.00  0.00     0.036 A
HETATM   14  C20 UNL     1      19.328  27.188  23.129  1.00  0.00    -0.023 A
HETATM   15  C24 UNL     1      19.574  26.470  21.997  1.00  0.00     0.097 A
HETATM   16  N6  UNL     1      20.587  27.077  21.332  1.00  0.00    -0.367 N
ATOM     17  H6  UNL     1      20.977  26.749  20.447  1.00  0.00     0.165 HD
BRANCH  14  18
HETATM   18  C21 UNL     1      18.288  26.861  24.144  1.00  0.00     0.162 C
BRANCH  18  19
HETATM   19  N3  UNL     1      18.490  27.588  25.358  1.00  0.00    -0.360 N
HETATM   20  C22 UNL     1      17.581  28.069  26.125  1.00  0.00     0.183 C
HETATM   21  N4  UNL     1      16.190  27.945  25.872  1.00  0.00    -0.064 NA
HETATM   22  N5  UNL     1      18.007  28.760  27.289  1.00  0.00    -0.369 N
HETATM   23  C23 UNL     1      18.505  30.108  27.137  1.00  0.00     0.148 C
ATOM     24  H5  UNL     1      17.963  28.317  28.207  1.00  0.00     0.161 HD
ATOM     25  H3  UNL     1      19.457  27.740  25.645  1.00  0.00     0.162 HD
ENDBRANCH  18  19
ENDBRANCH  14  18
ENDBRANCH  11  12
ENDBRANCH  10  11
BRANCH   7  26
HETATM   26  C12 UNL     1      20.099  32.469  17.447  1.00  0.00     0.039 C
BRANCH  26  27
HETATM   27  C13 UNL     1      18.817  33.139  17.817  1.00  0.00     0.000 C
HETATM   28  C14 UNL     1      19.156  34.585  18.152  1.00  0.00     0.005 C
ENDBRANCH  26  27
ENDBRANCH   7  26
BRANCH   1  29
HETATM   29  C4  UNL     1      23.144  29.148  15.178  1.00  0.00     0.041 C
BRANCH  29  30
HETATM   30  C3  UNL     1      22.858  27.999  14.583  1.00  0.00     0.040 A
HETATM   31  N1  UNL     1      23.256  26.763  14.914  1.00  0.00    -0.356 N
HETATM   32  C2  UNL     1      22.755  25.856  14.066  1.00  0.00     0.030 A
ATOM     33  H1  UNL     1      23.860  26.544  15.706  1.00  0.00     0.166 HD
HETATM   34  C1  UNL     1      22.930  24.550  14.083  1.00  0.00     0.043 C
HETATM   35  C27 UNL     1      21.995  26.537  13.142  1.00  0.00    -0.022 A
HETATM   36  C25 UNL     1      22.062  27.866  13.467  1.00  0.00    -0.027 A
HETATM   37  C26 UNL     1      21.402  28.991  12.757  1.00  0.00     0.051 C
BRANCH  35  38
HETATM   38  C28 UNL     1      21.249  25.910  11.995  1.00  0.00     0.067 C
BRANCH  38  39
HETATM   39  C29 UNL     1      19.773  25.829  12.307  1.00  0.00     0.168 C
BRANCH  39  40
HETATM   40  O1  UNL     1      19.036  26.598  11.429  1.00  0.00    -0.401 OA
ATOM     41  H1  UNL     1      19.148  27.524  11.608  1.00  0.00     0.209 HD
ENDBRANCH  39  40
ENDBRANCH  38  39
ENDBRANCH  35  38
ENDBRANCH  29  30
ENDBRANCH   1  29
TORSDOF 11
ENDMDL