MODEL 4
REMARK VINA RESULT: -7.546541053      2.142      2.873
REMARK  16 active torsions:
REMARK  status: ('A' for Active; 'I' for Inactive)
REMARK    1  A    between atoms: C2_2  and  C3_3
REMARK    2  A    between atoms: C3_3  and  C4_4
REMARK    3  A    between atoms: C4_4  and  N1_5
REMARK    4  A    between atoms: C4_4  and  N2_8
REMARK    5  A    between atoms: N1_5  and  C5_6
REMARK    6  A    between atoms: N2_8  and  C7_10
REMARK    7  A    between atoms: C8_13  and  C9_14
REMARK    8  A    between atoms: C9_14  and  O1_15
REMARK    9  A    between atoms: C10_17  and  C11_18
REMARK   10  A    between atoms: C11_18  and  C12_19
REMARK   11  A    between atoms: C12_19  and  C13_20
REMARK   12  A    between atoms: N4_23  and  C16_24
REMARK   13  A    between atoms: C16_24  and  C17_25
REMARK   14  A    between atoms: C18_26  and  C19_27
REMARK   15  A    between atoms: C20_28  and  C21_29
REMARK   16  A    between atoms: C21_29  and  N5_32
REMARK       I    between atoms: N5_32  and  C24_34
ROOT
HETATM    1  C12 UNL     1      20.257  30.231  19.410  1.00  0.00     0.045 C
ENDROOT
BRANCH   1   2
HETATM    2  C11 UNL     1      20.942  28.911  19.523  1.00  0.00     0.064 C
BRANCH   2   3
HETATM    3  C10 UNL     1      20.460  27.933  20.498  1.00  0.00     0.052 A
HETATM    4  C8  UNL     1      20.322  26.542  20.297  1.00  0.00     0.073 A
HETATM    5  N3  UNL     1      19.773  26.024  21.404  1.00  0.00    -0.191 N
HETATM    6  C7  UNL     1      19.556  26.990  22.303  1.00  0.00     0.685 A
ATOM      7  H3  UNL     1      19.553  25.037  21.541  1.00  0.00     0.184 HD
HETATM    8  N6  UNL     1      19.983  28.146  21.738  1.00  0.00    -0.193 N
ATOM      9  H6  UNL     1      19.947  29.058  22.192  1.00  0.00     0.184 HD
BRANCH   4  10
HETATM   10  C9  UNL     1      20.733  25.784  19.087  1.00  0.00     0.223 C
BRANCH  10  11
HETATM   11  O1  UNL     1      20.381  24.433  19.290  1.00  0.00    -0.395 OA
ATOM     12  H1  UNL     1      20.812  24.140  20.084  1.00  0.00     0.209 HD
ENDBRANCH  10  11
ENDBRANCH   4  10
BRANCH   6  13
HETATM   13  N2  UNL     1      18.937  26.937  23.446  1.00  0.00    -0.168 N
ATOM     14  H2  UNL     1      17.993  26.558  23.517  1.00  0.00     0.186 HD
BRANCH  13  15
HETATM   15  C4  UNL     1      19.637  27.435  24.620  1.00  0.00     0.163 C
BRANCH  15  16
HETATM   16  C3  UNL     1      18.918  28.023  25.804  1.00  0.00     0.092 C
BRANCH  16  17
HETATM   17  C2  UNL     1      17.443  27.628  25.634  1.00  0.00     0.004 C
HETATM   18  C1  UNL     1      16.521  28.366  26.566  1.00  0.00     0.005 C
ENDBRANCH  16  17
ENDBRANCH  15  16
BRANCH  15  19
HETATM   19  N1  UNL     1      20.845  27.363  24.654  1.00  0.00    -0.435 NA
BRANCH  19  20
HETATM   20  C5  UNL     1      22.167  27.288  24.719  1.00  0.00     0.215 C
HETATM   21  C6  UNL     1      22.799  28.536  24.069  1.00  0.00     0.041 C
ENDBRANCH  19  20
ENDBRANCH  15  19
ENDBRANCH  13  15
ENDBRANCH   6  13
ENDBRANCH   2   3
ENDBRANCH   1   2
BRANCH   1  22
HETATM   22  C13 UNL     1      20.930  31.010  18.278  1.00  0.00    -0.049 A
HETATM   23  C14 UNL     1      22.136  30.566  17.770  1.00  0.00     0.025 A
HETATM   24  C15 UNL     1      22.739  31.181  16.695  1.00  0.00     0.092 A
HETATM   25  N4  UNL     1      22.172  32.247  16.094  1.00  0.00    -0.355 N
HETATM   26  C26 UNL     1      20.990  32.695  16.588  1.00  0.00     0.098 A
HETATM   27  C27 UNL     1      20.347  32.096  17.677  1.00  0.00    -0.040 A
HETATM   28  C28 UNL     1      19.077  32.660  18.147  1.00  0.00     0.050 C
BRANCH  25  29
HETATM   29  C16 UNL     1      22.819  32.819  14.942  1.00  0.00     0.222 C
BRANCH  29  30
HETATM   30  C17 UNL     1      22.888  34.272  14.976  1.00  0.00    -0.072 C
HETATM   31  C18 UNL     1      22.896  35.494  14.991  1.00  0.00    -0.013 C
BRANCH  31  32
HETATM   32  C19 UNL     1      22.847  36.907  15.005  1.00  0.00    -0.012 C
HETATM   33  C20 UNL     1      22.807  38.121  14.983  1.00  0.00    -0.061 C
BRANCH  33  34
HETATM   34  C21 UNL     1      22.748  39.602  14.911  1.00  0.00     0.090 C
HETATM   35  C22 UNL     1      22.698  40.014  13.455  1.00  0.00     0.053 C
HETATM   36  C23 UNL     1      23.997  40.217  15.501  1.00  0.00     0.053 C
BRANCH  34  37
HETATM   37  N5  UNL     1      21.617  40.107  15.650  1.00  0.00    -0.342 N
HETATM   38  C24 UNL     1      20.311  39.771  15.235  1.00  0.00     0.214 C
HETATM   39  C25 UNL     1      19.096  40.256  15.955  1.00  0.00     0.117 C
HETATM   40  O2  UNL     1      20.115  39.045  14.235  1.00  0.00    -0.274 OA
ATOM     41  H5  UNL     1      21.760  40.703  16.466  1.00  0.00     0.164 HD
ENDBRANCH  34  37
ENDBRANCH  33  34
ENDBRANCH  31  32
ENDBRANCH  29  30
ENDBRANCH  25  29
ENDBRANCH   1  22
TORSDOF 16
ENDMDL