MODEL 3
REMARK VINA RESULT: -8.441842103      4.300      7.998
REMARK  15 active torsions:
REMARK  status: ('A' for Active; 'I' for Inactive)
REMARK    1  A    between atoms: C3_5  and  C4_6
REMARK    2  A    between atoms: C7_9  and  C8_10
REMARK    3  A    between atoms: C8_10  and  C9_11
REMARK    4  A    between atoms: C9_11  and  C10_12
REMARK    5  A    between atoms: C10_12  and  N2_13
REMARK    6  A    between atoms: N2_13  and  C11_14
REMARK    7  A    between atoms: N2_13  and  N5_30
REMARK    8  A    between atoms: C11_14  and  C12_15
REMARK    9  A    between atoms: C13_16  and  C14_17
REMARK   10  A    between atoms: C17_22  and  C18_23
REMARK   11  A    between atoms: C18_23  and  C19_24
REMARK   12  A    between atoms: C19_24  and  C20_25
REMARK   13  A    between atoms: C20_25  and  O1_26
REMARK   14  A    between atoms: N5_30  and  C22_32
REMARK   15  A    between atoms: C23_33  and  C24_34
ROOT
HETATM    1  N2  UNL     1      23.841  28.685  21.142  1.00  0.00    -0.212 NA
ENDROOT
BRANCH   1   2
HETATM    2  C10 UNL     1      23.736  29.090  22.507  1.00  0.00     0.119 C
BRANCH   2   3
HETATM    3  C9  UNL     1      22.578  28.368  23.167  1.00  0.00     0.044 C
BRANCH   3   4
HETATM    4  C8  UNL     1      21.375  28.511  22.331  1.00  0.00    -0.012 C
BRANCH   4   5
HETATM    5  C7  UNL     1      20.270  27.867  22.601  1.00  0.00    -0.012 A
HETATM    6  C2  UNL     1      19.518  27.154  21.674  1.00  0.00     0.033 A
HETATM    7  C1  UNL     1      19.841  27.049  20.405  1.00  0.00     0.044 C
HETATM    8  N1  UNL     1      18.478  26.651  22.343  1.00  0.00    -0.360 N
HETATM    9  C3  UNL     1      18.521  26.995  23.625  1.00  0.00     0.010 A
ATOM     10  H1  UNL     1      17.746  26.076  21.925  1.00  0.00     0.166 HD
HETATM   11  C6  UNL     1      19.653  27.774  23.828  1.00  0.00     0.038 A
BRANCH   9  12
HETATM   12  C4  UNL     1      17.521  26.610  24.663  1.00  0.00     0.052 C
HETATM   13  C5  UNL     1      17.574  27.672  25.735  1.00  0.00     0.011 C
ENDBRANCH   9  12
ENDBRANCH   4   5
ENDBRANCH   3   4
ENDBRANCH   2   3
ENDBRANCH   1   2
BRANCH   1  14
HETATM   14  C11 UNL     1      24.508  27.450  20.946  1.00  0.00     0.208 C
BRANCH  14  15
HETATM   15  C12 UNL     1      24.161  26.952  19.590  1.00  0.00    -0.083 C
HETATM   16  C13 UNL     1      23.859  26.554  18.493  1.00  0.00    -0.045 C
BRANCH  16  17
HETATM   17  C14 UNL     1      23.474  26.092  17.191  1.00  0.00     0.112 A
HETATM   18  C15 UNL     1      23.263  24.801  16.761  1.00  0.00     0.042 A
HETATM   19  C16 UNL     1      23.401  23.597  17.621  1.00  0.00     0.071 C
HETATM   20  N3  UNL     1      22.917  24.784  15.470  1.00  0.00    -0.347 N
HETATM   21  C17 UNL     1      22.900  26.077  15.044  1.00  0.00     0.084 A
ATOM     22  H3  UNL     1      22.705  23.958  14.910  1.00  0.00     0.167 HD
HETATM   23  N4  UNL     1      23.239  26.862  16.093  1.00  0.00    -0.332 N
HETATM   24  C21 UNL     1      23.349  28.307  16.058  1.00  0.00     0.158 C
BRANCH  21  25
HETATM   25  C18 UNL     1      22.577  26.447  13.658  1.00  0.00     0.079 C
BRANCH  25  26
HETATM   26  C19 UNL     1      21.733  25.479  12.907  1.00  0.00     0.033 C
BRANCH  26  27
HETATM   27  C20 UNL     1      20.252  25.597  13.163  1.00  0.00     0.164 C
BRANCH  27  28
HETATM   28  O1  UNL     1      19.928  25.077  14.432  1.00  0.00    -0.401 OA
ATOM     29  H1  UNL     1      19.014  24.818  14.461  1.00  0.00     0.209 HD
ENDBRANCH  27  28
ENDBRANCH  26  27
ENDBRANCH  25  26
ENDBRANCH  21  25
ENDBRANCH  16  17
ENDBRANCH  14  15
ENDBRANCH   1  14
BRANCH   1  30
HETATM   30  N5  UNL     1      24.195  29.712  20.292  1.00  0.00    -0.277 N
ATOM     31  H5  UNL     1      25.151  29.794  19.946  1.00  0.00     0.191 HD
BRANCH  30  32
HETATM   32  C22 UNL     1      23.202  30.653  19.908  1.00  0.00     0.027 C
HETATM   33  C23 UNL     1      22.345  31.450  19.600  1.00  0.00    -0.043 C
BRANCH  33  34
HETATM   34  C24 UNL     1      21.316  32.391  19.257  1.00  0.00     0.019 A
HETATM   35  C25 UNL     1      20.204  31.977  18.545  1.00  0.00     0.021 A
HETATM   36  C26 UNL     1      19.181  32.831  18.185  1.00  0.00     0.008 A
HETATM   37  C27 UNL     1      19.295  34.159  18.569  1.00  0.00    -0.062 A
HETATM   38  C28 UNL     1      18.193  35.091  18.188  1.00  0.00     0.048 C
HETATM   39  C29 UNL     1      20.379  34.623  19.277  1.00  0.00     0.008 A
HETATM   40  C30 UNL     1      21.369  33.730  19.608  1.00  0.00     0.021 A
ENDBRANCH  33  34
ENDBRANCH  30  32
ENDBRANCH   1  30
TORSDOF 15
ENDMDL