MODEL 5
REMARK VINA RESULT: -7.402290007      2.293      5.388
REMARK  8 active torsions:
REMARK  status: ('A' for Active; 'I' for Inactive)
REMARK    1  A    between atoms: C2_2  and  C3_3
REMARK    2  A    between atoms: C3_3  and  C4_4
REMARK    3  A    between atoms: C4_4  and  C5_5
REMARK    4  A    between atoms: C5_5  and  C6_6
REMARK    5  A    between atoms: C7_7  and  C8_8
REMARK       I    between atoms: N1_11  and  C11_13
REMARK    6  A    between atoms: C22_33  and  C23_34
REMARK    7  A    between atoms: C23_34  and  C24_35
REMARK    8  A    between atoms: C24_35  and  C25_36
ROOT
HETATM    1  C8  UNL     1      22.406  30.769  16.245  1.00  0.00     0.114 C
HETATM    2  C9  UNL     1      22.107  29.432  16.794  1.00  0.00     0.105 C
HETATM    3  C10 UNL     1      23.255  28.502  16.782  1.00  0.00     0.083 C
HETATM    4  N1  UNL     1      23.712  28.100  15.659  1.00  0.00    -0.301 N
ATOM      5  H1  UNL     1      24.504  27.458  15.694  1.00  0.00     0.171 HD
HETATM    6  C11 UNL     1      23.245  28.444  14.394  1.00  0.00     0.334 C
HETATM    7  N2  UNL     1      24.060  29.163  13.456  1.00  0.00    -0.040 NA
HETATM    8  O1  UNL     1      22.073  28.150  13.974  1.00  0.00    -0.251 OA
HETATM    9  N3  UNL     1      23.875  28.008  17.964  1.00  0.00    -0.366 N
ATOM     10  H3  UNL     1      24.888  28.107  18.021  1.00  0.00     0.162 HD
HETATM   11  C12 UNL     1      23.226  27.383  19.087  1.00  0.00     0.064 A
HETATM   12  C13 UNL     1      24.246  26.253  19.507  1.00  0.00     0.044 C
HETATM   13  C14 UNL     1      21.994  26.624  18.791  1.00  0.00     0.065 A
HETATM   14  C15 UNL     1      20.903  26.684  19.753  1.00  0.00     0.006 A
HETATM   15  C16 UNL     1      20.939  27.479  20.785  1.00  0.00     0.039 A
HETATM   16  N4  UNL     1      19.996  27.636  21.743  1.00  0.00    -0.365 N
ATOM     17  H4  UNL     1      19.089  27.172  21.797  1.00  0.00     0.165 HD
HETATM   18  C17 UNL     1      20.501  28.523  22.603  1.00  0.00     0.089 A
HETATM   19  C18 UNL     1      21.756  28.933  22.203  1.00  0.00     0.031 A
HETATM   20  C19 UNL     1      22.034  28.256  21.032  1.00  0.00     0.006 A
HETATM   21  C20 UNL     1      23.141  28.278  20.284  1.00  0.00     0.050 A
HETATM   22  C21 UNL     1      24.205  29.202  20.656  1.00  0.00     0.251 C
HETATM   23  O2  UNL     1      24.559  29.196  21.889  1.00  0.00    -0.268 OA
HETATM   24  N5  UNL     1      24.865  30.103  19.741  1.00  0.00    -0.344 N
ATOM     25  H5  UNL     1      25.880  30.050  19.655  1.00  0.00     0.163 HD
HETATM   26  C22 UNL     1      24.157  31.079  18.940  1.00  0.00     0.177 C
HETATM   27  C27 UNL     1      24.595  31.121  17.522  1.00  0.00     0.241 C
HETATM   28  O3  UNL     1      25.832  30.988  17.326  1.00  0.00    -0.271 OA
HETATM   29  N6  UNL     1      23.718  31.296  16.430  1.00  0.00    -0.351 N
ATOM     30  H6  UNL     1      24.070  31.879  15.671  1.00  0.00     0.163 HD
ENDROOT
BRANCH   1  31
HETATM   31  C7  UNL     1      21.457  31.772  16.900  1.00  0.00    -0.006 C
HETATM   32  C6  UNL     1      20.641  31.306  17.814  1.00  0.00    -0.029 C
BRANCH  32  33
HETATM   33  C5  UNL     1      19.625  31.979  18.619  1.00  0.00     0.027 C
BRANCH  33  34
HETATM   34  C4  UNL     1      18.781  32.926  17.841  1.00  0.00     0.004 C
BRANCH  34  35
HETATM   35  C3  UNL     1      18.768  34.315  18.364  1.00  0.00    -0.000 C
BRANCH  35  36
HETATM   36  C2  UNL     1      20.167  34.956  18.286  1.00  0.00    -0.005 C
HETATM   37  C1  UNL     1      20.422  35.265  16.833  1.00  0.00     0.005 C
ENDBRANCH  35  36
ENDBRANCH  34  35
ENDBRANCH  33  34
ENDBRANCH  32  33
ENDBRANCH   1  31
BRANCH  26  38
HETATM   38  C23 UNL     1      24.398  32.438  19.568  1.00  0.00     0.035 C
BRANCH  38  39
HETATM   39  C24 UNL     1      23.179  33.289  19.684  1.00  0.00     0.002 C
BRANCH  39  40
HETATM   40  C25 UNL     1      22.428  32.776  20.921  1.00  0.00    -0.004 C
HETATM   41  C26 UNL     1      21.480  33.826  21.443  1.00  0.00     0.005 C
ENDBRANCH  39  40
ENDBRANCH  38  39
ENDBRANCH  26  38
TORSDOF 8
ENDMDL