MODEL 2
REMARK VINA RESULT: -8.653647476      1.931      2.862
REMARK  13 active torsions:
REMARK  status: ('A' for Active; 'I' for Inactive)
REMARK    1  A    between atoms: C2_2  and  C3_3
REMARK    2  A    between atoms: C3_3  and  C4_4
REMARK    3  A    between atoms: C7_7  and  C8_8
REMARK    4  A    between atoms: C8_8  and  C9_9
REMARK    5  A    between atoms: C9_9  and  C10_10
REMARK    6  A    between atoms: C10_10  and  C11_11
REMARK    7  A    between atoms: C19_19  and  C20_20
REMARK    8  A    between atoms: C21_21  and  C23_23
REMARK    9  A    between atoms: C23_23  and  O1_24
REMARK   10  A    between atoms: C24_26  and  C25_27
REMARK   11  A    between atoms: C25_27  and  C26_28
REMARK   12  A    between atoms: C26_28  and  C27_29
REMARK       I    between atoms: C27_29  and  N1_31
REMARK   13  A    between atoms: C29_37  and  O3_38
ROOT
HETATM    1  C4  UNL     1      24.554  31.474  20.482  1.00  0.00     0.047 A
HETATM    2  C5  UNL     1      24.140  31.185  19.195  1.00  0.00    -0.028 A
HETATM    3  C6  UNL     1      24.568  32.002  18.062  1.00  0.00     0.051 C
HETATM    4  C7  UNL     1      23.380  30.035  18.937  1.00  0.00    -0.037 A
HETATM    5  C19 UNL     1      23.074  29.227  19.987  1.00  0.00    -0.002 A
HETATM    6  C24 UNL     1      23.501  29.517  21.309  1.00  0.00     0.052 A
HETATM    7  N4  UNL     1      24.234  30.619  21.547  1.00  0.00    -0.301 N
HETATM    8  C29 UNL     1      24.831  30.775  22.643  1.00  0.00     0.231 C
ENDROOT
BRANCH   4   9
HETATM    9  C8  UNL     1      22.961  29.710  17.563  1.00  0.00     0.040 C
BRANCH   9  10
HETATM   10  C9  UNL     1      22.029  30.732  17.002  1.00  0.00     0.009 C
BRANCH  10  11
HETATM   11  C10 UNL     1      20.691  30.801  17.701  1.00  0.00     0.039 C
BRANCH  11  12
HETATM   12  C11 UNL     1      20.512  32.142  18.276  1.00  0.00    -0.057 A
HETATM   13  C12 UNL     1      20.990  32.385  19.544  1.00  0.00     0.013 A
HETATM   14  C13 UNL     1      20.822  33.636  20.077  1.00  0.00    -0.061 A
HETATM   15  C14 UNL     1      21.329  33.911  21.437  1.00  0.00     0.048 C
HETATM   16  C15 UNL     1      20.184  34.614  19.338  1.00  0.00     0.013 A
HETATM   17  C16 UNL     1      19.710  34.361  18.070  1.00  0.00    -0.061 A
HETATM   18  C17 UNL     1      19.024  35.447  17.298  1.00  0.00     0.048 C
HETATM   19  C18 UNL     1      19.873  33.104  17.519  1.00  0.00     0.013 A
ENDBRANCH  11  12
ENDBRANCH  10  11
ENDBRANCH   9  10
ENDBRANCH   4   9
BRANCH   5  20
HETATM   20  C20 UNL     1      22.370  28.004  19.727  1.00  0.00     0.019 C
HETATM   21  C21 UNL     1      21.128  27.658  19.801  1.00  0.00    -0.060 C
HETATM   22  C22 UNL     1      20.026  28.545  20.210  1.00  0.00     0.045 C
BRANCH  21  23
HETATM   23  C23 UNL     1      20.676  26.246  19.458  1.00  0.00     0.198 C
BRANCH  23  24
HETATM   24  O1  UNL     1      19.960  25.697  20.507  1.00  0.00    -0.397 OA
ATOM     25  H1  UNL     1      19.190  26.221  20.696  1.00  0.00     0.209 HD
ENDBRANCH  23  24
ENDBRANCH  21  23
ENDBRANCH   5  20
BRANCH   1  26
HETATM   26  C3  UNL     1      25.129  32.594  20.818  1.00  0.00     0.030 C
BRANCH  26  27
HETATM   27  C2  UNL     1      24.786  33.958  20.696  1.00  0.00    -0.008 C
HETATM   28  C1  UNL     1      24.919  34.751  21.808  1.00  0.00     0.011 C
ENDBRANCH  26  27
ENDBRANCH   1  26
BRANCH   6  29
HETATM   29  C25 UNL     1      23.151  28.547  22.312  1.00  0.00     0.036 C
BRANCH  29  30
HETATM   30  C26 UNL     1      22.624  28.596  23.481  1.00  0.00     0.077 C
BRANCH  30  31
HETATM   31  C27 UNL     1      21.772  27.462  23.950  1.00  0.00     0.247 C
HETATM   32  O2  UNL     1      22.046  26.861  25.020  1.00  0.00    -0.268 OA
HETATM   33  N1  UNL     1      20.656  27.046  23.210  1.00  0.00    -0.300 N
HETATM   34  C28 UNL     1      19.486  26.889  23.716  1.00  0.00     0.203 C
ATOM     35  H1  UNL     1      20.781  26.857  22.215  1.00  0.00     0.171 HD
HETATM   36  N2  UNL     1      18.413  26.467  22.901  1.00  0.00    -0.066 NA
HETATM   37  N3  UNL     1      19.298  27.148  25.098  1.00  0.00    -0.066 NA
ENDBRANCH  30  31
ENDBRANCH  29  30
ENDBRANCH   6  29
BRANCH   8  38
HETATM   38  O3  UNL     1      25.794  31.626  23.135  1.00  0.00    -0.356 OA
ATOM     39  H3  UNL     1      26.742  31.621  23.203  1.00  0.00     0.218 HD
ENDBRANCH   8  38
TORSDOF 13
ENDMDL