MODEL 5
REMARK VINA RESULT: -8.735415311      1.035      1.276
REMARK  15 active torsions:
REMARK  status: ('A' for Active; 'I' for Inactive)
REMARK    1  A    between atoms: N1_1  and  C1_5
REMARK    2  A    between atoms: C1_5  and  C2_6
REMARK    3  A    between atoms: C2_6  and  C3_7
REMARK    4  A    between atoms: C3_7  and  C4_8
REMARK    5  A    between atoms: C4_8  and  N2_9
REMARK       I    between atoms: N2_9  and  C5_11
REMARK    6  A    between atoms: C5_11  and  C6_13
REMARK    7  A    between atoms: C6_13  and  C7_14
REMARK    8  A    between atoms: C7_14  and  C8_15
REMARK    9  A    between atoms: C8_15  and  C9_16
REMARK   10  A    between atoms: C9_16  and  C10_17
REMARK   11  A    between atoms: C10_17  and  N3_18
REMARK   12  A    between atoms: N3_18  and  S1_20
REMARK   13  A    between atoms: S1_20  and  N4_23
REMARK   14  A    between atoms: C13_26  and  N5_27
REMARK       I    between atoms: N5_27  and  C14_29
REMARK       I    between atoms: C14_29  and  N6_31
REMARK   15  A    between atoms: N6_31  and  C15_33
ROOT
HETATM    1  S1  UNL     1       3.811  22.896   5.945  1.00  0.00     0.298 S
HETATM    2  O2  UNL     1       3.032  23.591   4.854  1.00  0.00    -0.188 OA
HETATM    3  O3  UNL     1       3.686  21.416   5.693  1.00  0.00    -0.188 OA
ENDROOT
BRANCH   1   4
HETATM    4  N3  UNL     1       3.117  23.181   7.496  1.00  0.00    -0.307 N
ATOM      5  H3  UNL     1       3.636  23.547   8.294  1.00  0.00     0.173 HD
BRANCH   4   6
HETATM    6  C10 UNL     1       1.712  22.840   7.533  1.00  0.00     0.133 C
BRANCH   6   7
HETATM    7  C9  UNL     1       1.441  21.796   8.607  1.00  0.00     0.020 C
BRANCH   7   8
HETATM    8  C8  UNL     1       0.125  21.125   8.416  1.00  0.00     0.002 C
BRANCH   8   9
HETATM    9  C7  UNL     1      -0.530  21.563   7.140  1.00  0.00     0.009 C
BRANCH   9  10
HETATM   10  C6  UNL     1      -1.927  21.029   7.063  1.00  0.00     0.103 C
BRANCH  10  11
HETATM   11  C5  UNL     1      -2.828  21.927   7.841  1.00  0.00     0.217 C
HETATM   12  N2  UNL     1      -2.704  23.330   7.659  1.00  0.00    -0.361 N
ATOM     13  H2  UNL     1      -2.013  23.715   7.015  1.00  0.00     0.162 HD
HETATM   14  O1  UNL     1      -3.660  21.417   8.627  1.00  0.00    -0.274 OA
BRANCH  12  15
HETATM   15  C4  UNL     1      -3.588  24.206   8.416  1.00  0.00     0.122 C
BRANCH  15  16
HETATM   16  C3  UNL     1      -2.845  25.456   8.869  1.00  0.00     0.021 C
BRANCH  16  17
HETATM   17  C2  UNL     1      -1.343  25.229   8.754  1.00  0.00     0.029 C
BRANCH  17  18
HETATM   18  C1  UNL     1      -0.703  26.315   7.908  1.00  0.00     0.229 C
BRANCH  18  19
HETATM   19  N1  UNL     1      -0.488  25.826   6.572  1.00  0.00    -0.079 N
ATOM     20  H13 UNL     1       0.429  26.088   6.209  1.00  0.00     0.274 HD
ATOM     21  H12 UNL     1      -0.371  24.813   6.548  1.00  0.00     0.274 HD
ATOM     22  H11 UNL     1      -1.245  26.140   5.965  1.00  0.00     0.274 HD
ENDBRANCH  18  19
ENDBRANCH  17  18
ENDBRANCH  16  17
ENDBRANCH  15  16
ENDBRANCH  12  15
ENDBRANCH  10  11
ENDBRANCH   9  10
ENDBRANCH   8   9
ENDBRANCH   7   8
ENDBRANCH   6   7
ENDBRANCH   4   6
ENDBRANCH   1   4
BRANCH   1  23
HETATM   23  N4  UNL     1       5.421  23.437   5.880  1.00  0.00    -0.193 NA
HETATM   24  C11 UNL     1       6.417  22.430   5.746  1.00  0.00     0.111 C
HETATM   25  C12 UNL     1       7.819  22.886   5.594  1.00  0.00     0.041 C
HETATM   26  C13 UNL     1       8.038  24.249   5.048  1.00  0.00     0.088 C
HETATM   27  C21 UNL     1       6.880  25.205   5.306  1.00  0.00     0.041 C
HETATM   28  C22 UNL     1       5.615  24.492   4.900  1.00  0.00     0.111 C
BRANCH  26  29
HETATM   29  N5  UNL     1       8.257  24.277   3.621  1.00  0.00    -0.338 N
HETATM   30  C14 UNL     1       9.234  25.165   3.093  1.00  0.00     0.316 C
HETATM   31  O4  UNL     1       9.896  25.909   3.865  1.00  0.00    -0.247 OA
HETATM   32  N6  UNL     1       9.431  25.184   1.686  1.00  0.00    -0.339 N
ATOM     33  H6  UNL     1       8.894  24.573   1.072  1.00  0.00     0.164 HD
ATOM     34  H5  UNL     1       7.719  23.669   3.003  1.00  0.00     0.164 HD
BRANCH  32  35
HETATM   35  C15 UNL     1      10.420  26.099   1.149  1.00  0.00     0.086 C
HETATM   36  C16 UNL     1       9.750  27.447   0.825  1.00  0.00     0.025 C
HETATM   37  C17 UNL     1      10.862  28.425   0.595  1.00  0.00     0.002 C
HETATM   38  C18 UNL     1      11.796  28.010  -0.506  1.00  0.00     0.000 C
HETATM   39  C19 UNL     1      12.132  26.562  -0.528  1.00  0.00     0.002 C
HETATM   40  C20 UNL     1      11.028  25.629  -0.149  1.00  0.00     0.025 C
ENDBRANCH  32  35
ENDBRANCH  26  29
ENDBRANCH   1  23
TORSDOF 15
ENDMDL