MODEL 1
REMARK VINA RESULT: -9.466334486      0.000      0.000
REMARK  16 active torsions:
REMARK  status: ('A' for Active; 'I' for Inactive)
REMARK    1  A    between atoms: C2_2  and  C3_3
REMARK    2  A    between atoms: C3_3  and  C4_4
REMARK    3  A    between atoms: C4_4  and  C5_5
REMARK    4  A    between atoms: C5_5  and  C6_6
REMARK    5  A    between atoms: C6_6  and  C7_7
REMARK    6  A    between atoms: C7_7  and  C8_8
REMARK    7  A    between atoms: C8_8  and  C9_9
REMARK    8  A    between atoms: C9_9  and  N5_23
REMARK    9  A    between atoms: N1_10  and  C10_12
REMARK   10  A    between atoms: C10_12  and  C11_13
REMARK   11  A    between atoms: C11_13  and  C12_14
REMARK   12  A    between atoms: C12_14  and  C13_15
REMARK   13  A    between atoms: C13_15  and  N2_16
REMARK       I    between atoms: N2_16  and  C14_18
REMARK       I    between atoms: N6_26  and  C17_27
REMARK   14  A    between atoms: C17_27  and  C18_29
REMARK   15  A    between atoms: C18_29  and  N7_30
REMARK   16  A    between atoms: C18_29  and  C19_34
ROOT
HETATM    1  C9  UNL     1       3.484  23.077   5.794  1.00  0.00     0.075 C
HETATM    2  N1  UNL     1       2.510  23.889   5.502  1.00  0.00    -0.380 N
ATOM      3  H1  UNL     1       2.724  24.805   5.107  1.00  0.00     0.160 HD
ENDROOT
BRANCH   1   4
HETATM    4  C8  UNL     1       3.129  21.773   6.354  1.00  0.00     0.076 C
BRANCH   4   5
HETATM    5  C7  UNL     1       3.379  21.577   7.805  1.00  0.00     0.007 C
BRANCH   5   6
HETATM    6  C6  UNL     1       2.117  21.631   8.651  1.00  0.00     0.000 C
BRANCH   6   7
HETATM    7  C5  UNL     1       1.056  20.773   8.045  1.00  0.00     0.000 C
BRANCH   7   8
HETATM    8  C4  UNL     1      -0.325  21.198   8.521  1.00  0.00     0.000 C
BRANCH   8   9
HETATM    9  C3  UNL     1      -1.262  21.076   7.331  1.00  0.00    -0.000 C
BRANCH   9  10
HETATM   10  C2  UNL     1      -2.625  21.680   7.666  1.00  0.00    -0.005 C
HETATM   11  C1  UNL     1      -3.535  20.562   8.164  1.00  0.00     0.005 C
ENDBRANCH   9  10
ENDBRANCH   8   9
ENDBRANCH   7   8
ENDBRANCH   6   7
ENDBRANCH   5   6
ENDBRANCH   4   5
ENDBRANCH   1   4
BRANCH   1  12
HETATM   12  N5  UNL     1       4.792  23.544   5.536  1.00  0.00    -0.368 N
HETATM   13  C15 UNL     1       5.947  22.944   6.221  1.00  0.00     0.144 C
HETATM   14  C16 UNL     1       6.994  22.783   5.129  1.00  0.00     0.145 C
HETATM   15  N6  UNL     1       7.446  24.105   4.687  1.00  0.00    -0.347 N
HETATM   16  C17 UNL     1       8.835  24.296   4.548  1.00  0.00     0.251 C
HETATM   17  C24 UNL     1       6.412  25.069   4.443  1.00  0.00     0.145 C
HETATM   18  O1  UNL     1       9.564  23.272   4.814  1.00  0.00    -0.271 OA
HETATM   19  C25 UNL     1       5.012  24.602   4.598  1.00  0.00     0.144 C
BRANCH  16  20
HETATM   20  C18 UNL     1       9.535  25.514   4.139  1.00  0.00     0.278 C
BRANCH  20  21
HETATM   21  N7  UNL     1      10.218  25.445   2.879  1.00  0.00    -0.066 N
ATOM     22  H73 UNL     1      11.103  24.950   2.990  1.00  0.00     0.275 HD
ATOM     23  H72 UNL     1       9.730  24.804   2.253  1.00  0.00     0.275 HD
ATOM     24  H71 UNL     1      10.374  26.338   2.412  1.00  0.00     0.275 HD
ENDBRANCH  20  21
BRANCH  20  25
HETATM   25  C19 UNL     1       8.750  26.781   4.166  1.00  0.00     0.028 C
HETATM   26  C20 UNL     1       8.965  27.747   3.066  1.00  0.00     0.034 C
HETATM   27  C21 UNL     1       9.435  29.094   3.591  1.00  0.00     0.232 C
HETATM   28  N8  UNL     1       8.474  29.676   4.503  1.00  0.00    -0.075 N
HETATM   29  C22 UNL     1       7.883  28.690   5.383  1.00  0.00     0.232 C
ATOM     30  H82 UNL     1       8.888  30.442   5.034  1.00  0.00     0.277 HD
ATOM     31  H81 UNL     1       7.756  30.197   3.999  1.00  0.00     0.277 HD
HETATM   32  C23 UNL     1       8.861  27.519   5.483  1.00  0.00     0.034 C
ENDBRANCH  20  25
ENDBRANCH  16  20
ENDBRANCH   1  12
BRANCH   2  33
HETATM   33  C10 UNL     1       1.131  23.516   5.725  1.00  0.00     0.121 C
BRANCH  33  34
HETATM   34  C11 UNL     1       0.559  24.349   6.831  1.00  0.00     0.021 C
BRANCH  34  35
HETATM   35  C12 UNL     1      -0.885  24.654   6.517  1.00  0.00     0.021 C
BRANCH  35  36
HETATM   36  C13 UNL     1      -1.152  26.154   6.567  1.00  0.00     0.122 C
BRANCH  36  37
HETATM   37  N2  UNL     1      -0.286  26.751   7.577  1.00  0.00    -0.365 N
HETATM   38  C14 UNL     1      -0.315  28.155   7.748  1.00  0.00     0.181 C
HETATM   39  N3  UNL     1       0.744  28.791   8.064  1.00  0.00    -0.374 N
HETATM   40  N4  UNL     1      -1.529  28.851   7.565  1.00  0.00    -0.064 NA
ATOM     41  H32 UNL     1       1.622  28.288   8.197  1.00  0.00     0.158 HD
ATOM     42  H31 UNL     1       0.723  29.803   8.188  1.00  0.00     0.158 HD
ATOM     43  H2  UNL     1       0.327  26.170   8.149  1.00  0.00     0.162 HD
ENDBRANCH  36  37
ENDBRANCH  35  36
ENDBRANCH  34  35
ENDBRANCH  33  34
ENDBRANCH   2  33
TORSDOF 16
ENDMDL