MODEL 5
REMARK VINA RESULT: -6.611368325      3.178      8.453
REMARK  17 active torsions:
REMARK  status: ('A' for Active; 'I' for Inactive)
REMARK    1  A    between atoms: C2_2  and  C3_3
REMARK    2  A    between atoms: C3_3  and  C4_4
REMARK    3  A    between atoms: C4_4  and  C5_5
REMARK    4  A    between atoms: C5_5  and  C6_6
REMARK    5  A    between atoms: C6_6  and  C7_7
REMARK    6  A    between atoms: C9_12  and  C10_13
REMARK    7  A    between atoms: C10_13  and  C11_14
REMARK    8  A    between atoms: C11_14  and  C12_15
REMARK    9  A    between atoms: C14_19  and  C15_20
REMARK   10  A    between atoms: C15_20  and  C16_21
REMARK   11  A    between atoms: C18_25  and  N3_26
REMARK   12  A    between atoms: N3_26  and  N4_27
REMARK   13  A    between atoms: C19_30  and  C20_31
REMARK   14  A    between atoms: C20_31  and  C21_32
REMARK   15  A    between atoms: C21_32  and  C22_33
REMARK   16  A    between atoms: C22_33  and  C23_34
REMARK   17  A    between atoms: C23_34  and  N5_35
ROOT
HETATM    1  C7  UNL     1       8.821  28.740   1.640  1.00  0.00     0.176 C
HETATM    2  N1  UNL     1       7.901  27.686   1.276  1.00  0.00    -0.346 N
ATOM      3  H1  UNL     1       7.065  27.912   0.737  1.00  0.00     0.163 HD
HETATM    4  C8  UNL     1       8.146  26.341   1.662  1.00  0.00     0.240 C
HETATM    5  O1  UNL     1       7.183  25.525   1.563  1.00  0.00    -0.271 OA
HETATM    6  C9  UNL     1       9.429  25.827   2.166  1.00  0.00     0.169 C
HETATM    7  N2  UNL     1      10.429  25.812   1.195  1.00  0.00    -0.404 N
ATOM      8  H2  UNL     1      11.404  25.971   1.449  1.00  0.00     0.154 HD
HETATM    9  C14 UNL     1      10.064  25.570  -0.155  1.00  0.00     0.093 C
HETATM   10  C17 UNL     1      11.089  26.340  -1.002  1.00  0.00     0.097 C
HETATM   11  C18 UNL     1      10.744  27.761  -1.145  1.00  0.00     0.110 C
HETATM   12  C19 UNL     1      11.271  28.840  -0.295  1.00  0.00     0.147 C
HETATM   13  N6  UNL     1      10.275  29.899  -0.126  1.00  0.00    -0.348 N
ATOM     14  H6  UNL     1      10.498  30.848  -0.425  1.00  0.00     0.163 HD
HETATM   15  C24 UNL     1       8.995  29.628   0.452  1.00  0.00     0.241 C
HETATM   16  O4  UNL     1       7.940  30.142  -0.034  1.00  0.00    -0.271 OA
ENDROOT
BRANCH  12  17
HETATM   17  C20 UNL     1      12.582  29.404  -0.776  1.00  0.00     0.032 C
BRANCH  17  18
HETATM   18  C21 UNL     1      12.524  30.861  -1.091  1.00  0.00     0.004 C
BRANCH  18  19
HETATM   19  C22 UNL     1      13.532  31.662  -0.312  1.00  0.00     0.027 C
BRANCH  19  20
HETATM   20  C23 UNL     1      12.962  32.157   0.996  1.00  0.00     0.229 C
BRANCH  20  21
HETATM   21  N5  UNL     1      14.011  32.621   1.887  1.00  0.00    -0.079 N
ATOM     22  H53 UNL     1      14.929  32.293   1.587  1.00  0.00     0.274 HD
ATOM     23  H52 UNL     1      14.164  33.625   1.792  1.00  0.00     0.274 HD
ATOM     24  H51 UNL     1      13.818  32.361   2.855  1.00  0.00     0.274 HD
ENDBRANCH  20  21
ENDBRANCH  19  20
ENDBRANCH  18  19
ENDBRANCH  17  18
ENDBRANCH  12  17
BRANCH  11  25
HETATM   25  N3  UNL     1       9.944  28.081  -2.053  1.00  0.00    -0.340 NA
BRANCH  25  26
HETATM   26  N4  UNL     1       9.163  28.356  -2.985  1.00  0.00    -0.280 N
ATOM     27  H42 UNL     1      10.146  28.428  -3.246  1.00  0.00     0.191 HD
ATOM     28  H41 UNL     1       8.490  28.574  -3.720  1.00  0.00     0.191 HD
ENDBRANCH  25  26
ENDBRANCH  11  25
BRANCH   9  29
HETATM   29  C15 UNL     1      10.186  24.125  -0.539  1.00  0.00     0.138 C
BRANCH  29  30
HETATM   30  C16 UNL     1      10.083  23.861  -1.982  1.00  0.00     0.174 C
HETATM   31  O2  UNL     1      10.932  23.032  -2.450  1.00  0.00    -0.648 OA
HETATM   32  O3  UNL     1       9.192  24.394  -2.866  1.00  0.00    -0.648 OA
ENDBRANCH  29  30
ENDBRANCH   9  29
BRANCH   1  33
HETATM   33  C6  UNL     1       8.432  29.456   2.886  1.00  0.00     0.035 C
BRANCH  33  34
HETATM   34  C5  UNL     1       9.352  29.266   4.047  1.00  0.00     0.002 C
BRANCH  34  35
HETATM   35  C4  UNL     1       8.819  28.165   4.964  1.00  0.00     0.000 C
BRANCH  35  36
HETATM   36  C3  UNL     1       7.560  28.602   5.682  1.00  0.00    -0.000 C
BRANCH  36  37
HETATM   37  C2  UNL     1       7.704  28.558   7.166  1.00  0.00    -0.005 C
HETATM   38  C1  UNL     1       6.823  29.555   7.880  1.00  0.00     0.005 C
ENDBRANCH  36  37
ENDBRANCH  35  36
ENDBRANCH  34  35
ENDBRANCH  33  34
ENDBRANCH   1  33
BRANCH   6  39
HETATM   39  C10 UNL     1       9.219  24.492   2.875  1.00  0.00     0.034 C
BRANCH  39  40
HETATM   40  C11 UNL     1       9.284  24.680   4.360  1.00  0.00     0.002 C
BRANCH  40  41
HETATM   41  C12 UNL     1       8.107  23.968   4.993  1.00  0.00    -0.004 C
HETATM   42  C13 UNL     1       6.964  24.939   5.167  1.00  0.00     0.005 C
ENDBRANCH  40  41
ENDBRANCH  39  40
ENDBRANCH   6  39
TORSDOF 17
ENDMDL