MODEL 2
REMARK VINA RESULT: -7.720061446      2.082      7.728
REMARK  14 active torsions:
REMARK  status: ('A' for Active; 'I' for Inactive)
REMARK    1  A    between atoms: C2_2  and  C3_3
REMARK    2  A    between atoms: C3_3  and  C4_4
REMARK    3  A    between atoms: C4_4  and  C5_5
REMARK    4  A    between atoms: C5_5  and  C6_6
REMARK    5  A    between atoms: C6_6  and  C7_7
REMARK    6  A    between atoms: C7_7  and  C8_8
REMARK    7  A    between atoms: C10_13  and  C11_14
REMARK    8  A    between atoms: C11_14  and  C12_15
REMARK    9  A    between atoms: C12_15  and  C13_16
REMARK   10  A    between atoms: C17_24  and  C18_25
REMARK   11  A    between atoms: C18_25  and  N3_26
REMARK       I    between atoms: N3_26  and  C19_28
REMARK       I    between atoms: C19_28  and  N4_30
REMARK   12  A    between atoms: N4_30  and  C20_32
REMARK   13  A    between atoms: C20_32  and  C21_33
REMARK   14  A    between atoms: C21_33  and  C22_34
ROOT
HETATM    1  C8  UNL     1      -0.655  22.478   8.664  1.00  0.00     0.176 C
HETATM    2  N1  UNL     1      -1.136  21.760   7.501  1.00  0.00    -0.346 N
ATOM      3  H1  UNL     1      -0.509  21.721   6.698  1.00  0.00     0.163 HD
HETATM    4  C9  UNL     1      -2.375  21.113   7.363  1.00  0.00     0.241 C
HETATM    5  O1  UNL     1      -2.710  20.843   6.157  1.00  0.00    -0.271 OA
HETATM    6  C10 UNL     1      -3.299  20.722   8.430  1.00  0.00     0.176 C
HETATM    7  N2  UNL     1      -3.752  21.803   9.277  1.00  0.00    -0.346 N
ATOM      8  H2  UNL     1      -3.517  21.731  10.267  1.00  0.00     0.163 HD
HETATM    9  C15 UNL     1      -4.481  22.944   8.892  1.00  0.00     0.242 C
HETATM   10  O2  UNL     1      -5.514  23.229   9.596  1.00  0.00    -0.271 OA
HETATM   11  C16 UNL     1      -4.195  23.855   7.770  1.00  0.00     0.273 C
HETATM   12  O3  UNL     1      -3.651  25.065   8.183  1.00  0.00    -0.356 OA
HETATM   13  C17 UNL     1      -2.562  24.984   8.992  1.00  0.00     0.241 C
HETATM   14  N5  UNL     1      -1.311  24.913   8.236  1.00  0.00    -0.331 N
ATOM     15  H5  UNL     1      -1.113  25.694   7.610  1.00  0.00     0.165 HD
HETATM   16  C24 UNL     1      -0.363  23.897   8.278  1.00  0.00     0.242 C
HETATM   17  O5  UNL     1       0.843  24.195   7.965  1.00  0.00    -0.271 OA
ENDROOT
BRANCH  13  18
HETATM   18  C18 UNL     1      -2.514  26.143   9.954  1.00  0.00     0.178 C
BRANCH  18  19
HETATM   19  N3  UNL     1      -3.029  27.372   9.475  1.00  0.00    -0.339 N
HETATM   20  C19 UNL     1      -2.497  28.298   8.561  1.00  0.00     0.316 C
HETATM   21  O4  UNL     1      -1.393  28.070   8.008  1.00  0.00    -0.247 OA
HETATM   22  N4  UNL     1      -3.213  29.512   8.253  1.00  0.00    -0.343 N
ATOM     23  H4  UNL     1      -4.113  29.714   8.692  1.00  0.00     0.164 HD
ATOM     24  H3  UNL     1      -3.939  27.629   9.858  1.00  0.00     0.164 HD
BRANCH  22  25
HETATM   25  C20 UNL     1      -2.633  30.425   7.319  1.00  0.00     0.124 C
BRANCH  25  26
HETATM   26  C21 UNL     1      -3.532  30.677   6.127  1.00  0.00     0.019 C
BRANCH  26  27
HETATM   27  C22 UNL     1      -3.423  32.141   5.730  1.00  0.00    -0.003 C
HETATM   28  C23 UNL     1      -4.233  32.349   4.478  1.00  0.00     0.005 C
ENDBRANCH  26  27
ENDBRANCH  25  26
ENDBRANCH  22  25
ENDBRANCH  18  19
ENDBRANCH  13  18
BRANCH   1  29
HETATM   29  C7  UNL     1       0.658  21.794   9.040  1.00  0.00     0.035 C
BRANCH  29  30
HETATM   30  C6  UNL     1       1.133  20.823   8.001  1.00  0.00     0.002 C
BRANCH  30  31
HETATM   31  C5  UNL     1       2.559  21.103   7.578  1.00  0.00     0.000 C
BRANCH  31  32
HETATM   32  C4  UNL     1       2.666  21.908   6.324  1.00  0.00     0.000 C
BRANCH  32  33
HETATM   33  C3  UNL     1       3.893  22.793   6.304  1.00  0.00    -0.000 C
BRANCH  33  34
HETATM   34  C2  UNL     1       5.135  21.969   6.591  1.00  0.00    -0.005 C
HETATM   35  C1  UNL     1       6.390  22.681   6.206  1.00  0.00     0.005 C
ENDBRANCH  33  34
ENDBRANCH  32  33
ENDBRANCH  31  32
ENDBRANCH  30  31
ENDBRANCH  29  30
ENDBRANCH   1  29
BRANCH   6  36
HETATM   36  C11 UNL     1      -4.461  19.881   8.011  1.00  0.00     0.035 C
BRANCH  36  37
HETATM   37  C12 UNL     1      -5.538  19.644   8.991  1.00  0.00     0.002 C
BRANCH  37  38
HETATM   38  C13 UNL     1      -4.902  18.925  10.193  1.00  0.00    -0.004 C
HETATM   39  C14 UNL     1      -5.590  19.341  11.461  1.00  0.00     0.005 C
ENDBRANCH  37  38
ENDBRANCH  36  37
ENDBRANCH   6  36
TORSDOF 14
ENDMDL