MODEL 3
REMARK VINA RESULT: -7.939542038      7.021     11.967
REMARK  17 active torsions:
REMARK  status: ('A' for Active; 'I' for Inactive)
REMARK    1  A    between atoms: C4_4  and  C5_5
REMARK       I    between atoms: C5_5  and  N1_7
REMARK    2  A    between atoms: N1_7  and  C6_9
REMARK    3  A    between atoms: C6_9  and  C7_10
REMARK       I    between atoms: C7_10  and  N2_12
REMARK    4  A    between atoms: N2_12  and  C8_14
REMARK    5  A    between atoms: C8_14  and  C9_15
REMARK    6  A    between atoms: C9_15  and  C10_16
REMARK    7  A    between atoms: C15_21  and  N3_22
REMARK    8  A    between atoms: N3_22  and  C16_24
REMARK    9  A    between atoms: C16_24  and  C17_25
REMARK   10  A    between atoms: C17_25  and  C18_26
REMARK   11  A    between atoms: C18_26  and  C19_27
REMARK   12  A    between atoms: C19_27  and  C20_28
REMARK   13  A    between atoms: C20_28  and  C21_29
REMARK   14  A    between atoms: C23_33  and  N5_34
REMARK   15  A    between atoms: N5_34  and  C24_36
REMARK   16  A    between atoms: C24_36  and  C25_37
REMARK   17  A    between atoms: C25_37  and  O3_38
ROOT
HETATM    1  C1  UNL     1       1.146  19.514   7.811  1.00  0.00     0.018 C
HETATM    2  C2  UNL     1       0.719  20.640   7.806  1.00  0.00    -0.074 C
HETATM    3  C3  UNL     1       0.184  21.975   7.793  1.00  0.00     0.060 A
HETATM    4  C4  UNL     1       0.992  23.081   7.709  1.00  0.00     0.053 A
HETATM    5  C12 UNL     1       0.418  24.359   7.688  1.00  0.00     0.020 A
HETATM    6  C13 UNL     1      -0.935  24.538   7.749  1.00  0.00     0.018 A
HETATM    7  C14 UNL     1      -1.766  23.451   7.836  1.00  0.00     0.037 A
HETATM    8  C15 UNL     1      -3.137  23.627   7.921  1.00  0.00     0.129 A
HETATM    9  N4  UNL     1      -3.848  22.497   8.028  1.00  0.00    -0.176 N
ATOM     10  H4  UNL     1      -4.864  22.566   8.095  1.00  0.00     0.186 HD
HETATM   11  C23 UNL     1      -3.279  21.259   8.053  1.00  0.00     0.683 A
HETATM   12  N6  UNL     1      -1.958  21.084   7.968  1.00  0.00    -0.189 N
ATOM     13  H6  UNL     1      -1.547  20.151   7.986  1.00  0.00     0.184 HD
HETATM   14  C26 UNL     1      -1.193  22.179   7.857  1.00  0.00     0.083 A
ENDROOT
BRANCH   4  15
HETATM   15  C5  UNL     1       2.418  22.972   7.591  1.00  0.00     0.253 C
HETATM   16  O1  UNL     1       3.135  23.059   8.636  1.00  0.00    -0.268 OA
HETATM   17  N1  UNL     1       3.046  22.781   6.341  1.00  0.00    -0.348 N
ATOM     18  H1  UNL     1       2.464  22.707   5.507  1.00  0.00     0.163 HD
BRANCH  17  19
HETATM   19  C6  UNL     1       4.457  22.687   6.199  1.00  0.00     0.225 C
BRANCH  19  20
HETATM   20  C7  UNL     1       5.133  23.744   5.429  1.00  0.00     0.235 C
HETATM   21  O2  UNL     1       4.495  24.540   4.711  1.00  0.00    -0.272 OA
HETATM   22  N2  UNL     1       6.528  23.842   5.524  1.00  0.00    -0.360 N
ATOM     23  H2  UNL     1       7.023  23.167   6.106  1.00  0.00     0.162 HD
BRANCH  22  24
HETATM   24  C8  UNL     1       7.291  24.842   4.845  1.00  0.00     0.122 C
BRANCH  24  25
HETATM   25  C9  UNL     1       8.724  24.486   4.725  1.00  0.00     0.019 C
BRANCH  25  26
HETATM   26  C10 UNL     1       9.406  25.447   3.771  1.00  0.00    -0.003 C
HETATM   27  C11 UNL     1       9.296  26.866   4.316  1.00  0.00     0.005 C
ENDBRANCH  25  26
ENDBRANCH  24  25
ENDBRANCH  22  24
ENDBRANCH  19  20
ENDBRANCH  17  19
ENDBRANCH   4  15
BRANCH   8  28
HETATM   28  N3  UNL     1      -3.657  24.814   7.900  1.00  0.00    -0.375 N
ATOM     29  H3  UNL     1      -3.609  25.336   7.025  1.00  0.00     0.161 HD
BRANCH  28  30
HETATM   30  C16 UNL     1      -4.298  25.447   9.019  1.00  0.00     0.121 C
BRANCH  30  31
HETATM   31  C17 UNL     1      -3.307  26.259   9.809  1.00  0.00     0.020 C
BRANCH  31  32
HETATM   32  C18 UNL     1      -3.111  27.641   9.324  1.00  0.00     0.002 C
BRANCH  32  33
HETATM   33  C19 UNL     1      -1.843  27.959   8.608  1.00  0.00     0.000 C
BRANCH  33  34
HETATM   34  C20 UNL     1      -2.042  28.110   7.109  1.00  0.00    -0.000 C
BRANCH  34  35
HETATM   35  C21 UNL     1      -3.084  29.124   6.761  1.00  0.00    -0.005 C
HETATM   36  C22 UNL     1      -2.650  30.558   6.955  1.00  0.00     0.005 C
ENDBRANCH  34  35
ENDBRANCH  33  34
ENDBRANCH  32  33
ENDBRANCH  31  32
ENDBRANCH  30  31
ENDBRANCH  28  30
ENDBRANCH   8  28
BRANCH  11  37
HETATM   37  N5  UNL     1      -4.063  20.291   8.196  1.00  0.00    -0.203 N
ATOM     38  H5  UNL     1      -3.681  19.409   7.854  1.00  0.00     0.183 HD
BRANCH  37  39
HETATM   39  C24 UNL     1      -5.359  20.168   8.730  1.00  0.00     0.105 C
BRANCH  39  40
HETATM   40  C25 UNL     1      -5.289  19.467  10.070  1.00  0.00     0.209 C
BRANCH  40  41
HETATM   41  O3  UNL     1      -5.426  20.433  11.059  1.00  0.00    -0.396 OA
ATOM     42  H3  UNL     1      -4.561  20.776  11.249  1.00  0.00     0.209 HD
ENDBRANCH  40  41
ENDBRANCH  39  40
ENDBRANCH  37  39
ENDBRANCH  11  37
TORSDOF 17
ENDMDL