MODEL 3
REMARK VINA RESULT: -9.221482570      4.464      8.277
REMARK  15 active torsions:
REMARK  status: ('A' for Active; 'I' for Inactive)
REMARK    1  A    between atoms: C2_2  and  O1_3
REMARK    2  A    between atoms: C2_2  and  C3_5
REMARK    3  A    between atoms: C2_2  and  C13_24
REMARK    4  A    between atoms: C3_5  and  C4_6
REMARK    5  A    between atoms: C4_6  and  C5_7
REMARK    6  A    between atoms: C5_7  and  C6_8
REMARK    7  A    between atoms: C6_8  and  N1_9
REMARK       I    between atoms: N1_9  and  C7_11
REMARK    8  A    between atoms: C7_11  and  C8_13
REMARK    9  A    between atoms: C8_13  and  N2_14
REMARK   10  A    between atoms: C11_17  and  N3_18
REMARK   11  A    between atoms: C13_24  and  C14_25
REMARK       I    between atoms: C14_25  and  N5_27
REMARK   12  A    between atoms: N5_27  and  C15_29
REMARK   13  A    between atoms: C15_29  and  C16_30
REMARK   14  A    between atoms: C16_30  and  C17_31
REMARK   15  A    between atoms: C17_31  and  C18_32
ROOT
HETATM    1  C1  UNL     1       1.209  21.195   8.858  1.00  0.00     0.051 C
HETATM    2  C2  UNL     1       2.004  22.075   7.890  1.00  0.00     0.080 C
ENDROOT
BRANCH   2   3
HETATM    3  O1  UNL     1       1.917  23.386   8.442  1.00  0.00    -0.386 OA
ATOM      4  H1  UNL     1       2.763  23.778   8.263  1.00  0.00     0.211 HD
ENDBRANCH   2   3
BRANCH   2   5
HETATM    5  C3  UNL     1       3.437  21.760   7.799  1.00  0.00     0.007 C
BRANCH   5   6
HETATM    6  C4  UNL     1       4.160  21.799   6.529  1.00  0.00    -0.026 C
BRANCH   6   7
HETATM    7  C5  UNL     1       5.526  22.318   6.411  1.00  0.00     0.046 C
BRANCH   7   8
HETATM    8  C6  UNL     1       5.702  23.502   5.529  1.00  0.00     0.126 C
BRANCH   8   9
HETATM    9  N1  UNL     1       7.111  23.823   5.405  1.00  0.00    -0.359 N
HETATM   10  C7  UNL     1       7.683  24.464   4.286  1.00  0.00     0.235 C
HETATM   11  O2  UNL     1       7.006  24.803   3.289  1.00  0.00    -0.272 OA
ATOM     12  H1  UNL     1       7.728  23.569   6.176  1.00  0.00     0.162 HD
BRANCH  10  13
HETATM   13  C8  UNL     1       9.154  24.745   4.293  1.00  0.00     0.231 C
BRANCH  13  14
HETATM   14  N2  UNL     1       9.459  26.100   3.897  1.00  0.00    -0.344 N
HETATM   15  C9  UNL     1       9.052  27.141   4.638  1.00  0.00     0.096 A
HETATM   16  C10 UNL     1       9.341  28.450   4.278  1.00  0.00     0.065 A
HETATM   17  C11 UNL     1      10.078  28.675   3.109  1.00  0.00     0.100 A
HETATM   18  N4  UNL     1      10.470  27.615   2.389  1.00  0.00    -0.339 N
HETATM   19  C12 UNL     1      10.169  26.346   2.771  1.00  0.00     0.184 A
ATOM     20  H4  UNL     1      11.007  27.765   1.535  1.00  0.00     0.168 HD
BRANCH  17  21
HETATM   21  N3  UNL     1      10.384  29.862   2.708  1.00  0.00    -0.385 N
ATOM     22  H32 UNL     1      10.873  29.982   1.821  1.00  0.00     0.157 HD
ATOM     23  H31 UNL     1      10.151  30.694   3.250  1.00  0.00     0.157 HD
ENDBRANCH  17  21
ENDBRANCH  13  14
ENDBRANCH  10  13
ENDBRANCH   8   9
ENDBRANCH   7   8
ENDBRANCH   6   7
ENDBRANCH   5   6
ENDBRANCH   2   5
BRANCH   2  24
HETATM   24  C13 UNL     1       1.197  22.102   6.645  1.00  0.00     0.144 C
BRANCH  24  25
HETATM   25  C14 UNL     1       0.344  23.248   6.360  1.00  0.00     0.220 C
HETATM   26  O3  UNL     1       0.700  24.167   5.607  1.00  0.00    -0.274 OA
HETATM   27  N5  UNL     1      -0.953  23.374   6.938  1.00  0.00    -0.361 N
ATOM     28  H5  UNL     1      -1.289  22.646   7.569  1.00  0.00     0.162 HD
BRANCH  27  29
HETATM   29  C15 UNL     1      -1.788  24.486   6.658  1.00  0.00     0.122 C
BRANCH  29  30
HETATM   30  C16 UNL     1      -1.786  25.536   7.719  1.00  0.00     0.022 C
BRANCH  30  31
HETATM   31  C17 UNL     1      -0.986  26.751   7.389  1.00  0.00     0.040 C
BRANCH  31  32
HETATM   32  C18 UNL     1      -1.766  28.009   7.727  1.00  0.00     0.127 C
HETATM   33  C19 UNL     1      -2.509  27.921   9.024  1.00  0.00     0.043 C
HETATM   34  C20 UNL     1      -3.195  29.244   9.271  1.00  0.00    -0.010 C
HETATM   35  C21 UNL     1      -2.236  30.395   9.336  1.00  0.00     0.009 C
HETATM   36  C25 UNL     1      -4.189  29.480   8.174  1.00  0.00     0.037 C
HETATM   37  C22 UNL     1      -1.489  30.469   8.023  1.00  0.00    -0.010 C
HETATM   38  C23 UNL     1      -2.466  30.686   6.902  1.00  0.00     0.037 C
HETATM   39  C26 UNL     1      -0.780  29.148   7.817  1.00  0.00     0.043 C
HETATM   40  C24 UNL     1      -3.416  29.508   6.866  1.00  0.00     0.187 C
HETATM   41  N6  UNL     1      -2.683  28.291   6.637  1.00  0.00    -0.062 N
ATOM     42  H62 UNL     1      -2.201  28.310   5.739  1.00  0.00     0.278 HD
ATOM     43  H61 UNL     1      -3.310  27.506   6.464  1.00  0.00     0.278 HD
ENDBRANCH  31  32
ENDBRANCH  30  31
ENDBRANCH  29  30
ENDBRANCH  27  29
ENDBRANCH  24  25
ENDBRANCH   2  24
TORSDOF 15
ENDMDL