MODEL 4
REMARK VINA RESULT: -8.491985600      3.563      6.072
REMARK  16 active torsions:
REMARK  status: ('A' for Active; 'I' for Inactive)
REMARK    1  A    between atoms: C2_2  and  C3_3
REMARK    2  A    between atoms: C5_8  and  C6_9
REMARK    3  A    between atoms: C6_9  and  C7_10
REMARK    4  A    between atoms: C7_10  and  C8_11
REMARK    5  A    between atoms: C8_11  and  N2_12
REMARK       I    between atoms: N4_20  and  C10_21
REMARK       I    between atoms: C10_21  and  N5_23
REMARK    6  A    between atoms: N5_23  and  C11_25
REMARK    7  A    between atoms: C11_25  and  C12_26
REMARK    8  A    between atoms: C12_26  and  C13_27
REMARK    9  A    between atoms: C13_27  and  C14_28
REMARK   10  A    between atoms: C14_28  and  C15_29
REMARK   11  A    between atoms: C15_29  and  C16_30
REMARK   12  A    between atoms: C16_30  and  N6_31
REMARK       I    between atoms: N6_31  and  C17_33
REMARK   13  A    between atoms: C17_33  and  C18_35
REMARK   14  A    between atoms: C18_35  and  C19_36
REMARK   15  A    between atoms: C19_36  and  C20_37
REMARK   16  A    between atoms: C20_37  and  C21_38
ROOT
HETATM    1  C3  UNL     1       2.800  22.523   7.497  1.00  0.00     0.204 C
HETATM    2  C4  UNL     1       1.826  22.624   8.578  1.00  0.00     0.243 C
HETATM    3  O1  UNL     1       2.317  22.255   9.709  1.00  0.00    -0.271 OA
HETATM    4  N1  UNL     1       0.495  23.042   8.592  1.00  0.00    -0.346 N
ATOM      5  H1  UNL     1       0.120  23.329   9.495  1.00  0.00     0.163 HD
HETATM    6  C5  UNL     1      -0.419  23.113   7.457  1.00  0.00     0.178 C
HETATM    7  C9  UNL     1       0.161  24.005   6.422  1.00  0.00     0.259 C
HETATM    8  O2  UNL     1      -0.436  25.034   6.064  1.00  0.00    -0.269 OA
HETATM    9  N3  UNL     1       1.408  23.801   5.749  1.00  0.00    -0.261 N
ATOM     10  H3  UNL     1       1.448  24.052   4.761  1.00  0.00     0.190 HD
HETATM   11  N4  UNL     1       2.581  23.287   6.324  1.00  0.00    -0.226 N
HETATM   12  C10 UNL     1       3.764  23.611   5.583  1.00  0.00     0.337 C
HETATM   13  O3  UNL     1       3.587  24.282   4.500  1.00  0.00    -0.245 OA
HETATM   14  N5  UNL     1       5.077  23.264   5.932  1.00  0.00    -0.342 N
ATOM     15  H5  UNL     1       5.261  22.733   6.783  1.00  0.00     0.164 HD
ENDROOT
BRANCH  14  16
HETATM   16  C11 UNL     1       6.170  23.667   5.069  1.00  0.00     0.124 C
BRANCH  16  17
HETATM   17  C12 UNL     1       7.463  22.982   5.454  1.00  0.00     0.020 C
BRANCH  17  18
HETATM   18  C13 UNL     1       8.588  23.785   4.868  1.00  0.00     0.002 C
BRANCH  18  19
HETATM   19  C14 UNL     1       8.288  25.258   4.784  1.00  0.00     0.002 C
BRANCH  19  20
HETATM   20  C15 UNL     1       9.375  26.025   4.073  1.00  0.00     0.020 C
BRANCH  20  21
HETATM   21  C16 UNL     1       9.365  27.484   4.414  1.00  0.00     0.122 C
BRANCH  21  22
HETATM   22  N6  UNL     1       8.786  27.738   5.714  1.00  0.00    -0.361 N
HETATM   23  C17 UNL     1       7.847  28.785   5.871  1.00  0.00     0.217 C
HETATM   24  O4  UNL     1       7.497  29.512   4.899  1.00  0.00    -0.274 OA
ATOM     25  H6  UNL     1       9.054  27.166   6.514  1.00  0.00     0.162 HD
BRANCH  23  26
HETATM   26  C18 UNL     1       7.257  29.040   7.205  1.00  0.00     0.103 C
BRANCH  26  27
HETATM   27  C19 UNL     1       8.315  28.919   8.290  1.00  0.00     0.010 C
BRANCH  27  28
HETATM   28  C20 UNL     1       7.648  28.477   9.577  1.00  0.00     0.009 C
BRANCH  28  29
HETATM   29  C21 UNL     1       8.513  28.696  10.773  1.00  0.00    -0.051 C
HETATM   30  C22 UNL     1       7.905  29.723  11.715  1.00  0.00     0.014 C
HETATM   31  C23 UNL     1       9.836  29.270  10.266  1.00  0.00     0.014 C
HETATM   32  C24 UNL     1       8.717  27.392  11.501  1.00  0.00     0.014 C
ENDBRANCH  28  29
ENDBRANCH  27  28
ENDBRANCH  26  27
ENDBRANCH  23  26
ENDBRANCH  21  22
ENDBRANCH  20  21
ENDBRANCH  19  20
ENDBRANCH  18  19
ENDBRANCH  17  18
ENDBRANCH  16  17
ENDBRANCH  14  16
BRANCH   1  33
HETATM   33  C2  UNL     1       3.106  21.092   7.109  1.00  0.00     0.032 C
HETATM   34  C1  UNL     1       1.930  20.164   7.309  1.00  0.00     0.007 C
ENDBRANCH   1  33
BRANCH   6  35
HETATM   35  C6  UNL     1      -1.712  23.696   7.950  1.00  0.00     0.036 C
BRANCH  35  36
HETATM   36  C7  UNL     1      -2.918  22.844   7.837  1.00  0.00     0.030 C
BRANCH  36  37
HETATM   37  C8  UNL     1      -4.126  23.751   8.161  1.00  0.00     0.230 C
BRANCH  37  38
HETATM   38  N2  UNL     1      -3.717  25.123   8.166  1.00  0.00    -0.079 N
ATOM     39  H23 UNL     1      -2.764  25.237   8.511  1.00  0.00     0.274 HD
ATOM     40  H22 UNL     1      -3.578  25.484   7.223  1.00  0.00     0.274 HD
ATOM     41  H21 UNL     1      -4.386  25.682   8.696  1.00  0.00     0.274 HD
ENDBRANCH  37  38
ENDBRANCH  36  37
ENDBRANCH  35  36
ENDBRANCH   6  35
TORSDOF 16
ENDMDL