MODEL 1
REMARK VINA RESULT: -9.681418892      0.000      0.000
REMARK  16 active torsions:
REMARK  status: ('A' for Active; 'I' for Inactive)
REMARK    1  A    between atoms: C2_2  and  C3_3
REMARK       I    between atoms: C3_3  and  N1_5
REMARK    2  A    between atoms: N1_5  and  C4_7
REMARK    3  A    between atoms: C4_7  and  C5_8
REMARK    4  A    between atoms: C5_8  and  C6_9
REMARK    5  A    between atoms: C6_9  and  C7_10
REMARK    6  A    between atoms: C7_10  and  N2_11
REMARK       I    between atoms: N2_11  and  C8_13
REMARK    7  A    between atoms: C8_13  and  C9_15
REMARK    8  A    between atoms: N3_19  and  C13_20
REMARK    9  A    between atoms: C13_20  and  O3_21
REMARK   10  A    between atoms: C13_20  and  C14_23
REMARK   11  A    between atoms: C14_23  and  C15_24
REMARK   12  A    between atoms: C14_23  and  C19_32
REMARK   13  A    between atoms: C15_24  and  C16_25
REMARK   14  A    between atoms: C16_25  and  C17_26
REMARK   15  A    between atoms: C17_26  and  N4_27
REMARK   16  A    between atoms: C19_32  and  C20_33
ROOT
HETATM    1  C9  UNL     1       2.668  22.009   6.340  1.00  0.00     0.174 C
HETATM    2  C10 UNL     1       2.684  21.084   7.583  1.00  0.00     0.036 C
HETATM    3  C11 UNL     1       2.332  22.009   8.694  1.00  0.00     0.022 C
HETATM    4  C12 UNL     1       1.830  23.275   8.079  1.00  0.00     0.120 C
HETATM    5  N3  UNL     1       1.832  23.072   6.631  1.00  0.00    -0.374 N
ENDROOT
BRANCH   5   6
HETATM    6  C13 UNL     1       0.616  23.357   6.070  1.00  0.00     0.220 C
BRANCH   6   7
HETATM    7  O3  UNL     1       0.807  24.414   5.127  1.00  0.00    -0.377 OA
ATOM      8  H3  UNL     1      -0.016  24.547   4.670  1.00  0.00     0.212 HD
ENDBRANCH   6   7
BRANCH   6   9
HETATM    9  C14 UNL     1      -0.618  23.630   6.879  1.00  0.00     0.034 C
BRANCH   9  10
HETATM   10  C15 UNL     1      -1.023  25.071   6.676  1.00  0.00     0.010 C
BRANCH  10  11
HETATM   11  C16 UNL     1      -0.701  25.957   7.865  1.00  0.00     0.020 C
BRANCH  11  12
HETATM   12  C17 UNL     1      -1.930  26.201   8.713  1.00  0.00     0.122 C
BRANCH  12  13
HETATM   13  N4  UNL     1      -2.774  27.240   8.188  1.00  0.00    -0.367 N
HETATM   14  C18 UNL     1      -3.973  27.444   8.621  1.00  0.00     0.196 C
HETATM   15  N5  UNL     1      -4.809  28.461   8.113  1.00  0.00    -0.067 NA
HETATM   16  N6  UNL     1      -4.446  26.589   9.655  1.00  0.00    -0.067 NA
ATOM     17  H4  UNL     1      -2.411  27.839   7.446  1.00  0.00     0.161 HD
ENDBRANCH  12  13
ENDBRANCH  11  12
ENDBRANCH  10  11
ENDBRANCH   9  10
BRANCH   9  18
HETATM   18  C19 UNL     1      -1.752  22.705   6.662  1.00  0.00     0.013 C
BRANCH  18  19
HETATM   19  C20 UNL     1      -2.704  22.427   7.766  1.00  0.00    -0.014 C
HETATM   20  C21 UNL     1      -3.878  23.344   7.853  1.00  0.00     0.005 C
HETATM   21  C22 UNL     1      -5.036  22.874   8.637  1.00  0.00     0.000 C
HETATM   22  C23 UNL     1      -4.726  21.670   9.530  1.00  0.00     0.000 C
HETATM   23  C24 UNL     1      -4.248  20.599   8.573  1.00  0.00     0.000 C
HETATM   24  C25 UNL     1      -2.872  21.007   8.111  1.00  0.00     0.005 C
ENDBRANCH  18  19
ENDBRANCH   9  18
ENDBRANCH   6   9
ENDBRANCH   5   6
BRANCH   1  25
HETATM   25  C8  UNL     1       4.127  22.441   6.172  1.00  0.00     0.244 C
HETATM   26  N2  UNL     1       4.450  23.574   5.446  1.00  0.00    -0.335 N
ATOM     27  H2  UNL     1       3.631  24.034   5.049  1.00  0.00     0.168 HD
HETATM   28  O2  UNL     1       4.987  21.721   6.720  1.00  0.00    -0.271 OA
BRANCH  26  29
HETATM   29  C7  UNL     1       5.651  24.235   5.132  1.00  0.00     0.091 C
BRANCH  29  30
HETATM   30  C6  UNL     1       6.958  23.678   5.517  1.00  0.00     0.018 C
BRANCH  30  31
HETATM   31  C5  UNL     1       8.044  23.459   4.572  1.00  0.00     0.018 C
BRANCH  31  32
HETATM   32  C4  UNL     1       9.046  24.490   4.251  1.00  0.00     0.091 C
BRANCH  32  33
HETATM   33  N1  UNL     1       9.531  24.618   2.943  1.00  0.00    -0.334 N
HETATM   34  C3  UNL     1       8.914  25.002   1.749  1.00  0.00     0.244 C
HETATM   35  O1  UNL     1       7.695  25.312   1.615  1.00  0.00    -0.268 OA
ATOM     36  H1  UNL     1      10.520  24.387   2.843  1.00  0.00     0.168 HD
BRANCH  34  37
HETATM   37  C2  UNL     1       9.659  25.086   0.465  1.00  0.00     0.064 C
HETATM   38  C1  UNL     1       9.966  24.024  -0.201  1.00  0.00     0.017 C
ENDBRANCH  34  37
ENDBRANCH  32  33
ENDBRANCH  31  32
ENDBRANCH  30  31
ENDBRANCH  29  30
ENDBRANCH  26  29
ENDBRANCH   1  25
TORSDOF 16
ENDMDL