MODEL 1
REMARK VINA RESULT: -8.651668828      0.000      0.000
REMARK  16 active torsions:
REMARK  status: ('A' for Active; 'I' for Inactive)
REMARK    1  A    between atoms: C2_2  and  C5_5
REMARK       I    between atoms: C5_5  and  N1_7
REMARK    2  A    between atoms: N1_7  and  C6_9
REMARK    3  A    between atoms: N2_11  and  C8_12
REMARK    4  A    between atoms: C8_12  and  C9_13
REMARK       I    between atoms: C9_13  and  N3_15
REMARK    5  A    between atoms: N3_15  and  C10_17
REMARK    6  A    between atoms: C10_17  and  C11_18
REMARK    7  A    between atoms: C11_18  and  C12_19
REMARK    8  A    between atoms: C12_19  and  C13_20
REMARK    9  A    between atoms: C13_20  and  C14_21
REMARK   10  A    between atoms: C14_21  and  C15_22
REMARK   11  A    between atoms: C15_22  and  C16_23
REMARK   12  A    between atoms: C16_23  and  C17_24
REMARK   13  A    between atoms: C17_24  and  C18_25
REMARK   14  A    between atoms: C18_25  and  C19_26
REMARK   15  A    between atoms: C19_26  and  N4_27
REMARK       I    between atoms: N4_27  and  C20_29
REMARK       I    between atoms: C20_29  and  N6_33
REMARK   16  A    between atoms: N6_33  and  N7_35
ROOT
HETATM    1  C10 UNL     1       6.980  23.834   4.860  1.00  0.00     0.123 C
ENDROOT
BRANCH   1   2
HETATM    2  N3  UNL     1       8.099  24.707   4.714  1.00  0.00    -0.360 N
HETATM    3  C9  UNL     1       8.043  26.052   5.106  1.00  0.00     0.235 C
HETATM    4  O2  UNL     1       7.000  26.528   5.592  1.00  0.00    -0.272 OA
ATOM      5  H3  UNL     1       8.963  24.342   4.313  1.00  0.00     0.162 HD
BRANCH   3   6
HETATM    6  C8  UNL     1       9.219  26.975   4.964  1.00  0.00     0.230 C
BRANCH   6   7
HETATM    7  N2  UNL     1       9.407  27.312   3.584  1.00  0.00    -0.353 N
HETATM    8  C7  UNL     1      10.220  26.574   2.778  1.00  0.00     0.139 A
HETATM    9  C6  UNL     1      10.429  26.864   1.448  1.00  0.00     0.123 A
HETATM   10  N8  UNL     1       9.797  27.928   0.922  1.00  0.00    -0.350 N
HETATM   11  C22 UNL     1       8.998  28.661   1.694  1.00  0.00     0.107 A
ATOM     12  H8  UNL     1       9.929  28.172  -0.060  1.00  0.00     0.166 HD
HETATM   13  C21 UNL     1       8.795  28.364   3.021  1.00  0.00     0.108 A
BRANCH   9  14
HETATM   14  N1  UNL     1      11.209  26.116   0.772  1.00  0.00    -0.311 N
HETATM   15  C5  UNL     1      11.610  26.491  -0.532  1.00  0.00     0.231 C
HETATM   16  O1  UNL     1      12.420  27.438  -0.750  1.00  0.00    -0.272 OA
ATOM     17  H1  UNL     1      11.547  25.242   1.173  1.00  0.00     0.170 HD
BRANCH  15  18
HETATM   18  C2  UNL     1      11.030  25.710  -1.663  1.00  0.00     0.030 C
HETATM   19  C1  UNL     1      12.141  25.435  -2.654  1.00  0.00     0.025 C
HETATM   20  C3  UNL     1       9.901  26.506  -2.256  1.00  0.00     0.025 C
HETATM   21  C4  UNL     1      10.442  24.382  -1.193  1.00  0.00     0.025 C
ENDBRANCH  15  18
ENDBRANCH   9  14
ENDBRANCH   6   7
ENDBRANCH   3   6
ENDBRANCH   1   2
BRANCH   1  22
HETATM   22  C11 UNL     1       7.120  23.049   6.145  1.00  0.00     0.023 C
BRANCH  22  23
HETATM   23  C12 UNL     1       5.821  22.308   6.329  1.00  0.00     0.028 C
BRANCH  23  24
HETATM   24  C13 UNL     1       4.609  23.055   5.981  1.00  0.00    -0.031 C
BRANCH  24  25
HETATM   25  C14 UNL     1       3.285  22.690   6.445  1.00  0.00    -0.031 C
BRANCH  25  26
HETATM   26  C15 UNL     1       3.039  21.635   7.455  1.00  0.00     0.027 C
BRANCH  26  27
HETATM   27  C16 UNL     1       2.395  21.968   8.722  1.00  0.00     0.004 C
BRANCH  27  28
HETATM   28  C17 UNL     1       1.007  21.562   9.003  1.00  0.00     0.002 C
BRANCH  28  29
HETATM   29  C18 UNL     1       0.186  20.987   7.950  1.00  0.00     0.020 C
BRANCH  29  30
HETATM   30  C19 UNL     1      -0.632  21.812   7.053  1.00  0.00     0.138 C
BRANCH  30  31
HETATM   31  N4  UNL     1      -0.866  23.095   7.798  1.00  0.00    -0.225 N
HETATM   32  C20 UNL     1      -1.155  24.293   7.122  1.00  0.00     0.691 C
HETATM   33  N5  UNL     1      -2.108  24.395   6.260  1.00  0.00    -0.233 N
HETATM   34  N6  UNL     1      -0.367  25.440   7.397  1.00  0.00    -0.072 N
ATOM     35  H52 UNL     1      -2.675  23.570   6.062  1.00  0.00     0.174 HD
ATOM     36  H51 UNL     1      -2.318  25.265   5.770  1.00  0.00     0.174 HD
ATOM     37  H6  UNL     1       0.650  25.389   7.334  1.00  0.00     0.212 HD
ATOM     38  H4  UNL     1      -0.815  23.097   8.817  1.00  0.00     0.177 HD
BRANCH  34  39
HETATM   39  N7  UNL     1      -0.982  26.632   7.754  1.00  0.00    -0.024 N
HETATM   40  O3  UNL     1      -0.438  27.706   7.477  1.00  0.00    -0.516 OA
HETATM   41  O4  UNL     1      -2.173  26.613   8.402  1.00  0.00    -0.516 OA
ENDBRANCH  34  39
ENDBRANCH  30  31
ENDBRANCH  29  30
ENDBRANCH  28  29
ENDBRANCH  27  28
ENDBRANCH  26  27
ENDBRANCH  25  26
ENDBRANCH  24  25
ENDBRANCH  23  24
ENDBRANCH  22  23
ENDBRANCH   1  22
TORSDOF 16
ENDMDL