MODEL 3
REMARK VINA RESULT: -9.229008127      0.723      1.056
REMARK  14 active torsions:
REMARK  status: ('A' for Active; 'I' for Inactive)
REMARK    1  A    between atoms: C2_2  and  C3_3
REMARK    2  A    between atoms: C3_3  and  C5_5
REMARK    3  A    between atoms: N3_15  and  C9_16
REMARK    4  A    between atoms: C9_16  and  C10_17
REMARK    5  A    between atoms: C10_17  and  C11_18
REMARK    6  A    between atoms: C11_18  and  C12_19
REMARK    7  A    between atoms: C12_19  and  N4_20
REMARK    8  A    between atoms: C13_22  and  C14_23
REMARK    9  A    between atoms: C14_23  and  O3_24
REMARK   10  A    between atoms: C14_23  and  C15_26
REMARK   11  A    between atoms: C15_26  and  C16_27
REMARK   12  A    between atoms: C15_26  and  C18_29
REMARK   13  A    between atoms: C18_29  and  C19_30
REMARK   14  A    between atoms: C19_30  and  C20_31
ROOT
HETATM    1  C11 UNL     1       7.481  22.797   4.784  1.00  0.00     0.046 C
ENDROOT
BRANCH   1   2
HETATM    2  C10 UNL     1       7.824  24.183   4.218  1.00  0.00     0.025 C
BRANCH   2   3
HETATM    3  C9  UNL     1       8.632  25.004   5.180  1.00  0.00     0.137 C
BRANCH   3   4
HETATM    4  N3  UNL     1       8.795  26.331   4.622  1.00  0.00    -0.268 N
HETATM    5  C8  UNL     1       9.801  26.432   3.622  1.00  0.00     0.325 C
HETATM    6  N2  UNL     1      10.155  27.352   2.585  1.00  0.00    -0.334 N
HETATM    7  O2  UNL     1      10.603  25.445   3.651  1.00  0.00    -0.247 OA
HETATM    8  C7  UNL     1       9.710  28.742   2.392  1.00  0.00     0.227 C
ATOM      9  H2  UNL     1      10.804  26.997   1.883  1.00  0.00     0.164 HD
HETATM   10  C6  UNL     1       9.782  29.443   3.687  1.00  0.00     0.236 C
HETATM   11  N1  UNL     1       9.130  29.264   4.960  1.00  0.00    -0.346 N
HETATM   12  O1  UNL     1      10.588  30.402   3.670  1.00  0.00    -0.272 OA
HETATM   13  C5  UNL     1       7.894  28.725   5.448  1.00  0.00     0.181 C
ATOM     14  H1  UNL     1       9.706  29.618   5.723  1.00  0.00     0.163 HD
HETATM   15  C25 UNL     1       7.871  27.253   5.228  1.00  0.00     0.251 C
HETATM   16  O4  UNL     1       6.852  26.678   5.642  1.00  0.00    -0.271 OA
BRANCH  13  17
HETATM   17  C3  UNL     1       7.507  29.195   6.785  1.00  0.00     0.013 C
HETATM   18  C4  UNL     1       7.528  30.724   6.921  1.00  0.00     0.012 C
BRANCH  17  19
HETATM   19  C2  UNL     1       8.224  28.622   7.932  1.00  0.00     0.002 C
HETATM   20  C1  UNL     1       7.532  28.614   9.239  1.00  0.00     0.005 C
ENDBRANCH  17  19
ENDBRANCH  13  17
ENDBRANCH   3   4
ENDBRANCH   2   3
ENDBRANCH   1   2
BRANCH   1  21
HETATM   21  C12 UNL     1       7.076  23.054   6.218  1.00  0.00     0.060 C
BRANCH  21  22
HETATM   22  N4  UNL     1       6.009  22.329   6.699  1.00  0.00    -0.380 N
HETATM   23  C13 UNL     1       4.772  22.206   6.163  1.00  0.00     0.096 C
ATOM     24  H4  UNL     1       6.171  21.821   7.569  1.00  0.00     0.164 HD
BRANCH  23  25
HETATM   25  C14 UNL     1       3.723  23.275   6.170  1.00  0.00     0.185 C
BRANCH  25  26
HETATM   26  O3  UNL     1       3.447  23.445   4.776  1.00  0.00    -0.386 OA
ATOM     27  H3  UNL     1       4.226  23.085   4.368  1.00  0.00     0.210 HD
ENDBRANCH  25  26
BRANCH  25  28
HETATM   28  C15 UNL     1       2.466  23.015   6.884  1.00  0.00    -0.047 C
BRANCH  28  29
HETATM   29  C16 UNL     1       2.573  21.956   7.983  1.00  0.00     0.033 C
HETATM   30  C17 UNL     1       1.346  21.075   8.064  1.00  0.00     0.010 C
ENDBRANCH  28  29
BRANCH  28  31
HETATM   31  C18 UNL     1       1.185  22.925   6.167  1.00  0.00     0.004 C
BRANCH  31  32
HETATM   32  C19 UNL     1       0.224  24.017   6.087  1.00  0.00     0.006 C
BRANCH  32  33
HETATM   33  C20 UNL     1      -0.892  24.168   7.022  1.00  0.00     0.208 C
HETATM   34  C21 UNL     1      -0.678  24.202   8.486  1.00  0.00     0.037 C
HETATM   35  C22 UNL     1      -1.794  25.086   9.094  1.00  0.00     0.004 C
HETATM   36  C23 UNL     1      -3.020  24.941   8.258  1.00  0.00     0.027 C
HETATM   37  C24 UNL     1      -3.075  23.567   7.679  1.00  0.00     0.233 C
HETATM   38  N5  UNL     1      -2.001  23.249   6.776  1.00  0.00    -0.068 N
ATOM     39  H52 UNL     1      -2.298  23.250   5.801  1.00  0.00     0.277 HD
ATOM     40  H51 UNL     1      -1.717  22.271   6.836  1.00  0.00     0.277 HD
ENDBRANCH  32  33
ENDBRANCH  31  32
ENDBRANCH  28  31
ENDBRANCH  25  28
ENDBRANCH  23  25
ENDBRANCH  21  22
ENDBRANCH   1  21
TORSDOF 14
ENDMDL