MODEL 2
REMARK VINA RESULT: -8.402427316      1.538      2.048
REMARK  9 active torsions:
REMARK  status: ('A' for Active; 'I' for Inactive)
REMARK    1  A    between atoms: N1_8  and  C8_9
REMARK    2  A    between atoms: C8_9  and  C9_10
REMARK    3  A    between atoms: C9_10  and  C10_11
REMARK    4  A    between atoms: C10_11  and  C11_12
REMARK    5  A    between atoms: C11_12  and  C12_13
REMARK    6  A    between atoms: C12_13  and  C13_14
REMARK    7  A    between atoms: C13_14  and  N2_15
REMARK    8  A    between atoms: C16_18  and  N3_19
REMARK    9  A    between atoms: N3_19  and  C17_21
ROOT
HETATM    1  N2  UNL     1      15.948  -6.944  14.112  1.00  0.00    -0.353 N
HETATM    2  C14 UNL     1      16.261  -5.757  14.714  1.00  0.00     0.095 A
HETATM    3  C15 UNL     1      16.705  -4.697  13.964  1.00  0.00     0.066 A
HETATM    4  C16 UNL     1      16.824  -4.864  12.605  1.00  0.00     0.108 A
HETATM    5  N7  UNL     1      16.512  -6.040  12.025  1.00  0.00    -0.338 N
ATOM      6  H7  UNL     1      16.604  -6.154  11.016  1.00  0.00     0.168 HD
HETATM    7  C21 UNL     1      16.080  -7.061  12.780  1.00  0.00     0.184 A
ENDROOT
BRANCH   1   8
HETATM    8  C13 UNL     1      15.494  -7.996  14.957  1.00  0.00     0.129 C
BRANCH   8   9
HETATM    9  C12 UNL     1      14.740  -9.083  14.167  1.00  0.00     0.020 C
BRANCH   9  10
HETATM   10  C11 UNL     1      14.284 -10.062  15.191  1.00  0.00     0.002 C
BRANCH  10  11
HETATM   11  C10 UNL     1      15.199 -11.011  15.804  1.00  0.00     0.002 C
BRANCH  11  12
HETATM   12  C9  UNL     1      15.580 -12.273  15.165  1.00  0.00     0.020 C
BRANCH  12  13
HETATM   13  C8  UNL     1      16.970 -12.501  14.726  1.00  0.00     0.128 C
BRANCH  13  14
HETATM   14  N1  UNL     1      17.145 -12.122  13.303  1.00  0.00    -0.359 N
HETATM   15  C6  UNL     1      17.766 -10.994  12.942  1.00  0.00     0.013 A
HETATM   16  C4  UNL     1      17.914 -10.637  11.607  1.00  0.00    -0.039 A
HETATM   17  C7  UNL     1      18.333 -10.094  13.951  1.00  0.00     0.069 C
HETATM   18  C3  UNL     1      17.391 -11.496  10.663  1.00  0.00     0.016 A
HETATM   19  C5  UNL     1      18.611  -9.375  11.252  1.00  0.00     0.050 C
HETATM   20  C2  UNL     1      16.752 -12.656  11.006  1.00  0.00    -0.046 A
HETATM   21  C1  UNL     1      16.205 -13.552   9.961  1.00  0.00     0.049 C
HETATM   22  C22 UNL     1      16.646 -12.940  12.351  1.00  0.00     0.097 A
ENDBRANCH  13  14
ENDBRANCH  12  13
ENDBRANCH  11  12
ENDBRANCH  10  11
ENDBRANCH   9  10
ENDBRANCH   8   9
ENDBRANCH   1   8
BRANCH   4  23
HETATM   23  N3  UNL     1      17.239  -3.878  11.896  1.00  0.00    -0.327 N
ATOM     24  H3  UNL     1      17.768  -3.124  12.335  1.00  0.00     0.169 HD
BRANCH  23  25
HETATM   25  C17 UNL     1      16.971  -3.828  10.511  1.00  0.00     0.139 A
HETATM   26  C18 UNL     1      17.675  -3.794   9.393  1.00  0.00     0.125 A
HETATM   27  N4  UNL     1      18.730  -3.772   8.552  1.00  0.00    -0.302 N
HETATM   28  C20 UNL     1      16.558  -3.760   8.596  1.00  0.00     0.142 A
HETATM   29  C19 UNL     1      18.310  -3.725   7.272  1.00  0.00     0.326 A
ATOM     30  H4  UNL     1      19.708  -3.789   8.844  1.00  0.00     0.171 HD
HETATM   31  O1  UNL     1      19.011  -3.694   6.217  1.00  0.00    -0.247 OA
HETATM   32  N5  UNL     1      16.979  -3.719   7.314  1.00  0.00    -0.292 N
ATOM     33  H5  UNL     1      16.367  -3.687   6.498  1.00  0.00     0.172 HD
HETATM   34  N6  UNL     1      15.841  -3.791   9.647  1.00  0.00    -0.325 N
ATOM     35  H6  UNL     1      14.834  -3.790   9.809  1.00  0.00     0.169 HD
ENDBRANCH  23  25
ENDBRANCH   4  23
TORSDOF 9
ENDMDL