MODEL 2
REMARK VINA RESULT: -7.224322409      4.569      7.703
REMARK  10 active torsions:
REMARK  status: ('A' for Active; 'I' for Inactive)
REMARK    1  A    between atoms: N3_6  and  C3_7
REMARK    2  A    between atoms: C3_7  and  C4_8
REMARK    3  A    between atoms: C6_12  and  C7_13
REMARK    4  A    between atoms: C7_13  and  C8_14
REMARK    5  A    between atoms: C8_14  and  C9_15
REMARK    6  A    between atoms: C9_15  and  N5_16
REMARK    7  A    between atoms: N8_23  and  C12_24
REMARK    8  A    between atoms: C12_24  and  C13_25
REMARK    9  A    between atoms: C14_26  and  C15_27
REMARK   10  A    between atoms: C15_27  and  N9_28
ROOT
HETATM    1  C4  UNL     1      16.131  -7.393  14.444  1.00  0.00     0.049 A
HETATM    2  C5  UNL     1      15.622  -8.080  13.363  1.00  0.00     0.116 A
HETATM    3  N4  UNL     1      15.699  -7.227  12.330  1.00  0.00    -0.354 N
ATOM      4  H4  UNL     1      15.403  -7.424  11.374  1.00  0.00     0.166 HD
HETATM    5  C6  UNL     1      16.239  -6.054  12.770  1.00  0.00     0.084 A
HETATM    6  N8  UNL     1      16.505  -6.156  14.071  1.00  0.00    -0.326 N
ENDROOT
BRANCH   5   7
HETATM    7  C7  UNL     1      16.469  -4.929  11.838  1.00  0.00     0.078 C
BRANCH   7   8
HETATM    8  C8  UNL     1      17.543  -5.177  10.825  1.00  0.00     0.029 C
BRANCH   8   9
HETATM    9  C9  UNL     1      18.422  -4.026  10.499  1.00  0.00     0.150 C
BRANCH   9  10
HETATM   10  N5  UNL     1      18.480  -3.833   9.074  1.00  0.00    -0.287 N
HETATM   11  C10 UNL     1      17.568  -3.205   8.287  1.00  0.00     0.201 A
HETATM   12  N6  UNL     1      18.033  -3.263   7.029  1.00  0.00    -0.346 N
HETATM   13  C11 UNL     1      19.198  -3.908   7.040  1.00  0.00     0.198 A
ATOM     14  H6  UNL     1      17.572  -2.879   6.204  1.00  0.00     0.167 HD
HETATM   15  N7  UNL     1      19.467  -4.257   8.302  1.00  0.00    -0.293 N
ATOM     16  H7  UNL     1      20.294  -4.763   8.617  1.00  0.00     0.188 HD
ENDBRANCH   9  10
ENDBRANCH   8   9
ENDBRANCH   7   8
ENDBRANCH   5   7
BRANCH   6  17
HETATM   17  C12 UNL     1      17.107  -5.185  14.935  1.00  0.00     0.224 C
BRANCH  17  18
HETATM   18  C13 UNL     1      15.973  -4.407  15.516  1.00  0.00    -0.085 C
HETATM   19  C14 UNL     1      15.057  -3.769  15.969  1.00  0.00    -0.085 C
BRANCH  19  20
HETATM   20  C15 UNL     1      13.947  -2.977  16.501  1.00  0.00     0.221 C
BRANCH  20  21
HETATM   21  N9  UNL     1      14.493  -2.075  17.480  1.00  0.00    -0.356 N
HETATM   22  C16 UNL     1      14.070  -2.120  18.759  1.00  0.00     0.091 A
HETATM   23  C17 UNL     1      14.585  -1.254  19.727  1.00  0.00     0.017 A
HETATM   24  C18 UNL     1      15.548  -0.323  19.392  1.00  0.00     0.003 A
HETATM   25  C19 UNL     1      15.966  -0.294  18.079  1.00  0.00     0.017 A
HETATM   26  C20 UNL     1      15.432  -1.168  17.150  1.00  0.00     0.091 A
ENDBRANCH  20  21
ENDBRANCH  19  20
ENDBRANCH  17  18
ENDBRANCH   6  17
BRANCH   1  27
HETATM   27  C3  UNL     1      16.226  -7.990  15.793  1.00  0.00     0.210 C
BRANCH  27  28
HETATM   28  N3  UNL     1      14.944  -8.022  16.479  1.00  0.00    -0.265 N
HETATM   29  N1  UNL     1      13.931  -8.900  16.492  1.00  0.00    -0.234 N
HETATM   30  C1  UNL     1      13.663 -10.163  15.856  1.00  0.00     0.200 C
HETATM   31  N2  UNL     1      13.291  -8.117  17.332  1.00  0.00    -0.278 N
HETATM   32  C2  UNL     1      14.291  -7.222  17.337  1.00  0.00     0.220 A
ATOM     33  H2  UNL     1      12.386  -8.169  17.799  1.00  0.00     0.189 HD
ENDBRANCH  27  28
ENDBRANCH   1  27
TORSDOF 10
ENDMDL