MODEL 3
REMARK VINA RESULT: -8.137115299      1.711      2.750
REMARK  10 active torsions:
REMARK  status: ('A' for Active; 'I' for Inactive)
REMARK    1  A    between atoms: N2_4  and  C3_5
REMARK    2  A    between atoms: C3_5  and  C4_6
REMARK    3  A    between atoms: C4_6  and  N3_7
REMARK    4  A    between atoms: C4_6  and  C5_11
REMARK    5  A    between atoms: C5_11  and  C6_12
REMARK    6  A    between atoms: C12_22  and  C13_23
REMARK    7  A    between atoms: C13_23  and  C14_24
REMARK    8  A    between atoms: C14_24  and  C15_25
REMARK    9  A    between atoms: C15_25  and  N6_26
REMARK   10  A    between atoms: C17_30  and  N8_31
ROOT
HETATM    1  C1  UNL     1      16.134  -8.855  14.574  1.00  0.00     0.157 C
HETATM    2  N1  UNL     1      16.999  -8.541  13.453  1.00  0.00    -0.347 N
HETATM    3  C2  UNL     1      17.463  -7.297  13.202  1.00  0.00     0.185 A
HETATM    4  N2  UNL     1      18.256  -7.009  12.178  1.00  0.00    -0.350 N
HETATM    5  C9  UNL     1      18.610  -8.004  11.353  1.00  0.00     0.105 A
HETATM    6  C10 UNL     1      18.154  -9.310  11.573  1.00  0.00     0.007 A
HETATM    7  C11 UNL     1      18.540 -10.295  10.707  1.00  0.00     0.022 A
HETATM    8  C12 UNL     1      18.109 -11.621  10.883  1.00  0.00    -0.057 A
HETATM    9  C18 UNL     1      17.300 -11.838  11.957  1.00  0.00     0.009 A
HETATM   10  C19 UNL     1      16.902 -10.844  12.841  1.00  0.00     0.031 A
HETATM   11  C20 UNL     1      17.342  -9.568  12.636  1.00  0.00     0.046 A
ENDROOT
BRANCH   4  12
HETATM   12  C3  UNL     1      18.735  -5.689  11.928  1.00  0.00     0.162 C
BRANCH  12  13
HETATM   13  C4  UNL     1      19.286  -5.462  10.575  1.00  0.00     0.207 C
BRANCH  13  14
HETATM   14  N3  UNL     1      20.752  -5.605  10.569  1.00  0.00    -0.073 N
ATOM     15  H33 UNL     1      21.170  -5.230  11.420  1.00  0.00     0.274 HD
ATOM     16  H32 UNL     1      21.035  -6.580  10.674  1.00  0.00     0.274 HD
ATOM     17  H31 UNL     1      21.158  -5.184   9.734  1.00  0.00     0.274 HD
ENDBRANCH  13  14
BRANCH  13  18
HETATM   18  C5  UNL     1      18.954  -4.105  10.069  1.00  0.00     0.092 C
BRANCH  18  19
HETATM   19  C6  UNL     1      18.678  -3.958   8.644  1.00  0.00     0.027 A
HETATM   20  C7  UNL     1      17.523  -3.623   7.997  1.00  0.00     0.114 A
HETATM   21  N4  UNL     1      17.708  -3.622   6.665  1.00  0.00    -0.360 N
HETATM   22  C8  UNL     1      18.987  -3.958   6.460  1.00  0.00     0.180 A
ATOM     23  H4  UNL     1      17.011  -3.407   5.952  1.00  0.00     0.166 HD
HETATM   24  N5  UNL     1      19.585  -4.163   7.634  1.00  0.00    -0.355 N
ATOM     25  H5  UNL     1      20.561  -4.430   7.762  1.00  0.00     0.166 HD
ENDBRANCH  18  19
ENDBRANCH  13  18
ENDBRANCH  12  13
ENDBRANCH   4  12
BRANCH   8  26
HETATM   26  C13 UNL     1      18.574 -12.653   9.945  1.00  0.00     0.040 C
BRANCH  26  27
HETATM   27  C14 UNL     1      17.596 -13.679   9.544  1.00  0.00     0.026 C
BRANCH  27  28
HETATM   28  C15 UNL     1      17.828 -15.107   9.880  1.00  0.00     0.151 C
BRANCH  28  29
HETATM   29  N6  UNL     1      17.152 -16.066   9.053  1.00  0.00    -0.273 N
HETATM   30  C16 UNL     1      17.384 -17.337   8.786  1.00  0.00     0.218 A
HETATM   31  N7  UNL     1      16.450 -17.813   7.914  1.00  0.00    -0.185 N
HETATM   32  C17 UNL     1      15.624 -16.798   7.642  1.00  0.00     0.691 A
ATOM     33  H7  UNL     1      16.393 -18.761   7.542  1.00  0.00     0.185 HD
HETATM   34  N9  UNL     1      16.061 -15.759   8.334  1.00  0.00    -0.129 N
ATOM     35  H9  UNL     1      15.623 -14.838   8.323  1.00  0.00     0.206 HD
BRANCH  32  36
HETATM   36  N8  UNL     1      14.607 -16.891   6.839  1.00  0.00    -0.233 N
ATOM     37  H82 UNL     1      14.369 -17.625   6.173  1.00  0.00     0.174 HD
ATOM     38  H81 UNL     1      13.870 -16.188   6.774  1.00  0.00     0.174 HD
ENDBRANCH  32  36
ENDBRANCH  28  29
ENDBRANCH  27  28
ENDBRANCH  26  27
ENDBRANCH   8  26
TORSDOF 10
ENDMDL