MODEL 4
REMARK VINA RESULT: -7.851805499      1.230      2.425
REMARK  7 active torsions:
REMARK  status: ('A' for Active; 'I' for Inactive)
REMARK    1  A    between atoms: C4_4  and  C5_5
REMARK    2  A    between atoms: N2_14  and  C13_15
REMARK    3  A    between atoms: C13_15  and  C14_16
REMARK    4  A    between atoms: C14_16  and  C15_17
REMARK    5  A    between atoms: C15_17  and  C16_18
REMARK    6  A    between atoms: C16_18  and  N3_19
REMARK    7  A    between atoms: C19_27  and  N6_28
REMARK       I    between atoms: N6_28  and  C20_30
ROOT
HETATM    1  C15 UNL     1      15.204  -8.208  14.137  1.00  0.00     0.022 C
ENDROOT
BRANCH   1   2
HETATM    2  C14 UNL     1      15.795  -9.549  14.502  1.00  0.00     0.022 C
BRANCH   2   3
HETATM    3  C13 UNL     1      17.176  -9.726  13.898  1.00  0.00     0.128 C
BRANCH   3   4
HETATM    4  N2  UNL     1      17.134 -10.822  12.955  1.00  0.00    -0.360 N
HETATM    5  C2  UNL     1      17.668 -10.694  11.732  1.00  0.00     0.008 A
HETATM    6  C1  UNL     1      18.308  -9.422  11.351  1.00  0.00     0.068 C
HETATM    7  C3  UNL     1      17.642 -11.713  10.809  1.00  0.00     0.037 A
HETATM    8  C4  UNL     1      17.056 -12.911  11.131  1.00  0.00    -0.021 A
HETATM    9  C11 UNL     1      16.503 -13.061  12.384  1.00  0.00     0.029 A
HETATM   10  C12 UNL     1      16.554 -12.010  13.270  1.00  0.00     0.092 A
BRANCH   8  11
HETATM   11  C5  UNL     1      17.018 -14.025  10.152  1.00  0.00    -0.010 A
HETATM   12  C6  UNL     1      16.274 -13.872   9.011  1.00  0.00     0.015 A
HETATM   13  C7  UNL     1      16.261 -14.945   8.111  1.00  0.00     0.018 A
HETATM   14  C8  UNL     1      16.982 -16.082   8.409  1.00  0.00     0.090 A
HETATM   15  N1  UNL     1      17.709 -16.222   9.533  1.00  0.00    -0.370 N
HETATM   16  C9  UNL     1      18.442 -17.453   9.773  1.00  0.00     0.154 C
HETATM   17  C10 UNL     1      17.717 -15.189  10.390  1.00  0.00     0.102 A
ENDBRANCH   8  11
ENDBRANCH   3   4
ENDBRANCH   2   3
ENDBRANCH   1   2
BRANCH   1  18
HETATM   18  C16 UNL     1      15.898  -7.068  14.805  1.00  0.00     0.148 C
BRANCH  18  19
HETATM   19  N3  UNL     1      16.220  -6.079  13.770  1.00  0.00    -0.179 N
HETATM   20  C17 UNL     1      16.351  -6.398  12.483  1.00  0.00     0.205 A
HETATM   21  N4  UNL     1      16.648  -5.479  11.548  1.00  0.00    -0.303 N
HETATM   22  C18 UNL     1      16.821  -4.194  11.904  1.00  0.00     0.339 A
ATOM     23  H4  UNL     1      16.740  -5.755  10.571  1.00  0.00     0.171 HD
HETATM   24  O1  UNL     1      17.101  -3.290  11.061  1.00  0.00    -0.246 OA
HETATM   25  N5  UNL     1      16.692  -3.849  13.208  1.00  0.00    -0.141 N
HETATM   26  C19 UNL     1      16.395  -4.778  14.134  1.00  0.00     0.691 A
ATOM     27  H5  UNL     1      16.822  -2.877  13.489  1.00  0.00     0.189 HD
BRANCH  26  28
HETATM   28  N6  UNL     1      16.268  -4.456  15.388  1.00  0.00    -0.163 N
HETATM   29  C20 UNL     1      15.511  -3.295  15.717  1.00  0.00     0.200 C
HETATM   30  N7  UNL     1      14.230  -3.299  15.790  1.00  0.00    -0.373 N
HETATM   31  N8  UNL     1      16.255  -2.103  15.967  1.00  0.00    -0.063 NA
ATOM     32  H72 UNL     1      13.697  -4.150  15.611  1.00  0.00     0.158 HD
ATOM     33  H71 UNL     1      13.688  -2.467  16.025  1.00  0.00     0.158 HD
ATOM     34  H6  UNL     1      16.700  -5.023  16.118  1.00  0.00     0.187 HD
ENDBRANCH  26  28
ENDBRANCH  18  19
ENDBRANCH   1  18
TORSDOF 7
ENDMDL