MODEL 4
REMARK VINA RESULT: -6.476272891      1.178      1.766
REMARK  10 active torsions:
REMARK  status: ('A' for Active; 'I' for Inactive)
REMARK    1  A    between atoms: C3_3  and  N3_17
REMARK    2  A    between atoms: C4_4  and  C5_5
REMARK    3  A    between atoms: C6_6  and  C7_7
REMARK       I    between atoms: C7_7  and  N1_9
REMARK    4  A    between atoms: C8_11  and  N2_13
REMARK    5  A    between atoms: N2_13  and  C10_15
REMARK    6  A    between atoms: N3_17  and  C12_19
REMARK    7  A    between atoms: C12_19  and  C15_25
REMARK       I    between atoms: N4_20  and  C13_22
REMARK    8  A    between atoms: C15_25  and  C16_26
REMARK    9  A    between atoms: C15_25  and  N7_32
REMARK   10  A    between atoms: C16_26  and  N5_27
REMARK       I    between atoms: N7_32  and  C17_34
ROOT
HETATM    1  C1  UNL     1      15.112  -9.368  14.648  1.00  0.00     0.019 C
HETATM    2  C2  UNL     1      15.463  -8.299  14.225  1.00  0.00    -0.060 C
HETATM    3  C3  UNL     1      15.913  -7.007  13.712  1.00  0.00     0.087 C
HETATM    4  C4  UNL     1      16.012  -5.971  14.547  1.00  0.00     0.039 C
ENDROOT
BRANCH   3   5
HETATM    5  N3  UNL     1      16.231  -6.857  12.346  1.00  0.00    -0.337 N
ATOM      6  H3  UNL     1      15.581  -6.386  11.716  1.00  0.00     0.168 HD
BRANCH   5   7
HETATM    7  C12 UNL     1      17.476  -7.373  11.849  1.00  0.00     0.109 C
HETATM    8  N4  UNL     1      17.712  -8.614  11.949  1.00  0.00    -0.315 N
HETATM    9  C13 UNL     1      18.830  -9.339  11.547  1.00  0.00     0.219 C
ATOM     10  H4  UNL     1      16.974  -9.162  12.390  1.00  0.00     0.170 HD
HETATM   11  C14 UNL     1      18.627 -10.558  10.713  1.00  0.00     0.117 C
HETATM   12  O2  UNL     1      19.979  -9.000  11.861  1.00  0.00    -0.274 OA
BRANCH   7  13
HETATM   13  C15 UNL     1      18.417  -6.404  11.234  1.00  0.00     0.171 C
BRANCH  13  14
HETATM   14  C16 UNL     1      19.353  -5.801  12.292  1.00  0.00     0.171 C
BRANCH  14  15
HETATM   15  N5  UNL     1      20.718  -5.881  11.913  1.00  0.00    -0.341 N
HETATM   16  N6  UNL     1      21.027  -6.249  10.769  1.00  0.00    -0.349 N
ATOM     17  H62 UNL     1      20.285  -6.492  10.112  1.00  0.00     0.176 HD
ATOM     18  H61 UNL     1      22.007  -6.307  10.496  1.00  0.00     0.176 HD
ATOM     19  H5  UNL     1      21.448  -5.635  12.582  1.00  0.00     0.179 HD
ENDBRANCH  14  15
ENDBRANCH  13  14
BRANCH  13  20
HETATM   20  N7  UNL     1      17.610  -5.300  10.701  1.00  0.00    -0.348 N
HETATM   21  C17 UNL     1      18.085  -4.582   9.575  1.00  0.00     0.214 C
HETATM   22  C18 UNL     1      17.259  -3.465   9.043  1.00  0.00     0.117 C
HETATM   23  O3  UNL     1      19.167  -4.848   9.012  1.00  0.00    -0.274 OA
ATOM     24  H7  UNL     1      16.720  -5.054  11.134  1.00  0.00     0.163 HD
ENDBRANCH  13  20
ENDBRANCH   7  13
ENDBRANCH   5   7
ENDBRANCH   3   5
BRANCH   4  25
HETATM   25  C5  UNL     1      16.451  -4.704  14.065  1.00  0.00     0.008 C
HETATM   26  C6  UNL     1      16.640  -3.650  14.767  1.00  0.00     0.074 C
BRANCH  26  27
HETATM   27  C7  UNL     1      16.452  -3.518  16.183  1.00  0.00     0.246 C
HETATM   28  O1  UNL     1      17.320  -3.448  17.074  1.00  0.00    -0.268 OA
HETATM   29  N1  UNL     1      15.097  -3.457  16.667  1.00  0.00    -0.314 N
HETATM   30  C8  UNL     1      14.766  -2.853  17.745  1.00  0.00     0.075 C
ATOM     31  H1  UNL     1      14.365  -3.917  16.125  1.00  0.00     0.170 HD
HETATM   32  C9  UNL     1      13.318  -2.885  18.104  1.00  0.00     0.089 C
BRANCH  30  33
HETATM   33  N2  UNL     1      15.760  -2.206  18.511  1.00  0.00    -0.380 N
ATOM     34  H2  UNL     1      16.554  -2.763  18.827  1.00  0.00     0.160 HD
BRANCH  33  35
HETATM   35  C10 UNL     1      15.732  -0.818  18.877  1.00  0.00     0.116 C
HETATM   36  C11 UNL     1      15.907   0.132  17.738  1.00  0.00     0.026 C
ENDBRANCH  33  35
ENDBRANCH  30  33
ENDBRANCH  26  27
ENDBRANCH   4  25
TORSDOF 10
ENDMDL