MODEL 4
REMARK VINA RESULT: -6.757850440      4.086      6.522
REMARK  10 active torsions:
REMARK  status: ('A' for Active; 'I' for Inactive)
REMARK    1  A    between atoms: C2_2  and  C3_3
REMARK    2  A    between atoms: C3_3  and  C4_4
REMARK    3  A    between atoms: N1_5  and  C5_6
REMARK    4  A    between atoms: C5_6  and  C6_7
REMARK    5  A    between atoms: C6_7  and  C7_8
REMARK    6  A    between atoms: C7_8  and  C8_9
REMARK    7  A    between atoms: C8_9  and  N2_10
REMARK    8  A    between atoms: C13_15  and  C14_16
REMARK    9  A    between atoms: C14_16  and  N4_20
REMARK       I    between atoms: N5_25  and  C18_27
REMARK   10  A    between atoms: N8_32  and  N9_33
ROOT
HETATM    1  C4  UNL     1      15.005  -7.188  17.030  1.00  0.00     0.047 A
HETATM    2  N1  UNL     1      15.615  -6.551  16.119  1.00  0.00    -0.184 N
HETATM    3  C17 UNL     1      15.475  -5.123  16.475  1.00  0.00     0.707 A
HETATM    4  N5  UNL     1      15.959  -4.173  15.799  1.00  0.00    -0.162 N
ATOM      5  H5  UNL     1      16.477  -4.429  14.959  1.00  0.00     0.187 HD
HETATM    6  C18 UNL     1      15.860  -2.789  16.084  1.00  0.00     0.202 C
HETATM    7  N6  UNL     1      14.789  -1.999  15.641  1.00  0.00    -0.063 NA
HETATM    8  N7  UNL     1      16.817  -2.247  16.783  1.00  0.00    -0.368 N
ATOM      9  H7  UNL     1      17.608  -2.801  17.112  1.00  0.00     0.161 HD
HETATM   10  C19 UNL     1      16.718  -0.827  17.078  1.00  0.00     0.148 C
HETATM   11  N8  UNL     1      14.729  -5.035  17.661  1.00  0.00    -0.102 N
HETATM   12  C20 UNL     1      14.427  -6.214  18.031  1.00  0.00     0.160 A
ENDROOT
BRANCH   2  13
HETATM   13  C5  UNL     1      16.376  -6.880  14.960  1.00  0.00     0.147 C
BRANCH  13  14
HETATM   14  C6  UNL     1      15.736  -7.517  13.786  1.00  0.00     0.022 C
BRANCH  14  15
HETATM   15  C7  UNL     1      16.323  -7.093  12.473  1.00  0.00     0.022 C
BRANCH  15  16
HETATM   16  C8  UNL     1      16.373  -5.560  12.405  1.00  0.00     0.128 C
BRANCH  16  17
HETATM   17  N2  UNL     1      17.557  -5.216  11.628  1.00  0.00    -0.365 N
HETATM   18  C9  UNL     1      18.769  -5.535  12.118  1.00  0.00     0.097 A
HETATM   19  C10 UNL     1      19.929  -5.210  11.413  1.00  0.00    -0.045 A
HETATM   20  C11 UNL     1      21.265  -5.554  11.952  1.00  0.00     0.049 C
HETATM   21  C12 UNL     1      19.775  -4.560  10.210  1.00  0.00     0.024 A
HETATM   22  C13 UNL     1      18.529  -4.224   9.689  1.00  0.00     0.023 A
HETATM   23  C16 UNL     1      17.431  -4.584  10.457  1.00  0.00     0.105 A
BRANCH  22  24
HETATM   24  C14 UNL     1      18.374  -3.535   8.414  1.00  0.00     0.105 C
HETATM   25  N3  UNL     1      17.241  -3.005   8.140  1.00  0.00    -0.385 N
ATOM     26  H32 UNL     1      16.451  -3.057   8.783  1.00  0.00     0.157 HD
ATOM     27  H31 UNL     1      17.133  -2.523   7.248  1.00  0.00     0.157 HD
BRANCH  24  28
HETATM   28  N4  UNL     1      19.474  -3.463   7.519  1.00  0.00    -0.380 N
HETATM   29  C15 UNL     1      19.419  -4.184   6.247  1.00  0.00     0.147 C
ATOM     30  H4  UNL     1      20.298  -2.913   7.762  1.00  0.00     0.160 HD
ENDBRANCH  24  28
ENDBRANCH  22  24
ENDBRANCH  16  17
ENDBRANCH  15  16
ENDBRANCH  14  15
ENDBRANCH  13  14
ENDBRANCH   2  13
BRANCH   1  31
HETATM   31  C3  UNL     1      14.850  -8.647  17.242  1.00  0.00     0.059 C
BRANCH  31  32
HETATM   32  C2  UNL     1      13.497  -9.104  16.665  1.00  0.00     0.002 C
HETATM   33  C1  UNL     1      13.793 -10.156  15.624  1.00  0.00     0.005 C
ENDBRANCH  31  32
ENDBRANCH   1  31
BRANCH  11  34
HETATM   34  N9  UNL     1      14.395  -3.809  18.298  1.00  0.00    -0.325 N
ATOM     35  H92 UNL     1      14.968  -3.260  18.939  1.00  0.00     0.178 HD
ATOM     36  H91 UNL     1      13.504  -3.328  18.174  1.00  0.00     0.178 HD
ENDBRANCH  11  34
TORSDOF 10
ENDMDL