MODEL 5
REMARK VINA RESULT: -6.097258460      4.333      7.467
REMARK  9 active torsions:
REMARK  status: ('A' for Active; 'I' for Inactive)
REMARK    1  A    between atoms: C2_2  and  C3_3
REMARK    2  A    between atoms: C3_3  and  C4_4
REMARK    3  A    between atoms: C4_4  and  C5_5
REMARK    4  A    between atoms: C5_5  and  N1_6
REMARK    5  A    between atoms: C6_7  and  C7_8
REMARK    6  A    between atoms: C7_8  and  C8_9
REMARK    7  A    between atoms: C10_11  and  N2_12
REMARK    8  A    between atoms: N5_19  and  C13_20
REMARK    9  A    between atoms: C13_20  and  C14_21
ROOT
HETATM    1  C14 UNL     1      18.925  -6.419  11.553  1.00  0.00    -0.087 C
HETATM    2  C15 UNL     1      20.093  -6.138  11.516  1.00  0.00    -0.109 C
HETATM    3  C16 UNL     1      21.523  -5.818  11.464  1.00  0.00     0.112 C
ENDROOT
BRANCH   1   4
HETATM    4  C13 UNL     1      17.500  -6.787  11.605  1.00  0.00     0.220 C
BRANCH   4   5
HETATM    5  N5  UNL     1      16.965  -6.264  12.821  1.00  0.00    -0.335 N
HETATM    6  C8  UNL     1      16.627  -7.074  13.996  1.00  0.00     0.096 C
HETATM    7  C9  UNL     1      16.911  -6.089  15.103  1.00  0.00     0.060 C
HETATM    8  C10 UNL     1      16.135  -4.874  14.565  1.00  0.00     0.178 C
HETATM    9  C12 UNL     1      16.646  -4.894  13.148  1.00  0.00     0.243 C
HETATM   10  O1  UNL     1      16.793  -3.950  12.354  1.00  0.00    -0.271 OA
BRANCH   6  11
HETATM   11  C7  UNL     1      17.464  -8.293  14.005  1.00  0.00     0.084 C
BRANCH  11  12
HETATM   12  C6  UNL     1      16.820  -9.587  14.079  1.00  0.00     0.031 A
HETATM   13  N1  UNL     1      17.266 -10.615  13.311  1.00  0.00    -0.331 N
HETATM   14  C20 UNL     1      16.599 -11.776  13.386  1.00  0.00     0.169 A
HETATM   15  C19 UNL     1      15.510 -11.969  14.186  1.00  0.00     0.168 A
HETATM   16  N8  UNL     1      16.426 -13.071  13.011  1.00  0.00    -0.281 N
HETATM   17  N6  UNL     1      15.056 -10.973  14.948  1.00  0.00    -0.342 N
HETATM   18  N7  UNL     1      15.368 -13.251  13.791  1.00  0.00    -0.281 N
HETATM   19  C17 UNL     1      15.715  -9.783  14.889  1.00  0.00     0.117 A
HETATM   20  C18 UNL     1      13.886 -11.146  15.821  1.00  0.00     0.157 C
ATOM     21  H7  UNL     1      14.730 -14.019  13.999  1.00  0.00     0.188 HD
ATOM     22  H8  UNL     1      16.927 -13.682  12.365  1.00  0.00     0.188 HD
BRANCH  13  23
HETATM   23  C5  UNL     1      18.409 -10.482  12.460  1.00  0.00     0.131 C
BRANCH  23  24
HETATM   24  C4  UNL     1      18.053 -10.568  11.003  1.00  0.00     0.024 C
BRANCH  24  25
HETATM   25  C3  UNL     1      19.160 -11.398  10.337  1.00  0.00     0.028 C
BRANCH  25  26
HETATM   26  C2  UNL     1      18.784 -12.824  10.245  1.00  0.00    -0.037 C
HETATM   27  C1  UNL     1      17.662 -13.193   9.653  1.00  0.00     0.007 C
ENDBRANCH  25  26
ENDBRANCH  24  25
ENDBRANCH  23  24
ENDBRANCH  13  23
ENDBRANCH  11  12
ENDBRANCH   6  11
BRANCH   8  28
HETATM   28  N2  UNL     1      16.513  -3.674  15.242  1.00  0.00    -0.354 N
HETATM   29  C11 UNL     1      15.629  -2.926  15.763  1.00  0.00     0.197 C
HETATM   30  N3  UNL     1      14.237  -3.277  15.681  1.00  0.00    -0.067 NA
HETATM   31  N4  UNL     1      15.998  -1.734  16.436  1.00  0.00    -0.067 NA
ATOM     32  H2  UNL     1      17.498  -3.416  15.307  1.00  0.00     0.162 HD
ENDBRANCH   8  28
ENDBRANCH   4   5
ENDBRANCH   1   4
TORSDOF 9
ENDMDL