MODEL 5
REMARK VINA RESULT: -7.034813491      1.890      2.665
REMARK  9 active torsions:
REMARK  status: ('A' for Active; 'I' for Inactive)
REMARK    1  A    between atoms: N1_2  and  C2_4
REMARK    2  A    between atoms: N4_11  and  C5_12
REMARK    3  A    between atoms: C5_12  and  C6_13
REMARK    4  A    between atoms: N5_17  and  C10_18
REMARK    5  A    between atoms: C10_18  and  C11_19
REMARK    6  A    between atoms: C11_19  and  C12_20
REMARK    7  A    between atoms: C12_20  and  C13_21
REMARK    8  A    between atoms: C13_21  and  C14_22
REMARK    9  A    between atoms: C14_22  and  S1_23
ROOT
HETATM    1  C6  UNL     1      17.876  -6.398  12.125  1.00  0.00     0.046 A
HETATM    2  C7  UNL     1      18.532  -7.349  11.312  1.00  0.00     0.030 A
HETATM    3  C8  UNL     1      18.161  -8.665  11.366  1.00  0.00     0.021 A
HETATM    4  C9  UNL     1      17.151  -9.061  12.208  1.00  0.00     0.110 A
HETATM    5  N5  UNL     1      16.552  -8.131  12.963  1.00  0.00    -0.301 N
HETATM    6  N6  UNL     1      16.900  -6.854  12.920  1.00  0.00    -0.297 N
HETATM    7  C15 UNL     1      16.151  -5.922  13.741  1.00  0.00     0.178 C
ENDROOT
BRANCH   1   8
HETATM    8  C5  UNL     1      18.323  -5.003  12.010  1.00  0.00     0.190 C
BRANCH   8   9
HETATM    9  N4  UNL     1      17.747  -4.303  10.861  1.00  0.00    -0.320 N
HETATM   10  C4  UNL     1      16.514  -3.777  10.846  1.00  0.00     0.186 A
HETATM   11  N3  UNL     1      16.321  -3.231   9.647  1.00  0.00    -0.335 N
HETATM   12  C3  UNL     1      17.425  -3.410   8.904  1.00  0.00     0.167 A
ATOM     13  H3  UNL     1      15.473  -2.755   9.343  1.00  0.00     0.168 HD
HETATM   14  N2  UNL     1      18.013  -3.191   7.704  1.00  0.00    -0.173 N
HETATM   15  C16 UNL     1      18.328  -4.097   9.695  1.00  0.00     0.169 A
HETATM   16  C2  UNL     1      19.243  -3.715   7.720  1.00  0.00     0.681 A
ATOM     17  H2  UNL     1      17.586  -2.705   6.915  1.00  0.00     0.186 HD
HETATM   18  N7  UNL     1      19.445  -4.265   8.918  1.00  0.00    -0.173 N
ATOM     19  H7  UNL     1      20.299  -4.738   9.211  1.00  0.00     0.186 HD
BRANCH  16  20
HETATM   20  N1  UNL     1      20.139  -3.721   6.766  1.00  0.00    -0.230 N
HETATM   21  C1  UNL     1      20.078  -4.729   5.739  1.00  0.00     0.165 C
ATOM     22  H1  UNL     1      20.878  -3.017   6.750  1.00  0.00     0.177 HD
ENDBRANCH  16  20
ENDBRANCH   8   9
ENDBRANCH   1   8
BRANCH   5  23
HETATM   23  C10 UNL     1      15.480  -8.574  13.839  1.00  0.00     0.148 C
BRANCH  23  24
HETATM   24  C11 UNL     1      15.954  -9.625  14.783  1.00  0.00     0.022 C
BRANCH  24  25
HETATM   25  C12 UNL     1      15.262 -10.966  14.623  1.00  0.00     0.003 C
BRANCH  25  26
HETATM   26  C13 UNL     1      16.287 -12.033  14.359  1.00  0.00     0.018 C
BRANCH  26  27
HETATM   27  C14 UNL     1      16.077 -12.813  13.108  1.00  0.00     0.165 C
BRANCH  27  28
HETATM   28  S1  UNL     1      17.424 -12.844  11.993  1.00  0.00     0.101 S
HETATM   29  O1  UNL     1      18.683 -12.241  12.531  1.00  0.00    -0.595 OA
HETATM   30  O2  UNL     1      17.770 -14.308  11.720  1.00  0.00    -0.595 OA
HETATM   31  O3  UNL     1      17.048 -12.168  10.502  1.00  0.00    -0.595 OA
ENDBRANCH  27  28
ENDBRANCH  26  27
ENDBRANCH  25  26
ENDBRANCH  24  25
ENDBRANCH  23  24
ENDBRANCH   5  23
TORSDOF 9
ENDMDL