MODEL 4
REMARK VINA RESULT: -8.149009403      2.036      4.159
REMARK  8 active torsions:
REMARK  status: ('A' for Active; 'I' for Inactive)
REMARK    1  A    between atoms: C2_2  and  O1_3
REMARK    2  A    between atoms: O1_3  and  C3_4
REMARK    3  A    between atoms: C3_4  and  C4_5
REMARK    4  A    between atoms: C4_5  and  N1_6
REMARK    5  A    between atoms: C9_11  and  C10_12
REMARK    6  A    between atoms: C11_13  and  N2_14
REMARK    7  A    between atoms: C14_17  and  C15_18
REMARK    8  A    between atoms: C15_18  and  N3_19
ROOT
HETATM    1  N2  UNL     1      18.233  -9.938  11.259  1.00  0.00    -0.279 N
HETATM    2  C12 UNL     1      17.390  -9.725  12.294  1.00  0.00     0.117 A
HETATM    3  C13 UNL     1      17.524  -8.422  12.719  1.00  0.00     0.047 A
HETATM    4  C14 UNL     1      18.475  -7.841  11.914  1.00  0.00     0.046 A
HETATM    5  N6  UNL     1      18.867  -8.806  11.050  1.00  0.00    -0.297 N
ATOM      6  H6  UNL     1      19.571  -8.671  10.324  1.00  0.00     0.187 HD
ENDROOT
BRANCH   1   7
HETATM    7  C11 UNL     1      18.374 -11.204  10.543  1.00  0.00     0.118 C
HETATM    8  C10 UNL     1      17.539 -12.148  10.794  1.00  0.00     0.049 C
BRANCH   8   9
HETATM    9  C9  UNL     1      17.396 -13.478  10.292  1.00  0.00     0.035 A
HETATM   10  N1  UNL     1      18.109 -14.534  10.671  1.00  0.00    -0.355 N
HETATM   11  C5  UNL     1      17.952 -15.740  10.010  1.00  0.00     0.091 A
HETATM   12  C6  UNL     1      17.064 -15.837   8.975  1.00  0.00     0.017 A
HETATM   13  C7  UNL     1      16.310 -14.773   8.559  1.00  0.00     0.004 A
HETATM   14  C8  UNL     1      16.476 -13.593   9.217  1.00  0.00     0.029 A
BRANCH  10  15
HETATM   15  C4  UNL     1      18.989 -14.599  11.806  1.00  0.00     0.154 C
BRANCH  15  16
HETATM   16  C3  UNL     1      18.212 -15.015  13.061  1.00  0.00     0.187 C
BRANCH  16  17
HETATM   17  O1  UNL     1      18.024 -13.963  13.914  1.00  0.00    -0.390 OA
BRANCH  17  18
HETATM   18  C2  UNL     1      16.711 -13.983  14.362  1.00  0.00     0.163 C
HETATM   19  C1  UNL     1      15.949 -12.738  13.991  1.00  0.00     0.033 C
ENDBRANCH  17  18
ENDBRANCH  16  17
ENDBRANCH  15  16
ENDBRANCH  10  15
ENDBRANCH   8   9
ENDBRANCH   1   7
BRANCH   4  20
HETATM   20  C15 UNL     1      18.989  -6.433  11.962  1.00  0.00     0.190 C
BRANCH  20  21
HETATM   21  N3  UNL     1      18.125  -5.573  11.201  1.00  0.00    -0.322 N
HETATM   22  C16 UNL     1      16.875  -5.191  11.486  1.00  0.00     0.185 A
HETATM   23  N4  UNL     1      16.418  -4.372  10.501  1.00  0.00    -0.346 N
HETATM   24  C17 UNL     1      17.391  -4.233   9.580  1.00  0.00     0.134 A
ATOM     25  H4  UNL     1      15.496  -3.937  10.466  1.00  0.00     0.167 HD
HETATM   26  C18 UNL     1      18.457  -4.987  10.025  1.00  0.00     0.143 A
HETATM   27  C20 UNL     1      17.715  -3.588   8.313  1.00  0.00     0.269 A
HETATM   28  N5  UNL     1      19.499  -4.853   9.062  1.00  0.00    -0.304 N
HETATM   29  C19 UNL     1      19.076  -4.000   7.997  1.00  0.00     0.299 A
ATOM     30  H5  UNL     1      20.413  -5.301   9.124  1.00  0.00     0.171 HD
HETATM   31  O2  UNL     1      19.776  -3.691   6.999  1.00  0.00    -0.264 OA
HETATM   32  O3  UNL     1      16.988  -2.824   7.610  1.00  0.00    -0.280 OA
ENDBRANCH  20  21
ENDBRANCH   4  20
TORSDOF 8
ENDMDL