MODEL 4
REMARK VINA RESULT: -7.275886893      2.748      8.440
REMARK  11 active torsions:
REMARK  status: ('A' for Active; 'I' for Inactive)
REMARK    1  A    between atoms: C2_2  and  N1_3
REMARK    2  A    between atoms: C5_8  and  C6_9
REMARK    3  A    between atoms: C6_9  and  C7_10
REMARK    4  A    between atoms: C7_10  and  C8_11
REMARK    5  A    between atoms: C8_11  and  N3_12
REMARK    6  A    between atoms: C10_14  and  N4_15
REMARK    7  A    between atoms: N4_15  and  O1_19
REMARK    8  A    between atoms: C12_22  and  C13_23
REMARK    9  A    between atoms: C13_23  and  N6_24
REMARK   10  A    between atoms: C15_28  and  N8_29
REMARK   11  A    between atoms: C16_34  and  N10_35
ROOT
HETATM    1  N3  UNL     1      17.746  -9.578  12.098  1.00  0.00    -0.358 N
HETATM    2  C9  UNL     1      16.757  -9.588  13.024  1.00  0.00     0.124 A
HETATM    3  C10 UNL     1      16.273 -10.786  13.469  1.00  0.00     0.096 A
HETATM    4  C11 UNL     1      16.754 -11.997  13.014  1.00  0.00     0.046 A
HETATM    5  C12 UNL     1      17.752 -11.984  12.081  1.00  0.00    -0.015 A
HETATM    6  C17 UNL     1      18.230 -10.754  11.640  1.00  0.00     0.015 A
HETATM    7  C18 UNL     1      19.299 -10.727  10.620  1.00  0.00     0.069 C
ENDROOT
BRANCH   5   8
HETATM    8  C13 UNL     1      18.323 -13.211  11.511  1.00  0.00     0.189 C
BRANCH   8   9
HETATM    9  N6  UNL     1      17.648 -13.777  10.400  1.00  0.00    -0.174 N
HETATM   10  C14 UNL     1      16.465 -13.302   9.997  1.00  0.00     0.218 A
HETATM   11  N7  UNL     1      15.791 -13.841   8.951  1.00  0.00    -0.187 N
HETATM   12  C15 UNL     1      16.314 -14.876   8.295  1.00  0.00     0.691 A
ATOM     13  H7  UNL     1      14.890 -13.457   8.668  1.00  0.00     0.185 HD
HETATM   14  N9  UNL     1      17.488 -15.357   8.683  1.00  0.00    -0.023 N
HETATM   15  C16 UNL     1      18.169 -14.825   9.728  1.00  0.00     0.693 A
ATOM     16  H9  UNL     1      17.890 -16.150   8.182  1.00  0.00     0.203 HD
BRANCH  12  17
HETATM   17  N8  UNL     1      15.698 -15.419   7.288  1.00  0.00    -0.234 N
ATOM     18  H82 UNL     1      15.393 -16.391   7.348  1.00  0.00     0.174 HD
ATOM     19  H81 UNL     1      15.509 -14.894   6.435  1.00  0.00     0.174 HD
ENDBRANCH  12  17
BRANCH  15  20
HETATM   20  N10 UNL     1      19.307 -15.341  10.022  1.00  0.00    -0.234 N
ATOM     21 2H10 UNL     1      19.835 -14.917  10.784  1.00  0.00     0.174 HD
ATOM     22 1H10 UNL     1      19.684 -16.155   9.537  1.00  0.00     0.174 HD
ENDBRANCH  15  20
ENDBRANCH   8   9
ENDBRANCH   5   8
BRANCH   3  23
HETATM   23  N4  UNL     1      15.231 -10.727  14.446  1.00  0.00    -0.169 N
HETATM   24  N5  UNL     1      14.930 -11.727  15.153  1.00  0.00    -0.319 N
ATOM     25  H52 UNL     1      15.448 -12.596  15.023  1.00  0.00     0.179 HD
ATOM     26  H51 UNL     1      14.187 -11.685  15.849  1.00  0.00     0.179 HD
BRANCH  23  27
HETATM   27  O1  UNL     1      14.537  -9.563  14.620  1.00  0.00    -0.268 OA
ATOM     28  H1  UNL     1      14.890  -8.890  15.190  1.00  0.00     0.247 HD
ENDBRANCH  23  27
ENDBRANCH   3  23
BRANCH   1  29
HETATM   29  C8  UNL     1      18.215  -8.280  11.676  1.00  0.00     0.129 C
BRANCH  29  30
HETATM   30  C7  UNL     1      17.270  -7.150  11.882  1.00  0.00     0.027 C
BRANCH  30  31
HETATM   31  C6  UNL     1      17.975  -5.819  11.815  1.00  0.00     0.078 C
BRANCH  31  32
HETATM   32  C5  UNL     1      17.288  -4.877  10.883  1.00  0.00     0.083 A
HETATM   33  N1  UNL     1      17.760  -4.364   9.742  1.00  0.00    -0.346 N
HETATM   34  C3  UNL     1      16.799  -3.551   9.227  1.00  0.00     0.109 A
HETATM   35  C4  UNL     1      15.716  -3.573  10.080  1.00  0.00     0.106 A
HETATM   36  N2  UNL     1      16.037  -4.395  11.094  1.00  0.00    -0.354 N
ATOM     37  H2  UNL     1      15.440  -4.618  11.890  1.00  0.00     0.166 HD
BRANCH  33  38
HETATM   38  C2  UNL     1      19.062  -4.644   9.183  1.00  0.00     0.125 C
HETATM   39  C1  UNL     1      19.268  -3.924   7.870  1.00  0.00     0.027 C
ENDBRANCH  33  38
ENDBRANCH  31  32
ENDBRANCH  30  31
ENDBRANCH  29  30
ENDBRANCH   1  29
TORSDOF 11
ENDMDL