MODEL 4
REMARK VINA RESULT: -8.198932945      3.857     10.954
REMARK  11 active torsions:
REMARK  status: ('A' for Active; 'I' for Inactive)
REMARK    1  A    between atoms: C2_2  and  C3_3
REMARK    2  A    between atoms: C3_3  and  C4_4
REMARK    3  A    between atoms: C4_4  and  C5_5
REMARK    4  A    between atoms: C5_5  and  C6_6
REMARK    5  A    between atoms: C15_15  and  O1_16
REMARK    6  A    between atoms: O1_16  and  C16_17
REMARK    7  A    between atoms: C17_19  and  C18_20
REMARK    8  A    between atoms: C18_20  and  O3_21
REMARK    9  A    between atoms: C19_23  and  O4_24
REMARK   10  A    between atoms: C20_26  and  O5_27
REMARK   11  A    between atoms: C21_29  and  O6_30
ROOT
HETATM    1  C6  UNL     1      74.597  93.551  42.368  1.00  0.00    -0.006 C
HETATM    2  C7  UNL     1      73.927  94.727  43.104  1.00  0.00     0.006 C
HETATM    3  C8  UNL     1      73.727  94.230  44.541  1.00  0.00     0.006 C
HETATM    4  C9  UNL     1      73.585  92.768  44.288  1.00  0.00    -0.002 C
HETATM    5  C10 UNL     1      73.519  91.900  45.480  1.00  0.00    -0.005 C
HETATM    6  C11 UNL     1      72.143  92.112  46.133  1.00  0.00     0.006 C
HETATM    7  C12 UNL     1      71.892  91.092  47.226  1.00  0.00     0.005 C
HETATM    8  C13 UNL     1      73.139  90.337  47.445  1.00  0.00    -0.008 C
HETATM    9  C14 UNL     1      73.019  89.162  48.392  1.00  0.00     0.037 C
HETATM   10  C15 UNL     1      74.288  88.411  48.032  1.00  0.00     0.125 C
HETATM   11  C22 UNL     1      74.580  88.738  46.562  1.00  0.00     0.037 C
HETATM   12  C23 UNL     1      73.415  89.544  46.157  1.00  0.00    -0.004 C
HETATM   13  C24 UNL     1      73.539  90.455  45.018  1.00  0.00    -0.005 C
HETATM   14  C25 UNL     1      74.681  90.172  44.079  1.00  0.00     0.006 C
HETATM   15  C26 UNL     1      74.603  91.097  42.888  1.00  0.00     0.010 C
HETATM   16  C27 UNL     1      74.800  92.505  43.396  1.00  0.00    -0.036 C
HETATM   17  C28 UNL     1      76.083  92.609  44.126  1.00  0.00     0.016 C
ENDROOT
BRANCH  10  18
HETATM   18  O1  UNL     1      74.177  87.049  48.241  1.00  0.00    -0.353 OA
BRANCH  18  19
HETATM   19  C16 UNL     1      73.803  86.836  49.561  1.00  0.00     0.292 C
HETATM   20  O2  UNL     1      74.858  86.489  50.378  1.00  0.00    -0.348 OA
HETATM   21  C17 UNL     1      75.428  85.279  49.994  1.00  0.00     0.179 C
HETATM   22  C19 UNL     1      74.480  84.118  50.149  1.00  0.00     0.180 C
HETATM   23  C20 UNL     1      73.279  84.404  49.240  1.00  0.00     0.183 C
HETATM   24  C21 UNL     1      72.741  85.752  49.671  1.00  0.00     0.204 C
BRANCH  21  25
HETATM   25  C18 UNL     1      76.664  85.018  50.830  1.00  0.00     0.198 C
BRANCH  25  26
HETATM   26  O3  UNL     1      76.889  86.091  51.667  1.00  0.00    -0.398 OA
ATOM     27  H3  UNL     1      77.630  85.903  52.231  1.00  0.00     0.209 HD
ENDBRANCH  25  26
ENDBRANCH  21  25
BRANCH  22  28
HETATM   28  O4  UNL     1      75.147  82.967  49.751  1.00  0.00    -0.390 OA
ATOM     29  H4  UNL     1      75.600  82.615  50.508  1.00  0.00     0.210 HD
ENDBRANCH  22  28
BRANCH  23  30
HETATM   30  O5  UNL     1      72.302  83.458  49.447  1.00  0.00    -0.390 OA
ATOM     31  H5  UNL     1      71.650  83.512  48.758  1.00  0.00     0.210 HD
ENDBRANCH  23  30
BRANCH  24  32
HETATM   32  O6  UNL     1      72.423  85.662  51.035  1.00  0.00    -0.388 OA
ATOM     33  H6  UNL     1      72.422  86.555  51.361  1.00  0.00     0.210 HD
ENDBRANCH  24  32
ENDBRANCH  18  19
ENDBRANCH  10  18
BRANCH   1  34
HETATM   34  C5  UNL     1      75.779  94.107  41.679  1.00  0.00     0.005 C
BRANCH  34  35
HETATM   35  C4  UNL     1      75.457  95.303  40.820  1.00  0.00     0.004 C
BRANCH  35  36
HETATM   36  C3  UNL     1      76.580  96.345  40.931  1.00  0.00     0.026 C
BRANCH  36  37
HETATM   37  C2  UNL     1      77.126  96.370  42.314  1.00  0.00    -0.037 C
HETATM   38  C1  UNL     1      78.200  97.091  42.624  1.00  0.00     0.007 C
ENDBRANCH  36  37
ENDBRANCH  35  36
ENDBRANCH  34  35
ENDBRANCH   1  34
TORSDOF 11
ENDMDL