MODEL 1
REMARK VINA RESULT: -7.771972740      0.000      0.000
REMARK  10 active torsions:
REMARK  status: ('A' for Active; 'I' for Inactive)
REMARK    1  A    between atoms: O1_2  and  C2_3
REMARK    2  A    between atoms: C2_3  and  C3_4
REMARK    3  A    between atoms: C3_4  and  O2_5
REMARK    4  A    between atoms: O2_5  and  C4_6
REMARK    5  A    between atoms: C4_6  and  C5_7
REMARK    6  A    between atoms: C5_7  and  N1_8
REMARK    7  A    between atoms: N1_8  and  C6_10
REMARK    8  A    between atoms: C19_23  and  O3_24
REMARK    9  A    between atoms: C23_29  and  O4_30
REMARK   10  A    between atoms: C24_32  and  O5_33
ROOT
HETATM    1  C6  UNL     1      72.948  88.537  47.952  1.00  0.00     0.026 C
HETATM    2  C7  UNL     1      71.486  88.905  47.941  1.00  0.00     0.038 C
HETATM    3  C8  UNL     1      73.317  88.363  49.432  1.00  0.00     0.031 C
HETATM    4  C9  UNL     1      74.516  87.441  49.422  1.00  0.00     0.012 C
HETATM    5  C10 UNL     1      73.920  86.018  49.426  1.00  0.00    -0.036 C
HETATM    6  C11 UNL     1      73.164  85.944  50.759  1.00  0.00     0.016 C
HETATM    7  C12 UNL     1      72.984  86.021  48.271  1.00  0.00    -0.004 C
HETATM    8  C13 UNL     1      72.937  84.763  47.485  1.00  0.00     0.006 C
HETATM    9  C14 UNL     1      74.201  83.949  47.478  1.00  0.00     0.011 C
HETATM   10  C15 UNL     1      74.756  83.696  48.892  1.00  0.00    -0.032 C
HETATM   11  C16 UNL     1      73.603  83.018  49.621  1.00  0.00     0.016 C
HETATM   12  C17 UNL     1      75.047  85.076  49.427  1.00  0.00     0.005 C
HETATM   13  C18 UNL     1      75.639  85.084  50.810  1.00  0.00     0.038 C
HETATM   14  C19 UNL     1      77.153  85.252  50.674  1.00  0.00     0.119 C
HETATM   15  C20 UNL     1      77.669  83.892  50.293  1.00  0.00     0.037 C
HETATM   16  C21 UNL     1      77.259  83.480  48.887  1.00  0.00    -0.001 C
HETATM   17  C22 UNL     1      78.370  82.491  48.493  1.00  0.00     0.039 C
HETATM   18  C23 UNL     1      78.393  81.314  49.398  1.00  0.00     0.147 C
HETATM   19  C24 UNL     1      77.076  80.771  49.811  1.00  0.00     0.147 C
HETATM   20  C25 UNL     1      75.920  81.671  49.841  1.00  0.00     0.044 C
HETATM   21  C26 UNL     1      75.941  82.806  48.812  1.00  0.00    -0.030 C
HETATM   22  C27 UNL     1      75.851  82.037  47.487  1.00  0.00     0.016 C
HETATM   23  C28 UNL     1      73.140  87.186  47.319  1.00  0.00     0.036 C
ENDROOT
BRANCH   1  24
HETATM   24  N1  UNL     1      73.810  89.458  47.313  1.00  0.00    -0.391 N
ATOM     25  H1  UNL     1      74.258  90.192  47.862  1.00  0.00     0.159 HD
BRANCH  24  26
HETATM   26  C5  UNL     1      74.058  89.377  45.949  1.00  0.00     0.082 C
BRANCH  26  27
HETATM   27  C4  UNL     1      73.781  90.554  45.052  1.00  0.00     0.211 C
BRANCH  27  28
HETATM   28  O2  UNL     1      73.417  91.696  45.696  1.00  0.00    -0.384 OA
BRANCH  28  29
HETATM   29  C3  UNL     1      74.089  92.818  45.366  1.00  0.00     0.194 C
BRANCH  29  30
HETATM   30  C2  UNL     1      74.539  93.001  43.958  1.00  0.00     0.193 C
BRANCH  30  31
HETATM   31  O1  UNL     1      75.903  92.846  43.778  1.00  0.00    -0.394 OA
HETATM   32  C1  UNL     1      76.200  92.096  42.645  1.00  0.00     0.201 C
ENDBRANCH  30  31
ENDBRANCH  29  30
ENDBRANCH  28  29
ENDBRANCH  27  28
ENDBRANCH  26  27
ENDBRANCH  24  26
ENDBRANCH   1  24
BRANCH  14  33
HETATM   33  O3  UNL     1      77.651  85.593  51.904  1.00  0.00    -0.396 OA
ATOM     34  H3  UNL     1      78.576  85.781  51.803  1.00  0.00     0.210 HD
ENDBRANCH  14  33
BRANCH  19  35
HETATM   35  O5  UNL     1      76.789  79.574  49.104  1.00  0.00    -0.393 OA
ATOM     36  H5  UNL     1      76.371  79.771  48.274  1.00  0.00     0.210 HD
ENDBRANCH  19  35
BRANCH  18  37
HETATM   37  O4  UNL     1      79.224  81.563  50.522  1.00  0.00    -0.393 OA
ATOM     38  H4  UNL     1      79.087  80.904  51.192  1.00  0.00     0.210 HD
ENDBRANCH  18  37
TORSDOF 10
ENDMDL