MODEL 1
REMARK VINA RESULT: -9.888574178      0.000      0.000
REMARK  12 active torsions:
REMARK  status: ('A' for Active; 'I' for Inactive)
REMARK    1  A    between atoms: C2_2  and  C3_3
REMARK    2  A    between atoms: C3_3  and  C4_4
REMARK    3  A    between atoms: C4_4  and  C5_5
REMARK    4  A    between atoms: C6_6  and  C7_7
REMARK    5  A    between atoms: C7_7  and  O1_8
REMARK    6  A    between atoms: C7_7  and  C8_10
REMARK    7  A    between atoms: C13_15  and  O2_16
REMARK    8  A    between atoms: C13_15  and  C14_18
REMARK    9  A    between atoms: C19_23  and  C20_24
REMARK   10  A    between atoms: C20_24  and  C21_25
REMARK   11  A    between atoms: C21_25  and  C22_26
REMARK       I    between atoms: C22_26  and  N1_28
REMARK   12  A    between atoms: N1_28  and  C23_30
ROOT
HETATM    1  C4  UNL     1      73.931  87.153  49.044  1.00  0.00     0.072 C
HETATM    2  C16 UNL     1      74.833  87.627  47.929  1.00  0.00     0.038 C
HETATM    3  C17 UNL     1      74.004  87.874  46.657  1.00  0.00     0.037 C
HETATM    4  C18 UNL     1      73.410  89.230  46.795  1.00  0.00    -0.074 C
HETATM    5  C19 UNL     1      73.624  90.204  45.906  1.00  0.00    -0.023 C
HETATM    6  C24 UNL     1      72.542  89.499  47.964  1.00  0.00     0.109 C
HETATM    7  S1  UNL     1      72.327  87.950  48.883  1.00  0.00    -0.142 SA
ENDROOT
BRANCH   1   8
HETATM    8  C3  UNL     1      74.583  87.395  50.358  1.00  0.00     0.033 C
BRANCH   8   9
HETATM    9  C2  UNL     1      75.982  86.927  50.506  1.00  0.00    -0.002 C
HETATM   10  C1  UNL     1      76.768  88.108  51.104  1.00  0.00     0.005 C
ENDBRANCH   8   9
ENDBRANCH   1   8
BRANCH   1  11
HETATM   11  C5  UNL     1      73.694  85.694  48.896  1.00  0.00    -0.083 C
HETATM   12  C6  UNL     1      73.513  84.507  48.767  1.00  0.00    -0.073 C
BRANCH  12  13
HETATM   13  C7  UNL     1      73.314  83.068  48.595  1.00  0.00     0.201 C
BRANCH  13  14
HETATM   14  O1  UNL     1      73.477  82.673  47.274  1.00  0.00    -0.383 OA
ATOM     15  H1  UNL     1      72.706  82.853  46.749  1.00  0.00     0.211 HD
ENDBRANCH  13  14
BRANCH  13  16
HETATM   16  C8  UNL     1      71.956  82.628  49.114  1.00  0.00     0.027 C
HETATM   17  C9  UNL     1      71.787  81.139  48.733  1.00  0.00     0.016 C
HETATM   18  C10 UNL     1      70.373  81.191  48.261  1.00  0.00     0.028 A
HETATM   19  C11 UNL     1      70.656  82.373  47.247  1.00  0.00     0.028 A
HETATM   20  C13 UNL     1      69.750  81.332  47.016  1.00  0.00     0.066 A
HETATM   21  C12 UNL     1      70.876  83.364  48.321  1.00  0.00     0.016 C
BRANCH  20  22
HETATM   22  O2  UNL     1      68.377  81.657  46.963  1.00  0.00    -0.389 OA
ATOM     23  H2  UNL     1      68.118  82.568  46.887  1.00  0.00     0.210 HD
ENDBRANCH  20  22
BRANCH  20  24
HETATM   24  C14 UNL     1      70.059  80.273  45.947  1.00  0.00     0.034 C
HETATM   25  C15 UNL     1      68.848  80.163  45.037  1.00  0.00     0.008 C
ENDBRANCH  20  24
ENDBRANCH  13  16
ENDBRANCH  12  13
ENDBRANCH   1  11
BRANCH   5  26
HETATM   26  C20 UNL     1      73.023  91.548  46.062  1.00  0.00     0.037 C
BRANCH  26  27
HETATM   27  C21 UNL     1      74.008  92.619  45.601  1.00  0.00     0.107 C
BRANCH  27  28
HETATM   28  C22 UNL     1      73.513  93.195  44.344  1.00  0.00     0.236 C
HETATM   29  O3  UNL     1      72.694  94.165  44.313  1.00  0.00    -0.273 OA
HETATM   30  N1  UNL     1      73.933  92.688  43.108  1.00  0.00    -0.157 N
ATOM     31  H1  UNL     1      73.335  92.853  42.298  1.00  0.00     0.187 HD
BRANCH  30  32
HETATM   32  C23 UNL     1      75.007  92.037  42.928  1.00  0.00     0.716 A
HETATM   33  N2  UNL     1      75.240  90.737  42.790  1.00  0.00    -0.115 N
HETATM   34  N3  UNL     1      76.522  90.565  42.628  1.00  0.00    -0.213 N
ATOM     35  H2  UNL     1      74.536  89.999  42.808  1.00  0.00     0.207 HD
HETATM   36  N4  UNL     1      77.123  91.726  42.658  1.00  0.00    -0.213 N
ATOM     37  H3  UNL     1      76.984  89.665  42.498  1.00  0.00     0.210 HD
HETATM   38  N5  UNL     1      76.208  92.646  42.841  1.00  0.00    -0.115 N
ATOM     39  H4  UNL     1      78.125  91.887  42.557  1.00  0.00     0.210 HD
ATOM     40  H5  UNL     1      76.376  93.650  42.907  1.00  0.00     0.207 HD
ENDBRANCH  30  32
ENDBRANCH  27  28
ENDBRANCH  26  27
ENDBRANCH   5  26
TORSDOF 12
ENDMDL