MODEL 2
REMARK VINA RESULT: -7.159704754      3.698      5.789
REMARK  11 active torsions:
REMARK  status: ('A' for Active; 'I' for Inactive)
REMARK    1  A    between atoms: C2_2  and  C3_3
REMARK    2  A    between atoms: C2_2  and  C5_6
REMARK    3  A    between atoms: C3_3  and  C4_4
REMARK    4  A    between atoms: C6_7  and  O2_8
REMARK    5  A    between atoms: C18_21  and  O3_22
REMARK    6  A    between atoms: C18_21  and  C19_24
REMARK    7  A    between atoms: C19_24  and  O4_25
REMARK    8  A    between atoms: O4_25  and  C20_26
REMARK       I    between atoms: C20_26  and  N1_28
REMARK    9  A    between atoms: N1_28  and  C21_30
REMARK   10  A    between atoms: C21_30  and  C22_31
REMARK   11  A    between atoms: C22_31  and  O6_32
ROOT
HETATM    1  C5  UNL     1      72.993  80.980  49.698  1.00  0.00    -0.040 C
HETATM    2  C6  UNL     1      73.964  80.303  48.859  1.00  0.00     0.149 C
HETATM    3  C7  UNL     1      74.832  81.377  48.218  1.00  0.00     0.047 C
HETATM    4  C8  UNL     1      74.288  82.719  48.650  1.00  0.00    -0.026 C
HETATM    5  C9  UNL     1      74.336  83.627  47.459  1.00  0.00     0.016 C
HETATM    6  C10 UNL     1      75.203  83.208  49.787  1.00  0.00    -0.001 C
HETATM    7  C11 UNL     1      76.592  83.451  49.287  1.00  0.00     0.007 C
HETATM    8  C12 UNL     1      77.070  84.852  49.314  1.00  0.00     0.013 C
HETATM    9  C13 UNL     1      76.818  85.468  50.662  1.00  0.00    -0.007 C
HETATM   10  C14 UNL     1      77.526  84.697  51.725  1.00  0.00     0.019 C
HETATM   11  C15 UNL     1      75.327  85.514  50.848  1.00  0.00     0.001 C
HETATM   12  C16 UNL     1      74.921  86.628  49.922  1.00  0.00     0.009 C
HETATM   13  C17 UNL     1      75.990  87.679  50.222  1.00  0.00     0.041 C
HETATM   14  C18 UNL     1      77.187  86.912  50.756  1.00  0.00     0.087 C
HETATM   15  C23 UNL     1      74.622  84.228  50.668  1.00  0.00    -0.005 C
HETATM   16  C24 UNL     1      73.166  84.586  50.322  1.00  0.00     0.006 C
HETATM   17  C25 UNL     1      72.360  83.335  50.148  1.00  0.00     0.015 C
HETATM   18  C26 UNL     1      72.910  82.385  49.101  1.00  0.00    -0.010 C
HETATM   19  C27 UNL     1      71.964  82.336  47.953  1.00  0.00     0.021 C
ENDROOT
BRANCH  14  20
HETATM   20  O3  UNL     1      77.363  87.210  52.123  1.00  0.00    -0.387 OA
ATOM     21  H3  UNL     1      78.276  87.048  52.331  1.00  0.00     0.210 HD
ENDBRANCH  14  20
BRANCH  14  22
HETATM   22  C19 UNL     1      78.392  87.312  49.989  1.00  0.00     0.219 C
BRANCH  22  23
HETATM   23  O4  UNL     1      78.522  88.735  50.125  1.00  0.00    -0.301 OA
BRANCH  23  24
HETATM   24  C20 UNL     1      78.800  89.354  51.315  1.00  0.00     0.360 C
HETATM   25  O5  UNL     1      78.019  90.277  51.673  1.00  0.00    -0.239 OA
HETATM   26  N1  UNL     1      79.915  88.956  52.082  1.00  0.00    -0.335 N
ATOM     27  H1  UNL     1      80.532  88.206  51.770  1.00  0.00     0.164 HD
BRANCH  26  28
HETATM   28  C21 UNL     1      80.151  89.654  53.333  1.00  0.00     0.151 C
BRANCH  28  29
HETATM   29  C22 UNL     1      79.612  88.838  54.488  1.00  0.00     0.183 C
BRANCH  29  30
HETATM   30  O6  UNL     1      78.225  88.955  54.578  1.00  0.00    -0.399 OA
ATOM     31  H6  UNL     1      77.923  89.745  54.146  1.00  0.00     0.209 HD
ENDBRANCH  29  30
ENDBRANCH  28  29
ENDBRANCH  26  28
ENDBRANCH  23  24
ENDBRANCH  22  23
ENDBRANCH  14  22
BRANCH   2  32
HETATM   32  O2  UNL     1      73.509  79.561  47.784  1.00  0.00    -0.391 OA
ATOM     33  H2  UNL     1      73.957  79.645  46.951  1.00  0.00     0.210 HD
ENDBRANCH   2  32
BRANCH   1  34
HETATM   34  C2  UNL     1      71.769  80.394  50.205  1.00  0.00    -0.072 C
HETATM   35  C1  UNL     1      70.883  79.550  49.381  1.00  0.00     0.044 C
BRANCH  34  36
HETATM   36  C3  UNL     1      71.797  79.808  51.597  1.00  0.00     0.103 C
BRANCH  36  37
HETATM   37  C4  UNL     1      70.534  79.785  52.316  1.00  0.00     0.235 C
HETATM   38  O1  UNL     1      70.173  80.522  53.194  1.00  0.00    -0.307 OA
ENDBRANCH  36  37
ENDBRANCH  34  36
ENDBRANCH   1  34
TORSDOF 11
ENDMDL