MODEL 5
REMARK VINA RESULT: -6.973533174      2.503      5.149
REMARK  10 active torsions:
REMARK  status: ('A' for Active; 'I' for Inactive)
REMARK    1  A    between atoms: C3_3  and  O1_4
REMARK    2  A    between atoms: C11_13  and  O2_14
REMARK    3  A    between atoms: O2_14  and  S1_15
REMARK    4  A    between atoms: C13_20  and  C14_21
REMARK    5  A    between atoms: C14_21  and  C15_22
REMARK    6  A    between atoms: C15_22  and  C16_23
REMARK    7  A    between atoms: C16_23  and  C17_24
REMARK    8  A    between atoms: C17_24  and  C18_25
REMARK    9  A    between atoms: C18_25  and  O6_26
REMARK   10  A    between atoms: C23_32  and  O7_33
ROOT
HETATM    1  C1  UNL     1      70.413  83.127  47.893  1.00  0.00     0.013 C
HETATM    2  C2  UNL     1      71.860  82.746  47.701  1.00  0.00     0.017 C
HETATM    3  C3  UNL     1      72.251  81.489  48.440  1.00  0.00     0.122 C
HETATM    4  C4  UNL     1      73.350  81.900  49.426  1.00  0.00     0.037 C
HETATM    5  C5  UNL     1      72.978  83.333  49.673  1.00  0.00    -0.001 C
HETATM    6  C6  UNL     1      74.030  84.145  50.367  1.00  0.00    -0.001 C
HETATM    7  C7  UNL     1      73.388  85.456  50.698  1.00  0.00     0.033 C
HETATM    8  C8  UNL     1      74.347  86.568  50.763  1.00  0.00    -0.023 C
HETATM    9  C9  UNL     1      75.657  86.426  50.584  1.00  0.00    -0.072 C
HETATM   10  C10 UNL     1      76.416  87.741  50.709  1.00  0.00     0.068 C
HETATM   11  C11 UNL     1      77.901  87.437  50.788  1.00  0.00     0.149 C
HETATM   12  C12 UNL     1      78.182  86.688  49.511  1.00  0.00     0.039 C
HETATM   13  C13 UNL     1      77.552  85.310  49.502  1.00  0.00     0.001 C
HETATM   14  C19 UNL     1      76.333  85.128  50.316  1.00  0.00    -0.013 C
HETATM   15  C20 UNL     1      76.592  84.495  51.671  1.00  0.00     0.021 C
HETATM   16  C21 UNL     1      75.316  84.212  49.635  1.00  0.00     0.005 C
HETATM   17  C22 UNL     1      75.195  84.446  48.164  1.00  0.00     0.038 C
HETATM   18  C23 UNL     1      73.965  83.959  47.505  1.00  0.00     0.123 C
HETATM   19  C24 UNL     1      72.728  83.863  48.306  1.00  0.00     0.025 C
ENDROOT
BRANCH  13  20
HETATM   20  C14 UNL     1      78.689  84.359  49.675  1.00  0.00     0.006 C
BRANCH  20  21
HETATM   21  C15 UNL     1      79.060  83.474  48.553  1.00  0.00     0.000 C
BRANCH  21  22
HETATM   22  C16 UNL     1      78.321  82.126  48.799  1.00  0.00     0.002 C
BRANCH  22  23
HETATM   23  C17 UNL     1      77.557  81.727  47.576  1.00  0.00     0.026 C
BRANCH  23  24
HETATM   24  C18 UNL     1      76.476  80.703  47.843  1.00  0.00     0.164 C
BRANCH  24  25
HETATM   25  O6  UNL     1      75.508  80.784  46.842  1.00  0.00    -0.401 OA
ATOM     26  H6  UNL     1      74.655  80.591  47.214  1.00  0.00     0.209 HD
ENDBRANCH  24  25
ENDBRANCH  23  24
ENDBRANCH  22  23
ENDBRANCH  21  22
ENDBRANCH  20  21
ENDBRANCH  13  20
BRANCH  11  27
HETATM   27  O2  UNL     1      78.606  88.612  50.807  1.00  0.00    -0.251 OA
BRANCH  27  28
HETATM   28  S1  UNL     1      79.315  88.851  52.304  1.00  0.00     0.251 S
HETATM   29  O3  UNL     1      78.766  90.071  53.005  1.00  0.00    -0.572 OA
HETATM   30  O4  UNL     1      80.796  89.035  52.206  1.00  0.00    -0.572 OA
HETATM   31  O5  UNL     1      79.069  87.451  53.236  1.00  0.00    -0.572 OA
ENDBRANCH  27  28
ENDBRANCH  11  27
BRANCH  18  32
HETATM   32  O7  UNL     1      73.685  84.826  46.417  1.00  0.00    -0.395 OA
ATOM     33  H7  UNL     1      73.911  85.709  46.684  1.00  0.00     0.210 HD
ENDBRANCH  18  32
BRANCH   3  34
HETATM   34  O1  UNL     1      72.663  80.471  47.603  1.00  0.00    -0.395 OA
ATOM     35  H1  UNL     1      72.500  80.653  46.685  1.00  0.00     0.210 HD
ENDBRANCH   3  34
TORSDOF 10
ENDMDL