MODEL 2
REMARK VINA RESULT: -7.381325353      2.018      7.855
REMARK  10 active torsions:
REMARK  status: ('A' for Active; 'I' for Inactive)
REMARK    1  A    between atoms: C2_2  and  O1_3
REMARK    2  A    between atoms: O1_3  and  C3_4
REMARK    3  A    between atoms: C14_18  and  C15_19
REMARK    4  A    between atoms: C15_19  and  C16_20
REMARK    5  A    between atoms: C15_19  and  C19_25
REMARK    6  A    between atoms: C17_21  and  C18_22
REMARK    7  A    between atoms: C18_22  and  O2_23
REMARK    8  A    between atoms: C25_32  and  C27_34
REMARK    9  A    between atoms: C27_34  and  O4_35
REMARK   10  A    between atoms: C28_37  and  O5_38
ROOT
HETATM    1  C3  UNL     1      80.658  88.861  52.027  1.00  0.00     0.151 C
HETATM    2  C4  UNL     1      80.410  88.212  50.729  1.00  0.00     0.044 C
HETATM    3  C5  UNL     1      79.705  86.862  50.874  1.00  0.00    -0.033 C
HETATM    4  C6  UNL     1      79.936  86.265  49.475  1.00  0.00     0.016 C
HETATM    5  C7  UNL     1      78.280  87.153  51.169  1.00  0.00    -0.001 C
HETATM    6  C8  UNL     1      77.577  88.007  50.150  1.00  0.00     0.006 C
HETATM    7  C9  UNL     1      76.066  87.893  50.244  1.00  0.00     0.012 C
HETATM    8  C10 UNL     1      75.505  86.559  50.024  1.00  0.00    -0.009 C
HETATM    9  C11 UNL     1      74.451  86.115  50.998  1.00  0.00     0.018 C
HETATM   10  C12 UNL     1      76.750  85.619  50.134  1.00  0.00     0.026 C
HETATM   11  C13 UNL     1      76.063  84.352  49.902  1.00  0.00     0.238 C
HETATM   12  N1  UNL     1      75.158  84.654  48.804  1.00  0.00    -0.069 N
ATOM     13  H11 UNL     1      74.234  84.238  48.920  1.00  0.00     0.277 HD
ATOM     14  H12 UNL     1      75.406  84.179  47.937  1.00  0.00     0.277 HD
HETATM   15  C14 UNL     1      75.120  86.124  48.671  1.00  0.00     0.209 C
HETATM   16  C21 UNL     1      77.407  85.909  51.395  1.00  0.00    -0.003 C
HETATM   17  C22 UNL     1      78.113  84.806  52.097  1.00  0.00     0.006 C
HETATM   18  C23 UNL     1      79.259  85.459  52.888  1.00  0.00     0.007 C
HETATM   19  C24 UNL     1      80.314  86.003  51.915  1.00  0.00     0.007 C
HETATM   20  C25 UNL     1      81.425  86.539  52.715  1.00  0.00     0.010 C
HETATM   21  C26 UNL     1      82.761  85.987  52.169  1.00  0.00     0.020 C
HETATM   22  C28 UNL     1      81.588  87.999  52.808  1.00  0.00     0.157 C
ENDROOT
BRANCH  15  23
HETATM   23  C15 UNL     1      73.754  86.568  48.217  1.00  0.00     0.108 C
BRANCH  23  24
HETATM   24  C16 UNL     1      73.748  87.654  47.225  1.00  0.00    -0.015 C
HETATM   25  C17 UNL     1      73.115  88.795  47.257  1.00  0.00    -0.004 C
BRANCH  25  26
HETATM   26  C18 UNL     1      72.236  89.245  48.344  1.00  0.00     0.191 C
BRANCH  26  27
HETATM   27  O2  UNL     1      70.894  89.065  47.953  1.00  0.00    -0.397 OA
ATOM     28  H2  UNL     1      70.550  88.287  48.376  1.00  0.00     0.209 HD
ENDBRANCH  26  27
ENDBRANCH  25  26
ENDBRANCH  23  24
BRANCH  23  29
HETATM   29  C19 UNL     1      73.098  85.391  47.481  1.00  0.00     0.132 C
HETATM   30  C20 UNL     1      71.975  84.676  48.118  1.00  0.00     0.091 C
HETATM   31  O3  UNL     1      73.481  85.035  46.390  1.00  0.00    -0.298 OA
ENDBRANCH  23  29
ENDBRANCH  15  23
BRANCH   1  32
HETATM   32  O1  UNL     1      81.226  90.115  51.903  1.00  0.00    -0.384 OA
BRANCH  32  33
HETATM   33  C2  UNL     1      80.705  90.879  50.881  1.00  0.00     0.163 C
HETATM   34  C1  UNL     1      79.519  91.705  51.329  1.00  0.00     0.033 C
ENDBRANCH  32  33
ENDBRANCH   1  32
BRANCH  20  35
HETATM   35  C27 UNL     1      81.420  85.980  54.153  1.00  0.00     0.176 C
BRANCH  35  36
HETATM   36  O4  UNL     1      82.724  85.834  54.621  1.00  0.00    -0.400 OA
ATOM     37  H4  UNL     1      83.121  85.052  54.256  1.00  0.00     0.209 HD
ENDBRANCH  35  36
ENDBRANCH  20  35
BRANCH  22  38
HETATM   38  O5  UNL     1      81.491  88.478  54.141  1.00  0.00    -0.392 OA
ATOM     39  H5  UNL     1      81.195  87.730  54.646  1.00  0.00     0.210 HD
ENDBRANCH  22  38
TORSDOF 10
ENDMDL