MODEL 4
REMARK VINA RESULT: -6.882028098      0.829      1.164
REMARK  12 active torsions:
REMARK  status: ('A' for Active; 'I' for Inactive)
REMARK    1  A    between atoms: C3_3  and  C4_4
REMARK    2  A    between atoms: C6_6  and  O1_7
REMARK    3  A    between atoms: O1_7  and  C7_8
REMARK    4  A    between atoms: C7_8  and  C8_10
REMARK    5  A    between atoms: C8_10  and  C10_12
REMARK    6  A    between atoms: C10_12  and  O3_13
REMARK    7  A    between atoms: C10_12  and  C11_15
REMARK    8  A    between atoms: C11_15  and  O4_16
REMARK    9  A    between atoms: C11_15  and  C12_18
REMARK   10  A    between atoms: C12_18  and  O5_19
REMARK   11  A    between atoms: C16_24  and  O6_25
REMARK   12  A    between atoms: O6_25  and  C17_26
ROOT
HETATM    1  C4  UNL     1      77.838  83.956  50.203  1.00  0.00     0.008 C
HETATM    2  C5  UNL     1      78.729  84.075  48.971  1.00  0.00     0.023 C
HETATM    3  C6  UNL     1      77.286  85.338  50.445  1.00  0.00     0.149 C
HETATM    4  C13 UNL     1      77.896  86.150  51.494  1.00  0.00     0.031 C
HETATM    5  C14 UNL     1      79.149  85.518  52.135  1.00  0.00     0.000 C
HETATM    6  C15 UNL     1      79.473  86.544  53.148  1.00  0.00     0.039 C
HETATM    7  C16 UNL     1      79.448  87.797  52.256  1.00  0.00     0.142 C
HETATM    8  C18 UNL     1      78.349  87.519  51.220  1.00  0.00    -0.014 C
HETATM    9  C19 UNL     1      78.781  87.839  49.841  1.00  0.00     0.018 C
HETATM   10  C20 UNL     1      77.218  88.491  51.578  1.00  0.00     0.018 C
HETATM   11  C21 UNL     1      78.674  84.210  52.555  1.00  0.00    -0.001 C
HETATM   12  C22 UNL     1      79.451  83.374  53.462  1.00  0.00     0.006 C
HETATM   13  C23 UNL     1      78.967  81.976  53.150  1.00  0.00     0.001 C
HETATM   14  C24 UNL     1      78.037  82.099  51.929  1.00  0.00     0.011 C
HETATM   15  C25 UNL     1      78.627  83.358  51.297  1.00  0.00    -0.027 C
HETATM   16  C26 UNL     1      80.017  82.934  50.835  1.00  0.00     0.016 C
ENDROOT
BRANCH   3  17
HETATM   17  O1  UNL     1      75.888  85.151  50.722  1.00  0.00    -0.314 OA
BRANCH  17  18
HETATM   18  C7  UNL     1      74.937  86.122  50.529  1.00  0.00     0.265 C
HETATM   19  O2  UNL     1      74.577  86.797  51.518  1.00  0.00    -0.265 OA
BRANCH  18  20
HETATM   20  C8  UNL     1      74.318  86.401  49.193  1.00  0.00     0.113 C
HETATM   21  C9  UNL     1      74.592  87.820  48.843  1.00  0.00     0.023 C
BRANCH  20  22
HETATM   22  C10 UNL     1      72.870  86.017  49.294  1.00  0.00     0.162 C
BRANCH  22  23
HETATM   23  O3  UNL     1      72.846  85.045  50.343  1.00  0.00    -0.392 OA
ATOM     24  H3  UNL     1      73.312  85.467  51.055  1.00  0.00     0.210 HD
ENDBRANCH  22  23
BRANCH  22  25
HETATM   25  C11 UNL     1      72.390  85.257  48.069  1.00  0.00     0.171 C
BRANCH  25  26
HETATM   26  O4  UNL     1      71.223  84.561  48.310  1.00  0.00    -0.391 OA
ATOM     27  H4  UNL     1      70.487  85.138  48.477  1.00  0.00     0.210 HD
ENDBRANCH  25  26
BRANCH  25  28
HETATM   28  C12 UNL     1      73.486  84.472  47.427  1.00  0.00     0.198 C
BRANCH  28  29
HETATM   29  O5  UNL     1      73.695  85.024  46.150  1.00  0.00    -0.398 OA
ATOM     30  H5  UNL     1      74.634  85.052  46.009  1.00  0.00     0.209 HD
ENDBRANCH  28  29
ENDBRANCH  25  28
ENDBRANCH  22  25
ENDBRANCH  20  22
ENDBRANCH  18  20
ENDBRANCH  17  18
ENDBRANCH   3  17
BRANCH   1  31
HETATM   31  C3  UNL     1      76.743  83.009  49.847  1.00  0.00    -0.019 C
HETATM   32  C2  UNL     1      76.589  82.417  48.692  1.00  0.00    -0.034 C
HETATM   33  C1  UNL     1      75.472  81.480  48.399  1.00  0.00     0.036 C
ENDBRANCH   1  31
BRANCH   7  34
HETATM   34  O6  UNL     1      79.225  88.961  52.979  1.00  0.00    -0.300 OA
BRANCH  34  35
HETATM   35  C17 UNL     1      80.284  89.465  53.743  1.00  0.00     0.373 C
HETATM   36  N1  UNL     1      80.194  89.731  55.122  1.00  0.00    -0.032 NA
HETATM   37  O7  UNL     1      81.404  89.704  53.178  1.00  0.00    -0.242 OA
ENDBRANCH  34  35
ENDBRANCH   7  34
TORSDOF 12
ENDMDL