MODEL 3
REMARK VINA RESULT: -9.769210899      1.982      5.225
REMARK  11 active torsions:
REMARK  status: ('A' for Active; 'I' for Inactive)
REMARK    1  A    between atoms: C2_2  and  C3_3
REMARK    2  A    between atoms: C2_2  and  C24_28
REMARK    3  A    between atoms: C4_4  and  C5_5
REMARK    4  A    between atoms: C7_7  and  O1_8
REMARK    5  A    between atoms: O1_8  and  C8_9
REMARK    6  A    between atoms: C8_9  and  C9_11
REMARK    7  A    between atoms: C20_22  and  O3_23
REMARK    8  A    between atoms: C24_28  and  O4_29
REMARK    9  A    between atoms: C24_28  and  C25_31
REMARK   10  A    between atoms: C26_32  and  O5_33
REMARK   11  A    between atoms: C26_32  and  C27_35
ROOT
HETATM    1  C5  UNL     1      73.751  87.126  49.133  1.00  0.00     0.015 C
HETATM    2  C6  UNL     1      73.180  86.355  50.312  1.00  0.00     0.042 C
HETATM    3  C7  UNL     1      73.568  84.893  50.062  1.00  0.00     0.137 C
HETATM    4  C14 UNL     1      74.575  84.953  48.996  1.00  0.00     0.025 C
HETATM    5  C15 UNL     1      75.066  86.396  48.867  1.00  0.00     0.000 C
HETATM    6  C16 UNL     1      76.099  86.751  49.887  1.00  0.00     0.006 C
HETATM    7  C17 UNL     1      77.283  85.821  49.756  1.00  0.00     0.012 C
HETATM    8  C18 UNL     1      76.808  84.434  50.052  1.00  0.00    -0.014 C
HETATM    9  C19 UNL     1      76.471  84.195  51.470  1.00  0.00     0.018 C
HETATM   10  C20 UNL     1      77.829  83.371  49.651  1.00  0.00     0.126 C
HETATM   11  C21 UNL     1      76.952  82.139  49.601  1.00  0.00     0.033 C
HETATM   12  C22 UNL     1      75.531  82.636  49.310  1.00  0.00     0.008 C
HETATM   13  C23 UNL     1      75.745  84.075  49.057  1.00  0.00     0.003 C
ENDROOT
BRANCH   1  14
HETATM   14  C4  UNL     1      73.986  88.534  49.435  1.00  0.00    -0.025 C
HETATM   15  C3  UNL     1      73.578  89.523  48.663  1.00  0.00    -0.023 C
BRANCH  15  16
HETATM   16  C2  UNL     1      72.835  89.422  47.394  1.00  0.00     0.036 C
HETATM   17  C1  UNL     1      71.341  89.607  47.586  1.00  0.00     0.017 C
BRANCH  16  18
HETATM   18  C24 UNL     1      73.277  90.599  46.506  1.00  0.00     0.151 C
BRANCH  18  19
HETATM   19  O4  UNL     1      72.142  91.383  46.323  1.00  0.00    -0.391 OA
ATOM     20  H4  UNL     1      72.246  92.129  46.903  1.00  0.00     0.210 HD
ENDBRANCH  18  19
BRANCH  18  21
HETATM   21  C25 UNL     1      73.875  90.115  45.262  1.00  0.00     0.049 C
HETATM   22  C26 UNL     1      74.505  90.860  44.398  1.00  0.00     0.141 C
BRANCH  22  23
HETATM   23  O5  UNL     1      75.028  90.235  43.241  1.00  0.00    -0.355 OA
ATOM     24  H5  UNL     1      75.918  89.906  43.277  1.00  0.00     0.218 HD
ENDBRANCH  22  23
BRANCH  22  25
HETATM   25  C27 UNL     1      74.714  92.281  44.524  1.00  0.00     0.233 C
HETATM   26  O6  UNL     1      73.846  93.082  44.941  1.00  0.00    -0.642 OA
HETATM   27  O7  UNL     1      75.960  92.801  44.158  1.00  0.00    -0.642 OA
ENDBRANCH  22  25
ENDBRANCH  18  21
ENDBRANCH  16  18
ENDBRANCH  15  16
ENDBRANCH   1  14
BRANCH   3  28
HETATM   28  O1  UNL     1      72.411  84.203  49.600  1.00  0.00    -0.315 OA
BRANCH  28  29
HETATM   29  C8  UNL     1      72.163  83.885  48.291  1.00  0.00     0.263 C
HETATM   30  O2  UNL     1      72.000  84.800  47.462  1.00  0.00    -0.265 OA
BRANCH  29  31
HETATM   31  C9  UNL     1      72.101  82.441  47.924  1.00  0.00     0.085 C
HETATM   32  C10 UNL     1      70.821  82.087  47.236  1.00  0.00     0.014 C
HETATM   33  C11 UNL     1      70.653  80.628  47.586  1.00  0.00     0.001 C
HETATM   34  C12 UNL     1      71.026  80.587  49.046  1.00  0.00     0.001 C
HETATM   35  C13 UNL     1      72.128  81.590  49.175  1.00  0.00     0.014 C
ENDBRANCH  29  31
ENDBRANCH  28  29
ENDBRANCH   3  28
BRANCH  10  36
HETATM   36  O3  UNL     1      78.305  83.718  48.392  1.00  0.00    -0.395 OA
ATOM     37  H3  UNL     1      77.549  83.929  47.858  1.00  0.00     0.210 HD
ENDBRANCH  10  36
TORSDOF 11
ENDMDL