MODEL 4
REMARK VINA RESULT: -8.009220511      5.911     10.790
REMARK  9 active torsions:
REMARK  status: ('A' for Active; 'I' for Inactive)
REMARK    1  A    between atoms: C2_2  and  C3_3
REMARK    2  A    between atoms: C6_6  and  O1_7
REMARK    3  A    between atoms: C7_9  and  O2_10
REMARK    4  A    between atoms: C8_12  and  N1_13
REMARK    5  A    between atoms: C9_15  and  C10_16
REMARK    6  A    between atoms: C10_16  and  C12_18
REMARK    7  A    between atoms: C12_18  and  N2_19
REMARK    8  A    between atoms: N2_19  and  C13_21
REMARK    9  A    between atoms: C18_28  and  C19_29
ROOT
HETATM    1  C12 UNL     1      77.546  83.188  48.604  1.00  0.00     0.123 C
ENDROOT
BRANCH   1   2
HETATM    2  C10 UNL     1      76.083  83.460  49.059  1.00  0.00     0.037 C
HETATM    3  C11 UNL     1      75.767  82.936  50.397  1.00  0.00     0.017 C
BRANCH   2   4
HETATM    4  C9  UNL     1      75.240  83.127  47.909  1.00  0.00     0.066 C
HETATM    5  N1  UNL     1      74.509  83.999  47.168  1.00  0.00    -0.373 N
ATOM      6  H1  UNL     1      74.781  84.048  46.186  1.00  0.00     0.164 HD
BRANCH   5   7
HETATM    7  C8  UNL     1      73.457  84.836  47.514  1.00  0.00     0.018 C
HETATM    8  C7  UNL     1      72.775  84.578  48.825  1.00  0.00     0.192 C
HETATM    9  C6  UNL     1      73.344  85.413  49.964  1.00  0.00     0.153 C
HETATM   10  C5  UNL     1      74.122  86.608  49.549  1.00  0.00     0.048 C
HETATM   11  C3  UNL     1      73.608  87.241  48.300  1.00  0.00    -0.020 C
HETATM   12  C4  UNL     1      74.552  88.407  47.963  1.00  0.00     0.020 C
HETATM   13  C28 UNL     1      73.640  86.286  47.147  1.00  0.00     0.068 C
BRANCH   8  14
HETATM   14  O2  UNL     1      71.398  84.702  48.734  1.00  0.00    -0.387 OA
ATOM     15  H2  UNL     1      71.090  84.566  47.846  1.00  0.00     0.210 HD
ENDBRANCH   8  14
BRANCH   9  16
HETATM   16  O1  UNL     1      72.278  85.777  50.783  1.00  0.00    -0.393 OA
ATOM     17  H1  UNL     1      71.621  85.091  50.806  1.00  0.00     0.210 HD
ENDBRANCH   9  16
BRANCH  11  18
HETATM   18  C2  UNL     1      72.259  87.843  48.467  1.00  0.00    -0.027 C
HETATM   19  C1  UNL     1      72.034  89.127  48.276  1.00  0.00     0.007 C
ENDBRANCH  11  18
ENDBRANCH   5   7
ENDBRANCH   2   4
ENDBRANCH   1   2
BRANCH   1  20
HETATM   20  N2  UNL     1      78.296  84.366  48.626  1.00  0.00    -0.414 N
ATOM     21  H2  UNL     1      78.921  84.594  47.852  1.00  0.00     0.153 HD
BRANCH  20  22
HETATM   22  C13 UNL     1      78.179  85.251  49.746  1.00  0.00     0.103 C
HETATM   23  C14 UNL     1      78.779  86.573  49.175  1.00  0.00     0.053 C
HETATM   24  C15 UNL     1      78.941  87.693  50.264  1.00  0.00     0.106 C
HETATM   25  C16 UNL     1      77.465  88.052  50.456  1.00  0.00     0.043 C
HETATM   26  N4  UNL     1      79.246  87.180  51.487  1.00  0.00    -0.309 N
HETATM   27  C17 UNL     1      77.076  86.899  51.368  1.00  0.00     0.117 C
HETATM   28  N3  UNL     1      78.193  86.243  51.586  1.00  0.00    -0.217 NA
HETATM   29  C26 UNL     1      78.807  85.099  50.988  1.00  0.00     0.052 C
HETATM   30  C24 UNL     1      78.771  84.326  52.218  1.00  0.00     0.008 C
HETATM   31  C27 UNL     1      80.242  85.030  50.628  1.00  0.00     0.037 C
HETATM   32  C23 UNL     1      79.794  84.776  53.219  1.00  0.00     0.012 C
HETATM   33  C25 UNL     1      78.968  82.830  52.045  1.00  0.00     0.012 C
HETATM   34  C22 UNL     1      80.444  86.038  53.404  1.00  0.00     0.059 C
HETATM   35  C18 UNL     1      80.139  87.205  52.515  1.00  0.00     0.025 C
BRANCH  35  36
HETATM   36  C19 UNL     1      80.730  88.332  52.655  1.00  0.00    -0.064 C
HETATM   37  C20 UNL     1      79.990  89.445  53.394  1.00  0.00     0.045 C
HETATM   38  C21 UNL     1      82.056  88.694  52.193  1.00  0.00     0.045 C
ENDBRANCH  35  36
ENDBRANCH  20  22
ENDBRANCH   1  20
TORSDOF 9
ENDMDL