MODEL 4
REMARK VINA RESULT: -6.516760410      1.215      1.345
REMARK  10 active torsions:
REMARK  status: ('A' for Active; 'I' for Inactive)
REMARK    1  A    between atoms: C2_2  and  C3_3
REMARK    2  A    between atoms: C3_3  and  O1_5
REMARK    3  A    between atoms: C3_3  and  C5_7
REMARK    4  A    between atoms: C5_7  and  C6_8
REMARK    5  A    between atoms: C6_8  and  O2_9
REMARK    6  A    between atoms: C6_8  and  C7_11
REMARK    7  A    between atoms: C17_22  and  C19_24
REMARK    8  A    between atoms: C21_27  and  O5_28
REMARK    9  A    between atoms: C25_33  and  C26_34
REMARK   10  A    between atoms: C28_36  and  O6_37
ROOT
HETATM    1  C7  UNL     1      76.046  86.005  50.195  1.00  0.00     0.081 C
HETATM    2  C8  UNL     1      77.375  86.467  49.712  1.00  0.00    -0.010 C
HETATM    3  C9  UNL     1      77.744  87.725  49.654  1.00  0.00     0.023 C
HETATM    4  C10 UNL     1      78.126  85.272  49.346  1.00  0.00     0.169 C
HETATM    5  O3  UNL     1      79.144  85.423  48.625  1.00  0.00    -0.291 OA
HETATM    6  C11 UNL     1      77.498  84.040  49.936  1.00  0.00     0.061 C
HETATM    7  C12 UNL     1      77.746  82.935  48.950  1.00  0.00     0.003 C
HETATM    8  C13 UNL     1      77.148  81.602  49.227  1.00  0.00     0.011 C
HETATM    9  C14 UNL     1      79.214  82.662  48.673  1.00  0.00     0.006 C
HETATM   10  C15 UNL     1      80.062  82.700  49.874  1.00  0.00     0.007 C
HETATM   11  C16 UNL     1      79.321  82.806  51.183  1.00  0.00     0.010 C
HETATM   12  C17 UNL     1      80.323  82.720  52.244  1.00  0.00     0.016 C
HETATM   13  C18 UNL     1      80.136  81.434  53.084  1.00  0.00     0.023 C
HETATM   14  C20 UNL     1      80.468  83.841  53.215  1.00  0.00     0.048 C
HETATM   15  C21 UNL     1      79.416  84.863  53.201  1.00  0.00     0.120 C
HETATM   16  C22 UNL     1      78.806  85.136  51.815  1.00  0.00     0.042 C
HETATM   17  C23 UNL     1      78.243  83.845  51.252  1.00  0.00    -0.018 C
HETATM   18  C24 UNL     1      77.329  83.394  52.397  1.00  0.00     0.017 C
HETATM   19  C25 UNL     1      76.093  84.531  50.004  1.00  0.00    -0.040 C
ENDROOT
BRANCH  19  20
HETATM   20  C26 UNL     1      74.983  83.923  49.264  1.00  0.00    -0.019 C
HETATM   21  C27 UNL     1      74.036  83.322  50.054  1.00  0.00     0.025 C
HETATM   22  C28 UNL     1      74.538  83.776  47.909  1.00  0.00     0.142 C
BRANCH  22  23
HETATM   23  O6  UNL     1      74.267  84.779  47.039  1.00  0.00    -0.372 OA
ATOM     24  H6  UNL     1      74.869  85.157  46.408  1.00  0.00     0.216 HD
ENDBRANCH  22  23
ENDBRANCH  19  20
BRANCH   1  25
HETATM   25  C6  UNL     1      75.098  86.939  49.613  1.00  0.00     0.134 C
BRANCH  25  26
HETATM   26  C5  UNL     1      73.696  87.006  50.155  1.00  0.00     0.074 C
BRANCH  26  27
HETATM   27  C3  UNL     1      72.742  87.690  49.168  1.00  0.00     0.073 C
HETATM   28  C4  UNL     1      71.458  88.095  49.807  1.00  0.00     0.050 C
BRANCH  27  29
HETATM   29  C2  UNL     1      73.473  88.898  48.660  1.00  0.00    -0.000 C
HETATM   30  C1  UNL     1      72.861  89.885  48.051  1.00  0.00     0.010 C
ENDBRANCH  27  29
BRANCH  27  31
HETATM   31  O1  UNL     1      72.548  86.814  48.127  1.00  0.00    -0.386 OA
ATOM     32  H1  UNL     1      72.509  85.930  48.471  1.00  0.00     0.211 HD
ENDBRANCH  27  31
ENDBRANCH  26  27
ENDBRANCH  25  26
BRANCH  25  33
HETATM   33  O2  UNL     1      75.200  87.216  48.251  1.00  0.00    -0.394 OA
ATOM     34  H2  UNL     1      76.091  87.264  47.927  1.00  0.00     0.210 HD
ENDBRANCH  25  33
ENDBRANCH   1  25
BRANCH  12  35
HETATM   35  C19 UNL     1      81.739  82.552  51.709  1.00  0.00     0.240 C
HETATM   36  O4  UNL     1      82.717  83.039  52.181  1.00  0.00    -0.306 OA
ENDBRANCH  12  35
BRANCH  15  37
HETATM   37  O5  UNL     1      79.927  86.133  53.587  1.00  0.00    -0.396 OA
ATOM     38  H5  UNL     1      79.242  86.683  53.949  1.00  0.00     0.210 HD
ENDBRANCH  15  37
TORSDOF 10
ENDMDL