MODEL 2
REMARK VINA RESULT: -7.678785801      2.541      7.109
REMARK  8 active torsions:
REMARK  status: ('A' for Active; 'I' for Inactive)
REMARK    1  A    between atoms: O1_1  and  C1_3
REMARK    2  A    between atoms: C1_3  and  C2_4
REMARK    3  A    between atoms: C5_7  and  O2_8
REMARK    4  A    between atoms: O2_8  and  C6_9
REMARK    5  A    between atoms: C6_9  and  C7_10
REMARK    6  A    between atoms: C7_10  and  N1_11
REMARK    7  A    between atoms: C12_16  and  O3_17
REMARK    8  A    between atoms: C13_19  and  O4_20
ROOT
HETATM    1  C2  UNL     1       9.523  -8.237  10.227  1.00  0.00     0.041 C
HETATM    2  C3  UNL     1       8.262  -8.095  11.047  1.00  0.00     0.012 C
HETATM    3  C4  UNL     1       7.340  -7.202  10.240  1.00  0.00     0.035 C
HETATM    4  C5  UNL     1       6.866  -8.083   9.076  1.00  0.00     0.152 C
HETATM    5  C12 UNL     1       8.035  -8.264   8.177  1.00  0.00     0.176 C
HETATM    6  C13 UNL     1       9.285  -8.725   8.848  1.00  0.00     0.155 C
ENDROOT
BRANCH   4   7
HETATM    7  O2  UNL     1       5.762  -7.565   8.472  1.00  0.00    -0.382 OA
BRANCH   7   8
HETATM    8  C6  UNL     1       4.996  -6.687   9.171  1.00  0.00     0.198 C
BRANCH   8   9
HETATM    9  C7  UNL     1       3.552  -6.782   8.769  1.00  0.00     0.298 C
BRANCH   9  10
HETATM   10  N1  UNL     1       3.103  -5.602   8.029  1.00  0.00     0.090 N
HETATM   11  C8  UNL     1       1.681  -5.505   7.940  1.00  0.00     0.272 C
HETATM   12  C9  UNL     1       1.311  -5.558   6.476  1.00  0.00     0.032 C
HETATM   13  C10 UNL     1       2.520  -6.317   5.915  1.00  0.00     0.032 C
HETATM   14  C11 UNL     1       3.645  -5.668   6.687  1.00  0.00     0.272 C
ENDBRANCH   9  10
ENDBRANCH   8   9
ENDBRANCH   7   8
ENDBRANCH   4   7
BRANCH   5  15
HETATM   15  O3  UNL     1       8.291  -7.142   7.386  1.00  0.00    -0.390 OA
ATOM     16  H3  UNL     1       8.612  -7.365   6.521  1.00  0.00     0.210 HD
ENDBRANCH   5  15
BRANCH   6  17
HETATM   17  O4  UNL     1       9.426 -10.132   8.747  1.00  0.00    -0.392 OA
ATOM     18  H4  UNL     1       8.764 -10.595   9.247  1.00  0.00     0.210 HD
ENDBRANCH   6  17
BRANCH   1  19
HETATM   19  C1  UNL     1      10.422  -9.220  10.948  1.00  0.00     0.171 C
BRANCH  19  20
HETATM   20  O1  UNL     1       9.625 -10.202  11.568  1.00  0.00    -0.400 OA
ATOM     21  H1  UNL     1      10.159 -10.967  11.745  1.00  0.00     0.209 HD
ENDBRANCH  19  20
ENDBRANCH   1  19
TORSDOF 8
ENDMDL