MODEL 3
REMARK VINA RESULT: -7.271938599      1.897      7.212
REMARK  7 active torsions:
REMARK  status: ('A' for Active; 'I' for Inactive)
REMARK    1  A    between atoms: N2_5  and  C4_6
REMARK    2  A    between atoms: C4_6  and  C5_7
REMARK    3  A    between atoms: C5_7  and  C6_8
REMARK    4  A    between atoms: C6_8  and  C7_9
REMARK    5  A    between atoms: C7_9  and  C8_10
REMARK    6  A    between atoms: C8_10  and  O1_11
REMARK    7  A    between atoms: C12_19  and  O2_20
ROOT
HETATM    1  C5  UNL     1       5.793  -6.954   8.207  1.00  0.00     0.031 C
ENDROOT
BRANCH   1   2
HETATM    2  C4  UNL     1       4.954  -6.808   6.977  1.00  0.00     0.276 C
BRANCH   2   3
HETATM    3  N2  UNL     1       4.086  -5.651   6.980  1.00  0.00     0.120 N
HETATM    4  C3  UNL     1       3.597  -5.490   5.622  1.00  0.00     0.306 C
HETATM    5  C2  UNL     1       2.609  -4.343   5.660  1.00  0.00     0.302 C
HETATM    6  N1  UNL     1       1.392  -4.872   6.234  1.00  0.00     0.090 N
HETATM    7  C1  UNL     1       0.641  -5.442   5.105  1.00  0.00     0.310 C
HETATM    8  C13 UNL     1       1.637  -5.894   7.219  1.00  0.00     0.335 C
HETATM    9  C12 UNL     1       2.977  -5.781   7.884  1.00  0.00     0.385 C
BRANCH   9  10
HETATM   10  O2  UNL     1       2.960  -4.706   8.771  1.00  0.00    -0.366 OA
ATOM     11  H2  UNL     1       2.587  -4.978   9.601  1.00  0.00     0.212 HD
ENDBRANCH   9  10
ENDBRANCH   2   3
ENDBRANCH   1   2
BRANCH   1  12
HETATM   12  C6  UNL     1       7.191  -7.357   7.813  1.00  0.00     0.015 C
BRANCH  12  13
HETATM   13  C7  UNL     1       8.042  -7.859   8.924  1.00  0.00     0.006 C
HETATM   14  C9  UNL     1       7.565  -9.179   9.492  1.00  0.00     0.041 C
HETATM   15  C10 UNL     1       8.172  -9.141  10.881  1.00  0.00     0.233 C
HETATM   16  N3  UNL     1       7.819  -7.773  11.289  1.00  0.00    -0.074 N
HETATM   17  C11 UNL     1       8.173  -6.971  10.108  1.00  0.00     0.243 C
ATOM     18  H32 UNL     1       6.856  -7.659  11.607  1.00  0.00     0.277 HD
ATOM     19  H31 UNL     1       8.252  -7.462  12.159  1.00  0.00     0.277 HD
BRANCH  13  20
HETATM   20  C8  UNL     1       9.425  -8.141   8.327  1.00  0.00     0.175 C
BRANCH  20  21
HETATM   21  O1  UNL     1       9.562  -7.572   7.068  1.00  0.00    -0.400 OA
ATOM     22  H1  UNL     1       9.339  -8.189   6.381  1.00  0.00     0.209 HD
ENDBRANCH  20  21
ENDBRANCH  13  20
ENDBRANCH  12  13
ENDBRANCH   1  12
TORSDOF 7
ENDMDL