MODEL 5
REMARK VINA RESULT: -6.370658962      0.850      1.153
REMARK  8 active torsions:
REMARK  status: ('A' for Active; 'I' for Inactive)
REMARK    1  A    between atoms: C2_2  and  N1_3
REMARK    2  A    between atoms: C2_2  and  C3_10
REMARK    3  A    between atoms: N1_3  and  N2_5
REMARK    4  A    between atoms: C5_12  and  N4_13
REMARK    5  A    between atoms: N4_13  and  N5_15
REMARK    6  A    between atoms: N5_15  and  N6_16
REMARK    7  A    between atoms: C6_20  and  C7_21
REMARK    8  A    between atoms: C7_21  and  O2_24
ROOT
HETATM    1  C3  UNL     1       3.314  -6.602   6.909  1.00  0.00     0.152 C
HETATM    2  C4  UNL     1       3.468  -5.119   6.646  1.00  0.00     0.090 C
HETATM    3  C5  UNL     1       2.063  -4.682   6.204  1.00  0.00     0.255 C
HETATM    4  O1  UNL     1       1.581  -5.495   5.202  1.00  0.00    -0.332 OA
HETATM    5  C6  UNL     1       2.423  -6.479   4.774  1.00  0.00     0.296 C
HETATM    6  O3  UNL     1       3.057  -7.214   5.714  1.00  0.00    -0.351 OA
ENDROOT
BRANCH   1   7
HETATM    7  C2  UNL     1       4.453  -7.177   7.683  1.00  0.00     0.126 C
HETATM    8  C1  UNL     1       4.351  -6.618   9.109  1.00  0.00     0.036 C
BRANCH   7   9
HETATM    9  N1  UNL     1       5.738  -6.908   7.129  1.00  0.00    -0.316 N
ATOM     10  H1  UNL     1       5.786  -6.771   6.120  1.00  0.00     0.182 HD
BRANCH   9  11
HETATM   11  N2  UNL     1       6.920  -6.815   7.825  1.00  0.00    -0.253 N
HETATM   12  N3  UNL     1       7.957  -7.359   7.368  1.00  0.00    -0.331 N
ATOM     13  H32 UNL     1       7.905  -7.863   6.483  1.00  0.00     0.178 HD
ATOM     14  H31 UNL     1       8.834  -7.290   7.884  1.00  0.00     0.178 HD
ATOM     15  H2  UNL     1       6.954  -6.307   8.708  1.00  0.00     0.207 HD
ENDBRANCH   9  11
ENDBRANCH   7   9
ENDBRANCH   1   7
BRANCH   3  16
HETATM   16  N4  UNL     1       2.003  -3.281   5.914  1.00  0.00    -0.223 N
ATOM     17  H4  UNL     1       1.908  -2.626   6.690  1.00  0.00     0.200 HD
BRANCH  16  18
HETATM   18  N5  UNL     1       2.062  -2.829   4.750  1.00  0.00    -0.246 NA
BRANCH  18  19
HETATM   19  N6  UNL     1       1.993  -2.689   3.517  1.00  0.00    -0.261 N
ATOM     20  H62 UNL     1       1.430  -3.529   3.383  1.00  0.00     0.193 HD
ATOM     21  H61 UNL     1       2.092  -2.346   2.562  1.00  0.00     0.193 HD
ENDBRANCH  18  19
ENDBRANCH  16  18
ENDBRANCH   3  16
BRANCH   5  22
HETATM   22  C7  UNL     1       1.585  -7.419   3.911  1.00  0.00     0.100 C
HETATM   23  C8  UNL     1       1.560  -8.758   4.648  1.00  0.00     0.051 C
HETATM   24  C9  UNL     1       0.182  -6.894   3.855  1.00  0.00     0.051 C
BRANCH  22  25
HETATM   25  O2  UNL     1       2.149  -7.612   2.664  1.00  0.00    -0.386 OA
ATOM     26  H2  UNL     1       1.704  -8.297   2.178  1.00  0.00     0.210 HD
ENDBRANCH  22  25
ENDBRANCH   5  22
TORSDOF 8
ENDMDL