MODEL 2
REMARK VINA RESULT: -7.418608921      0.615      1.014
REMARK  8 active torsions:
REMARK  status: ('A' for Active; 'I' for Inactive)
REMARK    1  A    between atoms: C2_2  and  N1_4
REMARK    2  A    between atoms: N1_4  and  C5_6
REMARK    3  A    between atoms: C5_6  and  C6_7
REMARK    4  A    between atoms: C6_7  and  C7_8
REMARK    5  A    between atoms: C7_8  and  N2_9
REMARK    6  A    between atoms: C10_12  and  O1_13
REMARK    7  A    between atoms: C11_15  and  O2_16
REMARK    8  A    between atoms: C12_18  and  O3_19
ROOT
HETATM    1  N2  UNL     1       8.105  -8.372  10.072  1.00  0.00    -0.371 N
HETATM    2  C8  UNL     1       8.840  -9.150  10.962  1.00  0.00     0.065 C
HETATM    3  C9  UNL     1      10.259  -8.654  11.124  1.00  0.00     0.079 C
HETATM    4  C10 UNL     1      11.211  -9.284  10.142  1.00  0.00     0.154 C
HETATM    5  C11 UNL     1      11.046  -8.851   8.734  1.00  0.00     0.177 C
HETATM    6  C12 UNL     1       9.620  -8.713   8.265  1.00  0.00     0.167 C
HETATM    7  C13 UNL     1       8.855  -7.686   9.058  1.00  0.00     0.161 C
ENDROOT
BRANCH   1   8
HETATM    8  C7  UNL     1       6.815  -7.940  10.301  1.00  0.00     0.065 C
BRANCH   8   9
HETATM    9  C6  UNL     1       6.215  -6.778   9.625  1.00  0.00     0.075 C
BRANCH   9  10
HETATM   10  C5  UNL     1       4.769  -6.921   9.341  1.00  0.00     0.277 C
BRANCH  10  11
HETATM   11  N1  UNL     1       4.395  -6.317   8.059  1.00  0.00     0.088 N
HETATM   12  C4  UNL     1       5.375  -6.709   7.083  1.00  0.00     0.310 C
BRANCH  11  13
HETATM   13  C2  UNL     1       3.105  -6.762   7.677  1.00  0.00     0.214 C
HETATM   14  C1  UNL     1       3.026  -7.275   6.261  1.00  0.00     0.042 C
HETATM   15  C3  UNL     1       2.035  -5.700   7.821  1.00  0.00     0.042 C
ENDBRANCH  11  13
ENDBRANCH  10  11
ENDBRANCH   9  10
ENDBRANCH   8   9
ENDBRANCH   1   8
BRANCH   6  16
HETATM   16  O3  UNL     1       8.962  -9.913   8.105  1.00  0.00    -0.391 OA
ATOM     17  H3  UNL     1       8.670 -10.079   7.217  1.00  0.00     0.210 HD
ENDBRANCH   6  16
BRANCH   4  18
HETATM   18  O1  UNL     1      11.199 -10.670  10.323  1.00  0.00    -0.393 OA
ATOM     19  H1  UNL     1      10.996 -11.088   9.495  1.00  0.00     0.210 HD
ENDBRANCH   4  18
BRANCH   5  20
HETATM   20  O2  UNL     1      11.679  -9.755   7.886  1.00  0.00    -0.390 OA
ATOM     21  H2  UNL     1      11.709  -9.403   7.004  1.00  0.00     0.210 HD
ENDBRANCH   5  20
TORSDOF 8
ENDMDL