MODEL 3
REMARK VINA RESULT: -5.779128132      3.037      4.991
REMARK  8 active torsions:
REMARK  status: ('A' for Active; 'I' for Inactive)
REMARK    1  A    between atoms: C2_2  and  N1_3
REMARK    2  A    between atoms: N1_3  and  C3_4
REMARK    3  A    between atoms: N1_3  and  C5_10
REMARK    4  A    between atoms: C3_4  and  C4_5
REMARK    5  A    between atoms: C4_5  and  N2_6
REMARK    6  A    between atoms: C5_10  and  C6_11
REMARK    7  A    between atoms: C9_14  and  O1_15
REMARK    8  A    between atoms: C10_17  and  O2_18
ROOT
HETATM    1  C6  UNL     1       2.281  -7.362   4.891  1.00  0.00     0.161 C
HETATM    2  C7  UNL     1       1.161  -6.365   5.103  1.00  0.00     0.040 C
HETATM    3  C8  UNL     1       1.602  -5.001   4.710  1.00  0.00     0.037 C
HETATM    4  C9  UNL     1       2.728  -4.454   5.509  1.00  0.00     0.150 C
HETATM    5  C10 UNL     1       2.925  -5.073   6.861  1.00  0.00     0.180 C
HETATM    6  C11 UNL     1       3.408  -6.513   6.802  1.00  0.00     0.083 C
HETATM    7  C12 UNL     1       4.919  -6.406   7.150  1.00  0.00     0.048 C
HETATM    8  C13 UNL     1       2.879  -7.299   7.982  1.00  0.00     0.048 C
HETATM    9  O3  UNL     1       3.400  -7.110   5.607  1.00  0.00    -0.368 OA
ENDROOT
BRANCH   1  10
HETATM   10  C5  UNL     1       1.801  -8.773   5.154  1.00  0.00     0.095 C
BRANCH  10  11
HETATM   11  N1  UNL     1       1.739  -9.634   4.051  1.00  0.00    -0.370 N
BRANCH  11  12
HETATM   12  C2  UNL     1       2.033 -10.997   4.389  1.00  0.00     0.122 C
HETATM   13  C1  UNL     1       0.877 -11.655   5.130  1.00  0.00     0.027 C
ENDBRANCH  11  12
BRANCH  11  14
HETATM   14  C3  UNL     1       2.037  -9.219   2.762  1.00  0.00     0.090 C
BRANCH  14  15
HETATM   15  C4  UNL     1       2.992 -10.082   1.973  1.00  0.00     0.274 C
BRANCH  15  16
HETATM   16  N2  UNL     1       3.726  -9.232   1.043  1.00  0.00    -0.075 N
ATOM     17  H23 UNL     1       3.997  -8.340   1.459  1.00  0.00     0.274 HD
ATOM     18  H22 UNL     1       4.662  -9.585   0.845  1.00  0.00     0.274 HD
ATOM     19  H21 UNL     1       3.165  -9.115   0.199  1.00  0.00     0.274 HD
ENDBRANCH  15  16
ENDBRANCH  14  15
ENDBRANCH  11  14
ENDBRANCH  10  11
ENDBRANCH   1  10
BRANCH   4  20
HETATM   20  O1  UNL     1       2.476  -3.091   5.709  1.00  0.00    -0.393 OA
ATOM     21  H1  UNL     1       2.831  -2.859   6.560  1.00  0.00     0.210 HD
ENDBRANCH   4  20
BRANCH   5  22
HETATM   22  O2  UNL     1       1.797  -4.931   7.693  1.00  0.00    -0.390 OA
ATOM     23  H2  UNL     1       2.014  -4.575   8.547  1.00  0.00     0.210 HD
ENDBRANCH   5  22
TORSDOF 8
ENDMDL