MODEL 4
REMARK VINA RESULT: -6.060940526      0.906      1.213
REMARK  8 active torsions:
REMARK  status: ('A' for Active; 'I' for Inactive)
REMARK    1  A    between atoms: C2_2  and  C3_3
REMARK    2  A    between atoms: C3_3  and  O1_4
REMARK    3  A    between atoms: C3_3  and  C4_6
REMARK    4  A    between atoms: C4_6  and  N1_7
REMARK    5  A    between atoms: C6_9  and  O2_10
REMARK    6  A    between atoms: C7_12  and  O3_13
REMARK    7  A    between atoms: C8_15  and  C9_16
REMARK    8  A    between atoms: C9_16  and  N2_17
ROOT
HETATM    1  N1  UNL     1       3.294  -6.645   6.342  1.00  0.00     0.098 N
HETATM    2  C5  UNL     1       2.704  -7.748   5.725  1.00  0.00     0.307 C
HETATM    3  C6  UNL     1       1.879  -7.524   4.512  1.00  0.00     0.175 C
HETATM    4  C7  UNL     1       1.333  -6.180   4.267  1.00  0.00     0.156 C
HETATM    5  C8  UNL     1       2.112  -5.055   4.891  1.00  0.00     0.078 C
HETATM    6  C12 UNL     1       2.669  -5.374   6.207  1.00  0.00     0.227 C
HETATM    7  C13 UNL     1       1.607  -5.162   7.292  1.00  0.00     0.043 C
ENDROOT
BRANCH   1   8
HETATM    8  C4  UNL     1       3.689  -6.793   7.696  1.00  0.00     0.304 C
BRANCH   8   9
HETATM    9  C3  UNL     1       5.073  -7.194   8.036  1.00  0.00     0.146 C
BRANCH   9  10
HETATM   10  C2  UNL     1       5.522  -6.609   9.382  1.00  0.00     0.029 C
HETATM   11  C1  UNL     1       6.543  -7.590   9.988  1.00  0.00     0.007 C
ENDBRANCH   9  10
BRANCH   9  12
HETATM   12  O1  UNL     1       5.890  -6.420   7.112  1.00  0.00    -0.394 OA
ATOM     13  H1  UNL     1       5.520  -6.687   6.279  1.00  0.00     0.210 HD
ENDBRANCH   9  12
ENDBRANCH   8   9
ENDBRANCH   1   8
BRANCH   3  14
HETATM   14  O2  UNL     1       0.789  -8.431   4.582  1.00  0.00    -0.391 OA
ATOM     15  H2  UNL     1       1.119  -9.228   4.980  1.00  0.00     0.210 HD
ENDBRANCH   3  14
BRANCH   5  16
HETATM   16  C9  UNL     1       2.909  -4.260   3.924  1.00  0.00     0.280 C
BRANCH  16  17
HETATM   17  N2  UNL     1       2.393  -3.056   3.398  1.00  0.00     0.080 N
HETATM   18  C10 UNL     1       1.845  -3.419   2.050  1.00  0.00     0.309 C
HETATM   19  C11 UNL     1       1.230  -2.534   4.077  1.00  0.00     0.309 C
ENDBRANCH  16  17
ENDBRANCH   5  16
BRANCH   4  20
HETATM   20  O3  UNL     1       0.024  -6.130   4.730  1.00  0.00    -0.392 OA
ATOM     21  H3  UNL     1      -0.270  -5.227   4.734  1.00  0.00     0.210 HD
ENDBRANCH   4  20
TORSDOF 8
ENDMDL