MODEL 2
REMARK VINA RESULT: -7.314943640      2.559      6.968
REMARK  8 active torsions:
REMARK  status: ('A' for Active; 'I' for Inactive)
REMARK    1  A    between atoms: S1_2  and  C2_4
REMARK    2  A    between atoms: C2_4  and  C3_5
REMARK    3  A    between atoms: C4_6  and  C5_7
REMARK    4  A    between atoms: C5_7  and  C6_8
REMARK    5  A    between atoms: C7_10  and  O3_11
REMARK    6  A    between atoms: C8_13  and  C9_14
REMARK    7  A    between atoms: C9_14  and  O4_15
REMARK    8  A    between atoms: C10_17  and  O5_18
ROOT
HETATM    1  C6  UNL     1       6.388  -7.241   9.607  1.00  0.00     0.157 C
HETATM    2  O2  UNL     1       6.779  -8.275  10.455  1.00  0.00    -0.353 OA
HETATM    3  C7  UNL     1       8.121  -8.480  10.286  1.00  0.00     0.266 C
HETATM    4  C8  UNL     1       8.572  -7.771   9.053  1.00  0.00     0.095 C
HETATM    5  C10 UNL     1       7.225  -7.493   8.376  1.00  0.00     0.158 C
ENDROOT
BRANCH   1   6
HETATM    6  C5  UNL     1       4.921  -7.439   9.314  1.00  0.00     0.061 C
BRANCH   6   7
HETATM    7  C4  UNL     1       4.189  -6.185   9.123  1.00  0.00    -0.027 C
HETATM    8  C3  UNL     1       3.794  -5.602   8.039  1.00  0.00    -0.018 C
BRANCH   8   9
HETATM    9  C2  UNL     1       4.008  -6.107   6.685  1.00  0.00     0.135 C
BRANCH   9  10
HETATM   10  S1  UNL     1       2.798  -5.471   5.531  1.00  0.00     0.014 S
HETATM   11  C1  UNL     1       1.221  -5.537   6.382  1.00  0.00     0.127 C
HETATM   12  O1  UNL     1       3.174  -3.827   5.325  1.00  0.00    -0.258 OA
ENDBRANCH   9  10
ENDBRANCH   8   9
ENDBRANCH   6   7
ENDBRANCH   1   6
BRANCH   5  13
HETATM   13  O5  UNL     1       7.316  -6.395   7.549  1.00  0.00    -0.392 OA
ATOM     14  H5  UNL     1       8.084  -6.411   6.989  1.00  0.00     0.210 HD
ENDBRANCH   5  13
BRANCH   3  15
HETATM   15  O3  UNL     1       8.768  -8.009  11.442  1.00  0.00    -0.371 OA
ATOM     16  H3  UNL     1       9.094  -7.137  11.250  1.00  0.00     0.212 HD
ENDBRANCH   3  15
BRANCH   4  17
HETATM   17  C9  UNL     1       9.451  -8.613   8.166  1.00  0.00     0.176 C
BRANCH  17  18
HETATM   18  O4  UNL     1       9.750  -8.008   6.972  1.00  0.00    -0.400 OA
ATOM     19  H4  UNL     1       8.982  -7.691   6.511  1.00  0.00     0.209 HD
ENDBRANCH  17  18
ENDBRANCH   4  17
TORSDOF 8
ENDMDL