MODEL 3
REMARK VINA RESULT: -6.476451265      1.340      2.697
REMARK  6 active torsions:
REMARK  status: ('A' for Active; 'I' for Inactive)
REMARK    1  A    between atoms: O1_1  and  C1_3
REMARK    2  A    between atoms: C1_3  and  C2_4
REMARK    3  A    between atoms: C2_4  and  C3_5
REMARK    4  A    between atoms: C3_5  and  C4_6
REMARK    5  A    between atoms: C4_6  and  C5_7
REMARK    6  A    between atoms: C5_7  and  N1_8
ROOT
HETATM    1  N1  UNL     1       2.567  -5.619   6.714  1.00  0.00     0.112 N
HETATM    2  C6  UNL     1       3.094  -5.039   5.483  1.00  0.00     0.294 C
HETATM    3  C7  UNL     1       2.334  -3.748   5.163  1.00  0.00     0.144 C
HETATM    4  N2  UNL     1       1.745  -3.834   3.866  1.00  0.00    -0.419 N
ATOM      5  H2  UNL     1       0.737  -3.787   3.717  1.00  0.00     0.153 HD
HETATM    6  C8  UNL     1       2.670  -3.989   2.799  1.00  0.00     0.115 C
HETATM    7  C9  UNL     1       2.365  -5.240   1.999  1.00  0.00     0.038 C
HETATM    8  C10 UNL     1       0.933  -5.656   2.026  1.00  0.00     0.115 C
HETATM    9  N3  UNL     1       0.615  -6.539   3.098  1.00  0.00    -0.419 N
ATOM     10  H3  UNL     1      -0.064  -6.283   3.815  1.00  0.00     0.153 HD
HETATM   11  C11 UNL     1       1.286  -7.793   3.122  1.00  0.00     0.140 C
HETATM   12  C12 UNL     1       1.857  -8.117   4.500  1.00  0.00     0.189 C
HETATM   13  O2  UNL     1       1.400  -7.225   5.457  1.00  0.00    -0.361 OA
HETATM   14  C13 UNL     1       2.311  -7.054   6.495  1.00  0.00     0.440 C
ENDROOT
BRANCH   1  15
HETATM   15  C5  UNL     1       3.584  -5.528   7.745  1.00  0.00     0.275 C
BRANCH  15  16
HETATM   16  C4  UNL     1       3.541  -6.713   8.679  1.00  0.00     0.030 C
BRANCH  16  17
HETATM   17  C3  UNL     1       4.972  -6.885   9.210  1.00  0.00     0.004 C
BRANCH  17  18
HETATM   18  C2  UNL     1       5.885  -7.007   8.023  1.00  0.00     0.026 C
BRANCH  18  19
HETATM   19  C1  UNL     1       7.282  -7.441   8.479  1.00  0.00     0.164 C
BRANCH  19  20
HETATM   20  O1  UNL     1       8.113  -7.335   7.364  1.00  0.00    -0.401 OA
ATOM     21  H1  UNL     1       8.913  -6.919   7.662  1.00  0.00     0.209 HD
ENDBRANCH  19  20
ENDBRANCH  18  19
ENDBRANCH  17  18
ENDBRANCH  16  17
ENDBRANCH  15  16
ENDBRANCH   1  15
TORSDOF 6
ENDMDL