MODEL 4
REMARK VINA RESULT: -6.171087300      2.534      3.595
REMARK  7 active torsions:
REMARK  status: ('A' for Active; 'I' for Inactive)
REMARK    1  A    between atoms: C2_2  and  C3_3
REMARK    2  A    between atoms: C3_3  and  C4_4
REMARK    3  A    between atoms: C4_4  and  C5_5
REMARK    4  A    between atoms: C4_4  and  N1_7
REMARK    5  A    between atoms: C8_9  and  O1_10
REMARK    6  A    between atoms: C9_12  and  O2_13
REMARK    7  A    between atoms: C11_16  and  O3_17
ROOT
HETATM    1  N1  UNL     1       3.313  -5.985   6.173  1.00  0.00    -0.364 N
HETATM    2  C7  UNL     1       1.970  -6.389   6.113  1.00  0.00     0.097 C
HETATM    3  C8  UNL     1       1.340  -6.443   4.742  1.00  0.00     0.185 C
HETATM    4  C9  UNL     1       0.613  -5.133   4.503  1.00  0.00     0.163 C
HETATM    5  C10 UNL     1       1.582  -4.043   4.856  1.00  0.00     0.106 C
HETATM    6  C11 UNL     1       1.764  -2.933   3.879  1.00  0.00     0.267 C
HETATM    7  O4  UNL     1       3.152  -3.059   4.057  1.00  0.00    -0.350 OA
HETATM    8  C12 UNL     1       2.915  -4.435   4.301  1.00  0.00     0.174 C
HETATM    9  C13 UNL     1       3.839  -5.065   5.289  1.00  0.00     0.096 C
ENDROOT
BRANCH   1  10
HETATM   10  C4  UNL     1       4.167  -6.945   6.802  1.00  0.00     0.088 C
BRANCH  10  11
HETATM   11  C3  UNL     1       3.635  -7.280   8.139  1.00  0.00     0.025 C
BRANCH  11  12
HETATM   12  C2  UNL     1       4.090  -6.485   9.319  1.00  0.00    -0.002 C
HETATM   13  C1  UNL     1       3.401  -5.093   9.182  1.00  0.00     0.005 C
ENDBRANCH  11  12
ENDBRANCH  10  11
BRANCH  10  14
HETATM   14  C5  UNL     1       5.606  -6.718   6.721  1.00  0.00     0.021 C
HETATM   15  C6  UNL     1       6.523  -7.210   7.759  1.00  0.00     0.007 C
ENDBRANCH  10  14
ENDBRANCH   1  10
BRANCH   3  16
HETATM   16  O1  UNL     1       0.348  -7.439   4.710  1.00  0.00    -0.388 OA
ATOM     17  H1  UNL     1      -0.477  -7.063   4.428  1.00  0.00     0.210 HD
ENDBRANCH   3  16
BRANCH   4  18
HETATM   18  O2  UNL     1      -0.581  -5.054   5.177  1.00  0.00    -0.392 OA
ATOM     19  H2  UNL     1      -1.225  -4.521   4.726  1.00  0.00     0.210 HD
ENDBRANCH   4  18
BRANCH   6  20
HETATM   20  O3  UNL     1       1.257  -1.727   4.412  1.00  0.00    -0.371 OA
ATOM     21  H3  UNL     1       1.945  -1.255   4.865  1.00  0.00     0.212 HD
ENDBRANCH   6  20
TORSDOF 7
ENDMDL