MODEL 2
REMARK VINA RESULT: -8.076117188      0.876      1.103
REMARK  7 active torsions:
REMARK  status: ('A' for Active; 'I' for Inactive)
REMARK    1  A    between atoms: C2_2  and  C3_3
REMARK    2  A    between atoms: C4_6  and  N2_7
REMARK    3  A    between atoms: C5_12  and  N4_13
REMARK    4  A    between atoms: N4_13  and  C6_15
REMARK    5  A    between atoms: C6_15  and  C7_16
REMARK    6  A    between atoms: C7_16  and  C8_17
REMARK    7  A    between atoms: C8_17  and  N5_18
ROOT
HETATM    1  C3  UNL     1       8.660  -8.166  10.018  1.00  0.00     0.135 A
HETATM    2  N1  UNL     1       9.470  -8.243   8.923  1.00  0.00    -0.176 N
ATOM      3  H1  UNL     1      10.423  -8.587   9.045  1.00  0.00     0.186 HD
HETATM    4  C4  UNL     1       9.071  -7.887   7.699  1.00  0.00     0.692 A
HETATM    5  N3  UNL     1       7.818  -7.439   7.560  1.00  0.00    -0.023 N
ATOM      6  H3  UNL     1       7.492  -7.161   6.635  1.00  0.00     0.203 HD
HETATM    7  C5  UNL     1       6.966  -7.341   8.617  1.00  0.00     0.694 A
HETATM    8  N6  UNL     1       7.397  -7.706   9.832  1.00  0.00    -0.176 N
ATOM      9  H6  UNL     1       6.765  -7.636  10.630  1.00  0.00     0.186 HD
ENDROOT
BRANCH   7  10
HETATM   10  N4  UNL     1       5.802  -6.910   8.385  1.00  0.00    -0.225 N
ATOM     11  H4  UNL     1       5.545  -6.763   7.409  1.00  0.00     0.177 HD
BRANCH  10  12
HETATM   12  C6  UNL     1       4.825  -6.613   9.361  1.00  0.00     0.140 C
BRANCH  12  13
HETATM   13  C7  UNL     1       3.450  -6.973   8.787  1.00  0.00     0.050 C
BRANCH  13  14
HETATM   14  C8  UNL     1       3.484  -6.810   7.309  1.00  0.00     0.274 C
BRANCH  14  15
HETATM   15  N5  UNL     1       3.049  -5.487   6.940  1.00  0.00     0.092 N
HETATM   16  C9  UNL     1       1.612  -5.382   7.089  1.00  0.00     0.298 C
HETATM   17  C10 UNL     1       0.930  -5.805   5.821  1.00  0.00     0.198 C
HETATM   18  O1  UNL     1       1.204  -4.830   4.887  1.00  0.00    -0.388 OA
HETATM   19  C11 UNL     1       2.520  -4.547   4.691  1.00  0.00     0.198 C
HETATM   20  C12 UNL     1       3.511  -5.097   5.644  1.00  0.00     0.298 C
ENDBRANCH  14  15
ENDBRANCH  13  14
ENDBRANCH  12  13
ENDBRANCH  10  12
ENDBRANCH   7  10
BRANCH   4  21
HETATM   21  N2  UNL     1       9.869  -7.972   6.665  1.00  0.00    -0.234 N
ATOM     22  H22 UNL     1      10.347  -8.846   6.446  1.00  0.00     0.174 HD
ATOM     23  H21 UNL     1      10.038  -7.173   6.053  1.00  0.00     0.174 HD
ENDBRANCH   4  21
BRANCH   1  24
HETATM   24  C2  UNL     1       9.188  -8.574  11.294  1.00  0.00     0.039 C
HETATM   25  C1  UNL     1      10.430  -8.923  11.456  1.00  0.00     0.015 C
ENDBRANCH   1  24
TORSDOF 7
ENDMDL