MODEL 2
REMARK VINA RESULT: -6.404485228      1.877      5.608
REMARK  2 active torsions:
REMARK  status: ('A' for Active; 'I' for Inactive)
REMARK    1  A    between atoms: N2_9  and  C6_10
REMARK    2  A    between atoms: C6_10  and  C7_11
ROOT
HETATM    1  C1  UNL     1       1.920  -5.621   6.008  1.00  0.00     0.235 C
HETATM    2  C2  UNL     1       3.250  -4.974   6.347  1.00  0.00     0.069 C
HETATM    3  C3  UNL     1       4.004  -6.143   6.930  1.00  0.00     0.104 C
HETATM    4  C4  UNL     1       3.184  -7.378   6.624  1.00  0.00     0.272 C
HETATM    5  N1  UNL     1       2.298  -6.942   5.547  1.00  0.00    -0.072 N
ATOM      6  H11 UNL     1       2.700  -6.979   4.610  1.00  0.00     0.277 HD
ATOM      7  H12 UNL     1       1.523  -7.571   5.339  1.00  0.00     0.277 HD
HETATM    8  C5  UNL     1       4.089  -6.073   8.472  1.00  0.00     0.158 C
HETATM    9  N2  UNL     1       5.247  -6.816   8.705  1.00  0.00    -0.389 N
HETATM   10  C10 UNL     1       6.105  -6.603   7.603  1.00  0.00     0.289 C
HETATM   11  O1  UNL     1       5.306  -6.212   6.523  1.00  0.00    -0.358 OA
ENDROOT
BRANCH   9  12
HETATM   12  C6  UNL     1       5.690  -7.250   9.927  1.00  0.00     0.123 C
BRANCH  12  13
HETATM   13  C7  UNL     1       7.114  -7.789   9.774  1.00  0.00     0.003 A
HETATM   14  C8  UNL     1       7.942  -7.818  11.026  1.00  0.00     0.007 A
HETATM   15  C9  UNL     1       7.531  -9.075  10.382  1.00  0.00     0.007 A
ENDBRANCH  12  13
ENDBRANCH   9  12
TORSDOF 2
ENDMDL