MODEL 5
REMARK VINA RESULT: -6.034580556      2.274      5.296
REMARK  2 active torsions:
REMARK  status: ('A' for Active; 'I' for Inactive)
REMARK    1  A    between atoms: C2_2  and  C3_3
REMARK    2  A    between atoms: C3_3  and  N1_4
ROOT
HETATM    1  N1  UNL     1      10.148  -9.429   8.885  1.00  0.00    -0.193 NA
HETATM    2  C4  UNL     1      10.043  -8.933  10.230  1.00  0.00     0.131 C
HETATM    3  C5  UNL     1       8.623  -8.973  10.791  1.00  0.00     0.042 C
HETATM    4  C6  UNL     1       8.129  -7.568  11.176  1.00  0.00     0.066 C
HETATM    5  N2  UNL     1       7.028  -7.085  10.555  1.00  0.00    -0.382 N
ATOM      6  H2  UNL     1       6.249  -6.966  11.202  1.00  0.00     0.164 HD
HETATM    7  C7  UNL     1       6.698  -6.723   9.308  1.00  0.00     0.062 C
HETATM    8  C8  UNL     1       7.344  -7.340   8.084  1.00  0.00     0.078 C
HETATM    9  C9  UNL     1       8.458  -8.108   8.643  1.00  0.00     0.151 C
HETATM   10  C10 UNL     1       7.817  -9.183   9.499  1.00  0.00     0.045 C
HETATM   11  O1  UNL     1       9.412  -8.735   7.951  1.00  0.00    -0.297 OA
ENDROOT
BRANCH   1  12
HETATM   12  C3  UNL     1      11.543  -9.197   8.488  1.00  0.00     0.147 C
BRANCH  12  13
HETATM   13  C2  UNL     1      12.384 -10.374   8.709  1.00  0.00    -0.020 C
HETATM   14  C1  UNL     1      12.005 -11.564   8.300  1.00  0.00     0.008 C
ENDBRANCH  12  13
ENDBRANCH   1  12
TORSDOF 2
ENDMDL