MODEL 3
REMARK VINA RESULT: -6.245973494      1.990      4.922
REMARK  2 active torsions:
REMARK  status: ('A' for Active; 'I' for Inactive)
REMARK    1  A    between atoms: C2_2  and  C3_3
REMARK    2  A    between atoms: C3_3  and  N1_4
ROOT
HETATM    1  N1  UNL     1       7.028  -6.691   8.958  1.00  0.00     0.097 N
HETATM    2  C4  UNL     1       7.537  -6.697  10.314  1.00  0.00     0.278 C
HETATM    3  C5  UNL     1       8.165  -8.048  10.420  1.00  0.00     0.102 C
HETATM    4  C6  UNL     1       8.775  -8.287   9.076  1.00  0.00     0.213 C
HETATM    5  C7  UNL     1       8.104  -7.271   8.184  1.00  0.00     0.342 C
HETATM    6  O1  UNL     1      10.156  -8.042   9.204  1.00  0.00    -0.351 OA
HETATM    7  C8  UNL     1      10.670  -9.189   9.842  1.00  0.00     0.190 C
HETATM    8  C9  UNL     1      10.837 -10.213   8.714  1.00  0.00     0.169 C
HETATM    9  N2  UNL     1       9.676  -9.992   7.846  1.00  0.00    -0.095 NA
HETATM   10  O2  UNL     1       8.630  -9.575   8.605  1.00  0.00    -0.245 OA
ENDROOT
BRANCH   1  11
HETATM   11  C3  UNL     1       5.846  -7.518   8.859  1.00  0.00     0.299 C
BRANCH  11  12
HETATM   12  C2  UNL     1       4.618  -6.786   9.282  1.00  0.00    -0.007 C
HETATM   13  C1  UNL     1       3.498  -6.808   8.594  1.00  0.00     0.008 C
ENDBRANCH  11  12
ENDBRANCH   1  11
TORSDOF 2
ENDMDL