MODEL 3
REMARK VINA RESULT: -6.213888589      0.758      1.456
REMARK  2 active torsions:
REMARK  status: ('A' for Active; 'I' for Inactive)
REMARK    1  A    between atoms: C4_4  and  C5_5
REMARK    2  A    between atoms: C5_5  and  N1_6
ROOT
HETATM    1  C1  UNL     1       5.777  -6.519   9.187  1.00  0.00     0.019 C
HETATM    2  C2  UNL     1       6.047  -7.596  10.205  1.00  0.00     0.004 C
HETATM    3  C3  UNL     1       7.137  -8.527   9.821  1.00  0.00     0.026 C
HETATM    4  C4  UNL     1       8.116  -7.982   8.833  1.00  0.00     0.104 C
HETATM    5  N2  UNL     1       7.569  -7.334   7.708  1.00  0.00    -0.415 N
ATOM      6  H2  UNL     1       8.117  -7.186   6.861  1.00  0.00     0.153 HD
HETATM    7  C10 UNL     1       6.224  -6.895   7.805  1.00  0.00     0.114 C
ENDROOT
BRANCH   4   8
HETATM    8  C5  UNL     1       9.041  -9.110   8.424  1.00  0.00     0.297 C
BRANCH   8   9
HETATM    9  N1  UNL     1      10.379  -8.852   8.913  1.00  0.00     0.094 N
HETATM   10  C6  UNL     1      11.281  -9.942   8.658  1.00  0.00     0.298 C
HETATM   11  C7  UNL     1      12.715  -9.478   8.834  1.00  0.00     0.198 C
HETATM   12  O1  UNL     1      12.762  -8.436   9.754  1.00  0.00    -0.388 OA
HETATM   13  C8  UNL     1      11.825  -8.612  10.781  1.00  0.00     0.198 C
HETATM   14  C9  UNL     1      10.401  -8.394  10.268  1.00  0.00     0.298 C
ENDBRANCH   8   9
ENDBRANCH   4   8
TORSDOF 2
ENDMDL