MODEL 3
REMARK VINA RESULT: -5.601116935      7.755      9.752
REMARK  3 active torsions:
REMARK  status: ('A' for Active; 'I' for Inactive)
REMARK    1  A    between atoms: C2_2  and  C3_3
REMARK    2  A    between atoms: C3_3  and  N1_4
REMARK    3  A    between atoms: N1_4  and  C4_7
ROOT
HETATM    1  C4  UNL     1       9.424  -9.056   8.834  1.00  0.00     0.245 C
HETATM    2  C5  UNL     1       7.893  -8.975   8.699  1.00  0.00     0.290 C
HETATM    3  O1  UNL     1       7.516  -7.668   8.379  1.00  0.00    -0.359 OA
HETATM    4  C6  UNL     1       7.385  -6.882   9.479  1.00  0.00     0.172 C
HETATM    5  C7  UNL     1       8.486  -6.985  10.492  1.00  0.00     0.038 C
HETATM    6  C8  UNL     1       8.787  -8.311  11.011  1.00  0.00    -0.011 A
HETATM    7  C9  UNL     1       7.548  -9.068  11.034  1.00  0.00     0.181 C
HETATM    8  O2  UNL     1       7.233  -9.500   9.773  1.00  0.00    -0.358 OA
HETATM    9  C10 UNL     1      10.157  -8.544  11.359  1.00  0.00     0.020 A
HETATM   10  C11 UNL     1       9.716  -9.258  10.221  1.00  0.00     0.033 A
ENDROOT
BRANCH   1  11
HETATM   11  N1  UNL     1      10.131  -8.116   8.038  1.00  0.00    -0.063 N
ATOM     12  H12 UNL     1      10.951  -7.762   8.530  1.00  0.00     0.278 HD
ATOM     13  H11 UNL     1       9.608  -7.245   7.946  1.00  0.00     0.278 HD
BRANCH  11  14
HETATM   14  C3  UNL     1      10.496  -8.658   6.719  1.00  0.00     0.259 C
BRANCH  14  15
HETATM   15  C2  UNL     1      10.700 -10.122   6.785  1.00  0.00    -0.010 C
HETATM   16  C1  UNL     1      10.588 -10.882   5.715  1.00  0.00     0.008 C
ENDBRANCH  14  15
ENDBRANCH  11  14
ENDBRANCH   1  11
TORSDOF 3
ENDMDL