MODEL 5
REMARK VINA RESULT: -5.832180901      1.534      2.443
REMARK  3 active torsions:
REMARK  status: ('A' for Active; 'I' for Inactive)
REMARK    1  A    between atoms: O1_1  and  C1_3
REMARK    2  A    between atoms: C1_3  and  C2_4
REMARK    3  A    between atoms: C5_7  and  N1_8
ROOT
HETATM    1  C2  UNL     1       8.689  -7.910  10.363  1.00  0.00     0.011 C
HETATM    2  C3  UNL     1       9.546  -7.914   9.117  1.00  0.00     0.009 C
HETATM    3  C4  UNL     1       8.551  -8.059   7.997  1.00  0.00     0.025 C
HETATM    4  C5  UNL     1       7.213  -8.381   8.621  1.00  0.00     0.079 C
HETATM    5  C10 UNL     1       7.592  -8.895   9.957  1.00  0.00     0.031 C
ENDROOT
BRANCH   4   6
HETATM    6  N1  UNL     1       6.324  -7.273   8.622  1.00  0.00    -0.404 N
HETATM    7  C6  UNL     1       6.055  -6.697   7.350  1.00  0.00     0.143 C
HETATM    8  C7  UNL     1       4.577  -6.524   7.046  1.00  0.00     0.187 C
HETATM    9  O2  UNL     1       3.867  -5.908   8.044  1.00  0.00    -0.388 OA
HETATM   10  C8  UNL     1       4.416  -6.042   9.305  1.00  0.00     0.187 C
HETATM   11  C9  UNL     1       5.168  -7.373   9.440  1.00  0.00     0.143 C
ENDBRANCH   4   6
BRANCH   1  12
HETATM   12  C1  UNL     1       9.399  -8.517  11.550  1.00  0.00     0.168 C
BRANCH  12  13
HETATM   13  O1  UNL     1       9.799  -9.822  11.321  1.00  0.00    -0.400 OA
ATOM     14  H1  UNL     1       9.080 -10.440  11.379  1.00  0.00     0.209 HD
ENDBRANCH  12  13
ENDBRANCH   1  12
TORSDOF 3
ENDMDL