MODEL 3
REMARK VINA RESULT: -6.495070395      1.319      1.654
REMARK  2 active torsions:
REMARK  status: ('A' for Active; 'I' for Inactive)
REMARK    1  A    between atoms: N1_4  and  C4_5
REMARK    2  A    between atoms: C4_5  and  C5_6
ROOT
HETATM    1  C5  UNL     1       8.892  -8.103   9.623  1.00  0.00     0.151 C
HETATM    2  C6  UNL     1       8.816  -9.179   8.594  1.00  0.00     0.061 C
HETATM    3  C7  UNL     1      10.268  -9.653   8.384  1.00  0.00     0.235 C
HETATM    4  N2  UNL     1      10.732 -10.233   9.596  1.00  0.00    -0.073 N
ATOM      5  H21 UNL     1      11.361 -11.013   9.405  1.00  0.00     0.277 HD
ATOM      6  H22 UNL     1       9.978 -10.733  10.067  1.00  0.00     0.277 HD
HETATM    7  C8  UNL     1      11.353  -9.284  10.493  1.00  0.00     0.258 C
HETATM    8  C9  UNL     1      10.350  -8.581  11.371  1.00  0.00     0.195 C
HETATM    9  O1  UNL     1       9.054  -8.692  10.879  1.00  0.00    -0.382 OA
ENDROOT
BRANCH   1  10
HETATM   10  C4  UNL     1       7.815  -7.090   9.636  1.00  0.00     0.304 C
BRANCH  10  11
HETATM   11  N1  UNL     1       6.568  -7.432   9.064  1.00  0.00     0.090 N
HETATM   12  C3  UNL     1       6.393  -6.884   7.769  1.00  0.00     0.272 C
HETATM   13  C2  UNL     1       4.916  -6.588   7.595  1.00  0.00     0.032 C
HETATM   14  C1  UNL     1       4.271  -6.894   8.949  1.00  0.00     0.032 C
HETATM   15  C10 UNL     1       5.492  -6.867   9.842  1.00  0.00     0.272 C
ENDBRANCH  10  11
ENDBRANCH   1  10
TORSDOF 2
ENDMDL