MODEL 1
REMARK VINA RESULT: -6.352156328      0.000      0.000
REMARK  2 active torsions:
REMARK  status: ('A' for Active; 'I' for Inactive)
REMARK    1  A    between atoms: N1_4  and  C4_5
REMARK    2  A    between atoms: C4_5  and  C5_6
ROOT
HETATM    1  C5  UNL     1       2.912  -5.445   6.027  1.00  0.00     0.175 C
HETATM    2  C6  UNL     1       1.844  -6.041   5.149  1.00  0.00     0.265 C
HETATM    3  N2  UNL     1       2.266  -5.780   3.767  1.00  0.00    -0.071 N
ATOM      4  H21 UNL     1       1.601  -6.144   3.085  1.00  0.00     0.277 HD
ATOM      5  H22 UNL     1       3.072  -6.343   3.496  1.00  0.00     0.277 HD
HETATM    6  C7  UNL     1       2.504  -4.372   3.601  1.00  0.00     0.258 C
HETATM    7  C8  UNL     1       2.150  -3.580   4.840  1.00  0.00     0.196 C
HETATM    8  O1  UNL     1       2.732  -4.059   5.973  1.00  0.00    -0.381 OA
ENDROOT
BRANCH   1   9
HETATM    9  C4  UNL     1       2.749  -5.826   7.483  1.00  0.00     0.305 C
BRANCH   9  10
HETATM   10  N1  UNL     1       4.120  -5.906   8.020  1.00  0.00     0.090 N
HETATM   11  C3  UNL     1       4.013  -6.768   9.194  1.00  0.00     0.272 C
HETATM   12  C2  UNL     1       5.325  -7.023   9.839  1.00  0.00     0.030 C
HETATM   13  C1  UNL     1       6.490  -6.629   8.961  1.00  0.00     0.003 C
HETATM   14  C10 UNL     1       6.263  -7.042   7.533  1.00  0.00     0.030 C
HETATM   15  C9  UNL     1       4.933  -6.559   6.998  1.00  0.00     0.272 C
ENDBRANCH   9  10
ENDBRANCH   1   9
TORSDOF 2
ENDMDL