MODEL 2
REMARK VINA RESULT: -6.294118377      2.175      3.186
REMARK  3 active torsions:
REMARK  status: ('A' for Active; 'I' for Inactive)
REMARK    1  A    between atoms: C2_2  and  C3_3
REMARK    2  A    between atoms: C3_3  and  N1_4
REMARK    3  A    between atoms: C5_6  and  O1_7
ROOT
HETATM    1  N1  UNL     1       7.111  -6.873   9.095  1.00  0.00     0.095 N
HETATM    2  C4  UNL     1       6.895  -7.683  10.279  1.00  0.00     0.305 C
HETATM    3  C5  UNL     1       7.460  -9.021   9.835  1.00  0.00     0.158 C
HETATM    4  C6  UNL     1       8.754  -8.563   9.228  1.00  0.00     0.037 C
HETATM    5  C7  UNL     1       9.789  -8.190  10.256  1.00  0.00     0.042 C
HETATM    6  C8  UNL     1      11.071  -8.499   9.484  1.00  0.00     0.168 C
HETATM    7  O2  UNL     1      10.784  -9.569   8.684  1.00  0.00    -0.390 OA
HETATM    8  C9  UNL     1       9.440  -9.555   8.378  1.00  0.00     0.181 C
HETATM    9  C10 UNL     1       8.277  -7.343   8.437  1.00  0.00     0.287 C
ENDROOT
BRANCH   3  10
HETATM   10  O1  UNL     1       7.612  -9.911  10.873  1.00  0.00    -0.393 OA
ATOM     11  H1  UNL     1       7.288 -10.780  10.666  1.00  0.00     0.210 HD
ENDBRANCH   3  10
BRANCH   1  12
HETATM   12  C3  UNL     1       5.921  -6.855   8.288  1.00  0.00     0.299 C
BRANCH  12  13
HETATM   13  C2  UNL     1       4.697  -6.527   9.016  1.00  0.00    -0.007 C
HETATM   14  C1  UNL     1       3.499  -6.879   8.584  1.00  0.00     0.008 C
ENDBRANCH  12  13
ENDBRANCH   1  12
TORSDOF 3
ENDMDL