MODEL 5
REMARK VINA RESULT: -5.177686316      1.280      2.002
REMARK  3 active torsions:
REMARK  status: ('A' for Active; 'I' for Inactive)
REMARK    1  A    between atoms: C2_2  and  C3_3
REMARK    2  A    between atoms: C3_3  and  N1_4
REMARK    3  A    between atoms: C7_8  and  O1_9
ROOT
HETATM    1  N1  UNL     1       6.731  -8.051   9.159  1.00  0.00    -0.284 NA
HETATM    2  C4  UNL     1       7.277  -9.167   9.955  1.00  0.00     0.127 C
HETATM    3  C5  UNL     1       8.357  -8.803  10.889  1.00  0.00     0.137 C
HETATM    4  C6  UNL     1       9.684  -9.238  10.250  1.00  0.00     0.065 C
HETATM    5  C7  UNL     1      10.105  -8.116   9.327  1.00  0.00     0.122 C
HETATM    6  C8  UNL     1       8.977  -7.857   8.384  1.00  0.00     0.054 C
HETATM    7  C9  UNL     1       7.810  -7.119   9.013  1.00  0.00     0.088 C
HETATM    8  C10 UNL     1       8.158  -6.560  10.378  1.00  0.00     0.188 C
HETATM    9  O2  UNL     1       8.390  -7.515  11.326  1.00  0.00    -0.383 OA
ENDROOT
BRANCH   1  10
HETATM   10  C3  UNL     1       5.601  -7.614   9.873  1.00  0.00     0.059 C
BRANCH  10  11
HETATM   11  C2  UNL     1       4.656  -6.685   9.286  1.00  0.00     0.001 C
HETATM   12  C1  UNL     1       3.611  -6.868   8.535  1.00  0.00     0.012 C
ENDBRANCH  10  11
ENDBRANCH   1  10
BRANCH   5  13
HETATM   13  O1  UNL     1      11.175  -8.604   8.541  1.00  0.00    -0.395 OA
ATOM     14  H1  UNL     1      10.828  -8.775   7.673  1.00  0.00     0.210 HD
ENDBRANCH   5  13
TORSDOF 3
ENDMDL