MODEL 2
REMARK VINA RESULT: -9.407092817      0.910      1.439
REMARK  3 active torsions:
REMARK  status: ('A' for Active; 'I' for Inactive)
REMARK    1  A    between atoms: C4_5  and  N1_6
REMARK    2  A    between atoms: N1_6  and  C5_8
REMARK    3  A    between atoms: C10_13  and  C11_14
ROOT
HETATM    1  C5  UNL     1      24.995  24.189  15.976  1.00  0.00     0.061 A
HETATM    2  C6  UNL     1      23.775  23.670  16.351  1.00  0.00     0.032 A
HETATM    3  C7  UNL     1      23.728  22.530  17.125  1.00  0.00     0.003 A
HETATM    4  C8  UNL     1      24.884  21.891  17.538  1.00  0.00     0.014 A
HETATM    5  C9  UNL     1      26.094  22.424  17.152  1.00  0.00     0.008 A
HETATM    6  C10 UNL     1      27.253  21.822  17.538  1.00  0.00     0.058 A
HETATM    7  C12 UNL     1      28.495  22.354  17.154  1.00  0.00     0.144 A
HETATM    8  F4  UNL     1      29.644  21.744  17.546  1.00  0.00    -0.204 F
HETATM    9  C13 UNL     1      28.489  23.485  16.386  1.00  0.00     0.131 A
HETATM   10  N2  UNL     1      27.347  24.067  16.014  1.00  0.00    -0.360 N
ATOM     11  H2  UNL     1      27.380  24.911  15.442  1.00  0.00     0.165 HD
HETATM   12  C14 UNL     1      26.157  23.566  16.376  1.00  0.00     0.070 A
ENDROOT
BRANCH   1  13
HETATM   13  N1  UNL     1      25.085  25.358  15.181  1.00  0.00    -0.341 N
ATOM     14  H1  UNL     1      24.848  26.271  15.569  1.00  0.00     0.167 HD
BRANCH  13  15
HETATM   15  C4  UNL     1      25.481  25.241  13.937  1.00  0.00     0.107 A
HETATM   16  C3  UNL     1      26.680  25.790  13.517  1.00  0.00     0.052 A
HETATM   17  C2  UNL     1      27.119  25.681  12.211  1.00  0.00     0.051 A
HETATM   18  C1  UNL     1      26.325  25.005  11.323  1.00  0.00     0.172 A
HETATM   19  F1  UNL     1      26.733  24.885  10.040  1.00  0.00    -0.201 F
HETATM   20  C15 UNL     1      25.126  24.462  11.758  1.00  0.00     0.228 A
HETATM   21  N3  UNL     1      24.729  24.586  13.034  1.00  0.00    -0.317 N
HETATM   22  F5  UNL     1      24.367  23.802  10.859  1.00  0.00    -0.183 F
ATOM     23  H3  UNL     1      23.842  24.175  13.325  1.00  0.00     0.170 HD
ENDBRANCH  13  15
ENDBRANCH   1  13
BRANCH   6  24
HETATM   24  C11 UNL     1      27.333  20.605  18.364  1.00  0.00     0.390 C
HETATM   25  F2  UNL     1      27.901  21.020  19.581  1.00  0.00    -0.209 F
HETATM   26  F3  UNL     1      28.297  19.794  17.762  1.00  0.00    -0.209 F
ENDBRANCH   6  24
TORSDOF 3
ENDMDL