MODEL 3
REMARK VINA RESULT: -5.547750279      2.416      3.713
REMARK  2 active torsions:
REMARK  status: ('A' for Active; 'I' for Inactive)
REMARK    1  A    between atoms: C2_2  and  C3_3
REMARK    2  A    between atoms: C3_3  and  O1_4
ROOT
HETATM    1  C1  UNL     1      25.247  24.699  17.335  1.00  0.00     0.024 C
HETATM    2  C2  UNL     1      25.410  23.949  16.046  1.00  0.00     0.058 C
HETATM    3  C4  UNL     1      26.628  24.501  15.325  1.00  0.00     0.164 C
HETATM    4 CL1  UNL     1      26.659  26.240  15.542  1.00  0.00    -0.094 Cl
HETATM    5 CL2  UNL     1      26.611  24.089  13.602  1.00  0.00    -0.094 Cl
HETATM    6  C5  UNL     1      27.719  23.793  16.040  1.00  0.00     0.072 C
HETATM    7 CL3  UNL     1      29.358  24.363  16.144  1.00  0.00    -0.084 Cl
HETATM    8  C6  UNL     1      27.281  22.674  16.588  1.00  0.00     0.071 C
HETATM    9 CL4  UNL     1      28.168  21.489  17.534  1.00  0.00    -0.084 Cl
HETATM   10  C7  UNL     1      25.856  22.526  16.273  1.00  0.00     0.176 C
HETATM   11 CL5  UNL     1      25.724  21.608  14.760  1.00  0.00    -0.095 Cl
HETATM   12  C8  UNL     1      25.103  21.910  17.359  1.00  0.00     0.092 C
HETATM   13  N1  UNL     1      24.507  21.420  18.192  1.00  0.00    -0.195 NA
ENDROOT
BRANCH   2  14
HETATM   14  C3  UNL     1      24.186  23.932  15.194  1.00  0.00     0.180 C
BRANCH  14  15
HETATM   15  O1  UNL     1      23.007  23.947  15.933  1.00  0.00    -0.400 OA
ATOM     16  H1  UNL     1      22.493  23.155  15.831  1.00  0.00     0.209 HD
ENDBRANCH  14  15
ENDBRANCH   2  14
TORSDOF 2
ENDMDL