MODEL 1
REMARK VINA RESULT: -8.206295642      0.000      0.000
REMARK  1 active torsions:
REMARK  status: ('A' for Active; 'I' for Inactive)
REMARK    1  A    between atoms: C8_11  and  C9_12
ROOT
HETATM    1  C1  UNL     1      29.285  21.274  18.060  1.00  0.00     0.032 C
HETATM    2  C2  UNL     1      28.036  22.138  18.095  1.00  0.00     0.078 C
HETATM    3  C3  UNL     1      26.914  21.362  18.651  1.00  0.00     0.103 C
HETATM    4  C4  UNL     1      25.861  21.126  17.552  1.00  0.00     0.252 C
HETATM    5  F1  UNL     1      26.423  20.277  16.659  1.00  0.00    -0.206 F
HETATM    6  F2  UNL     1      24.757  20.515  18.123  1.00  0.00    -0.206 F
HETATM    7  C5  UNL     1      25.476  22.473  17.087  1.00  0.00     0.099 C
HETATM    8  C6  UNL     1      24.744  22.686  15.819  1.00  0.00     0.115 C
HETATM    9  C7  UNL     1      23.934  23.875  15.682  1.00  0.00     0.065 C
HETATM   10  N1  UNL     1      23.270  24.807  15.573  1.00  0.00    -0.197 NA
HETATM   11  C8  UNL     1      26.077  22.772  15.119  1.00  0.00     0.066 C
HETATM   12  C15 UNL     1      26.647  23.228  16.452  1.00  0.00     0.098 C
HETATM   13  N2  UNL     1      27.873  22.622  16.745  1.00  0.00    -0.412 N
ATOM     14  H2  UNL     1      28.610  22.527  16.045  1.00  0.00     0.154 HD
ENDROOT
BRANCH  11  15
HETATM   15  C9  UNL     1      26.187  23.687  14.011  1.00  0.00     0.030 A
HETATM   16  C10 UNL     1      25.345  23.440  12.927  1.00  0.00     0.126 A
HETATM   17  F3  UNL     1      24.364  22.491  13.024  1.00  0.00    -0.205 F
HETATM   18  C11 UNL     1      25.435  24.135  11.756  1.00  0.00     0.046 A
HETATM   19  C12 UNL     1      26.390  25.133  11.599  1.00  0.00     0.048 A
HETATM   20  C13 UNL     1      27.216  25.390  12.632  1.00  0.00     0.155 A
HETATM   21  F4  UNL     1      28.188  26.360  12.506  1.00  0.00    -0.203 F
HETATM   22  C14 UNL     1      27.112  24.676  13.817  1.00  0.00     0.164 A
HETATM   23  F5  UNL     1      27.997  24.988  14.752  1.00  0.00    -0.202 F
ENDBRANCH  11  15
TORSDOF 1
ENDMDL