MODEL 1
REMARK VINA RESULT: -8.962152192      0.000      0.000
REMARK  2 active torsions:
REMARK  status: ('A' for Active; 'I' for Inactive)
REMARK    1  A    between atoms: C4_7  and  N1_8
REMARK    2  A    between atoms: N1_8  and  C5_10
ROOT
HETATM    1  N1  UNL     1      25.409  24.828  15.674  1.00  0.00    -0.336 N
ATOM      2  H1  UNL     1      24.841  25.564  16.096  1.00  0.00     0.168 HD
ENDROOT
BRANCH   1   3
HETATM    3  C4  UNL     1      25.703  24.894  14.301  1.00  0.00     0.118 A
HETATM    4  C3  UNL     1      24.861  24.331  13.355  1.00  0.00     0.188 A
HETATM    5  C2  UNL     1      25.116  24.374  12.003  1.00  0.00     0.199 A
HETATM    6  F3  UNL     1      23.720  23.698  13.738  1.00  0.00    -0.200 F
HETATM    7  C1  UNL     1      26.282  25.021  11.615  1.00  0.00     0.199 A
HETATM    8  F2  UNL     1      24.310  23.833  11.065  1.00  0.00    -0.199 F
HETATM    9  F1  UNL     1      26.555  25.077  10.277  1.00  0.00    -0.199 F
HETATM   10  C14 UNL     1      27.133  25.588  12.553  1.00  0.00     0.199 A
HETATM   11  C13 UNL     1      26.845  25.526  13.901  1.00  0.00     0.188 A
HETATM   12  F5  UNL     1      28.274  26.217  12.131  1.00  0.00    -0.199 F
HETATM   13  F4  UNL     1      27.721  26.102  14.773  1.00  0.00    -0.200 F
ENDBRANCH   1   3
BRANCH   1  14
HETATM   14  C5  UNL     1      25.844  23.847  16.425  1.00  0.00     0.122 A
HETATM   15  C6  UNL     1      24.967  23.146  17.224  1.00  0.00     0.137 A
HETATM   16  N2  UNL     1      25.398  22.133  18.004  1.00  0.00    -0.361 N
HETATM   17  C7  UNL     1      26.703  21.776  18.023  1.00  0.00     0.059 A
ATOM     18  H2  UNL     1      24.730  21.629  18.588  1.00  0.00     0.165 HD
HETATM   19  C8  UNL     1      27.098  20.729  18.840  1.00  0.00     0.032 A
HETATM   20  C12 UNL     1      27.588  22.470  17.228  1.00  0.00     0.060 A
HETATM   21  C9  UNL     1      28.428  20.374  18.851  1.00  0.00     0.002 A
HETATM   22  C10 UNL     1      29.330  21.062  18.058  1.00  0.00     0.002 A
HETATM   23  C11 UNL     1      28.906  22.097  17.258  1.00  0.00     0.032 A
HETATM   24  N3  UNL     1      27.143  23.493  16.443  1.00  0.00    -0.340 N
ATOM     25  H3  UNL     1      27.807  23.999  15.858  1.00  0.00     0.167 HD
ENDBRANCH   1  14
TORSDOF 2
ENDMDL