MODEL 5
REMARK VINA RESULT: -6.948075568      1.624      2.401
REMARK  4 active torsions:
REMARK  status: ('A' for Active; 'I' for Inactive)
REMARK    1  A    between atoms: C2_2  and  C3_3
REMARK    2  A    between atoms: C3_3  and  O1_6
REMARK    3  A    between atoms: O1_6  and  C4_7
REMARK    4  A    between atoms: C10_16  and  O2_18
ROOT
HETATM    1  C1  UNL     1      28.854  22.426  18.663  1.00  0.00     0.025 C
HETATM    2  C2  UNL     1      27.717  21.725  17.997  1.00  0.00     0.060 C
HETATM    3  C5  UNL     1      26.397  22.003  18.808  1.00  0.00     0.097 C
HETATM    4  C6  UNL     1      25.724  22.973  18.054  1.00  0.00    -0.181 C
HETATM    5  C7  UNL     1      25.002  23.886  17.267  1.00  0.00     0.093 C
HETATM    6  C8  UNL     1      25.924  24.154  16.032  1.00  0.00     0.007 A
HETATM    7  C9  UNL     1      25.950  25.651  15.730  1.00  0.00     0.020 C
HETATM    8  C10 UNL     1      26.072  23.304  14.916  1.00  0.00     0.071 A
HETATM    9  C11 UNL     1      26.465  23.880  13.581  1.00  0.00     0.047 C
HETATM   10  C12 UNL     1      27.175  23.406  16.039  1.00  0.00    -0.001 A
HETATM   11  C13 UNL     1      28.371  24.318  15.633  1.00  0.00     0.019 C
HETATM   12  C14 UNL     1      27.551  22.144  16.537  1.00  0.00     0.031 C
ENDROOT
BRANCH   2  13
HETATM   13  C3  UNL     1      27.969  20.235  18.022  1.00  0.00     0.369 C
HETATM   14  F1  UNL     1      27.090  19.635  17.173  1.00  0.00    -0.175 F
HETATM   15  F2  UNL     1      29.288  20.051  17.649  1.00  0.00    -0.175 F
BRANCH  13  16
HETATM   16  O1  UNL     1      27.723  19.790  19.301  1.00  0.00    -0.227 OA
BRANCH  16  17
HETATM   17  C4  UNL     1      28.876  19.434  19.988  1.00  0.00     0.529 C
HETATM   18  F3  UNL     1      29.316  20.463  20.799  1.00  0.00    -0.144 F
HETATM   19  F4  UNL     1      29.893  19.045  19.138  1.00  0.00    -0.144 F
HETATM   20  F5  UNL     1      28.588  18.355  20.803  1.00  0.00    -0.144 F
ENDBRANCH  16  17
ENDBRANCH  13  16
ENDBRANCH   2  13
BRANCH   8  21
HETATM   21  O2  UNL     1      25.417  22.073  14.785  1.00  0.00    -0.389 OA
ATOM     22  H2  UNL     1      25.681  21.284  15.245  1.00  0.00     0.210 HD
ENDBRANCH   8  21
TORSDOF 4
ENDMDL