MODEL 3
REMARK VINA RESULT: -6.624179397      2.886      4.825
REMARK  6 active torsions:
REMARK  status: ('A' for Active; 'I' for Inactive)
REMARK    1  A    between atoms: O1_2  and  C2_3
REMARK    2  A    between atoms: C2_3  and  C3_4
REMARK    3  A    between atoms: C2_3  and  C13_16
REMARK    4  A    between atoms: C2_3  and  C14_20
REMARK    5  A    between atoms: C4_5  and  C5_6
REMARK    6  A    between atoms: C5_6  and  O2_7
ROOT
HETATM    1  C3  UNL     1      25.904  23.322  15.703  1.00  0.00    -0.046 C
HETATM    2  C4  UNL     1      26.361  22.570  16.507  1.00  0.00    -0.064 C
ENDROOT
BRANCH   1   3
HETATM    3  C2  UNL     1      25.322  24.278  14.718  1.00  0.00     0.320 C
BRANCH   3   4
HETATM    4  O1  UNL     1      24.075  24.555  15.100  1.00  0.00    -0.357 OA
HETATM    5  C1  UNL     1      23.305  23.781  15.859  1.00  0.00     0.204 C
ENDBRANCH   3   4
BRANCH   3   6
HETATM    6  C13 UNL     1      26.214  25.542  14.714  1.00  0.00     0.439 C
HETATM    7  F1  UNL     1      26.104  26.048  16.019  1.00  0.00    -0.166 F
HETATM    8  F2  UNL     1      25.795  26.411  13.766  1.00  0.00    -0.166 F
HETATM    9  F3  UNL     1      27.524  25.131  14.602  1.00  0.00    -0.166 F
ENDBRANCH   3   6
BRANCH   3  10
HETATM   10  C14 UNL     1      25.405  23.710  13.335  1.00  0.00     0.439 C
HETATM   11  F4  UNL     1      26.460  24.175  12.586  1.00  0.00    -0.166 F
HETATM   12  F5  UNL     1      24.261  24.096  12.643  1.00  0.00    -0.166 F
HETATM   13  F6  UNL     1      25.521  22.329  13.347  1.00  0.00    -0.166 F
ENDBRANCH   3  10
ENDBRANCH   1   3
BRANCH   2  14
HETATM   14  C5  UNL     1      26.926  21.670  17.508  1.00  0.00     0.130 C
HETATM   15  C6  UNL     1      26.554  22.206  18.932  1.00  0.00     0.131 C
HETATM   16  C7  UNL     1      27.484  21.593  19.784  1.00  0.00    -0.179 C
HETATM   17  C8  UNL     1      28.248  21.251  20.912  1.00  0.00     0.080 C
HETATM   18  C9  UNL     1      29.351  20.294  20.350  1.00  0.00     0.011 C
HETATM   19  C10 UNL     1      29.904  20.646  19.038  1.00  0.00     0.001 C
HETATM   20  C11 UNL     1      29.141  20.316  17.760  1.00  0.00     0.004 C
HETATM   21  C12 UNL     1      28.357  21.504  17.236  1.00  0.00     0.052 C
BRANCH  14  22
HETATM   22  O2  UNL     1      26.325  20.403  17.446  1.00  0.00    -0.377 OA
ATOM     23  H2  UNL     1      26.038  20.203  16.563  1.00  0.00     0.211 HD
ENDBRANCH  14  22
ENDBRANCH   2  14
TORSDOF 6
ENDMDL