MODEL 3
REMARK VINA RESULT: -7.855108314      2.372      2.611
REMARK  1 active torsions:
REMARK  status: ('A' for Active; 'I' for Inactive)
REMARK    1  A    between atoms: C4_5  and  C5_6
ROOT
HETATM    1  C5  UNL     1      27.141  23.350  15.497  1.00  0.00     0.072 A
HETATM    2  C6  UNL     1      26.110  22.879  14.699  1.00  0.00     0.173 A
HETATM    3  F1  UNL     1      25.445  21.728  14.980  1.00  0.00    -0.202 F
HETATM    4  C7  UNL     1      25.699  23.558  13.567  1.00  0.00     0.197 A
HETATM    5  F2  UNL     1      24.678  23.083  12.785  1.00  0.00    -0.199 F
HETATM    6  C8  UNL     1      26.356  24.729  13.259  1.00  0.00     0.199 A
HETATM    7  F3  UNL     1      25.981  25.419  12.159  1.00  0.00    -0.199 F
HETATM    8  C9  UNL     1      27.383  25.233  14.021  1.00  0.00     0.197 A
HETATM    9  F4  UNL     1      28.036  26.385  13.724  1.00  0.00    -0.199 F
HETATM   10  C10 UNL     1      27.761  24.526  15.138  1.00  0.00     0.173 A
HETATM   11  F5  UNL     1      28.767  24.994  15.911  1.00  0.00    -0.202 F
ENDROOT
BRANCH   1  12
HETATM   12  C4  UNL     1      27.548  22.597  16.693  1.00  0.00     0.052 A
HETATM   13  C3  UNL     1      28.890  22.088  17.038  1.00  0.00     0.112 A
HETATM   14  C2  UNL     1      28.683  21.450  18.368  1.00  0.00     0.147 A
HETATM   15  C1  UNL     1      28.995  19.961  18.357  1.00  0.00     0.062 C
HETATM   16 BR1  UNL     1      29.684  22.336  19.767  1.00  0.00    -0.052 Br
HETATM   17  O1  UNL     1      27.317  21.581  18.644  1.00  0.00    -0.257 OA
HETATM   18  N1  UNL     1      26.742  22.274  17.633  1.00  0.00    -0.268 N
ATOM     19  H1  UNL     1      25.751  22.518  17.621  1.00  0.00     0.194 HD
ENDBRANCH   1  12
TORSDOF 1
ENDMDL