MODEL 2
REMARK VINA RESULT: -8.998004594      0.345      2.263
REMARK  1 active torsions:
REMARK  status: ('A' for Active; 'I' for Inactive)
REMARK    1  A    between atoms: C8_13  and  C9_14
ROOT
HETATM    1  O1  UNL     1      27.160  27.085  13.975  1.00  0.00    -0.291 OA
HETATM    2  C1  UNL     1      26.764  25.899  13.743  1.00  0.00     0.177 C
HETATM    3  C2  UNL     1      27.103  25.312  12.425  1.00  0.00     0.085 C
HETATM    4  C3  UNL     1      25.784  24.904  11.801  1.00  0.00     0.008 C
HETATM    5  C4  UNL     1      25.218  23.673  12.404  1.00  0.00     0.005 C
HETATM    6  C5  UNL     1      24.301  23.881  13.565  1.00  0.00     0.043 C
HETATM    7  C6  UNL     1      24.921  24.445  14.762  1.00  0.00     0.003 A
HETATM    8  C7  UNL     1      26.028  25.315  14.846  1.00  0.00     0.102 A
HETATM    9  N1  UNL     1      26.263  25.495  16.142  1.00  0.00    -0.296 N
ATOM     10  H1  UNL     1      27.008  26.077  16.526  1.00  0.00     0.187 HD
HETATM   11  N2  UNL     1      25.392  24.811  16.855  1.00  0.00    -0.299 N
ATOM     12  H2  UNL     1      25.366  24.787  17.875  1.00  0.00     0.187 HD
HETATM   13  C8  UNL     1      24.525  24.133  16.034  1.00  0.00     0.073 A
ENDROOT
BRANCH  13  14
HETATM   14  C9  UNL     1      23.529  23.243  16.612  1.00  0.00     0.076 A
HETATM   15  C10 UNL     1      22.169  23.353  16.496  1.00  0.00     0.173 A
HETATM   16  F1  UNL     1      21.588  24.443  15.959  1.00  0.00    -0.202 F
HETATM   17  C11 UNL     1      21.293  22.399  16.987  1.00  0.00     0.197 A
HETATM   18  F2  UNL     1      19.955  22.533  16.855  1.00  0.00    -0.199 F
HETATM   19  C12 UNL     1      21.755  21.281  17.625  1.00  0.00     0.199 A
HETATM   20  F3  UNL     1      20.972  20.306  18.131  1.00  0.00    -0.199 F
HETATM   21  C13 UNL     1      23.127  21.137  17.762  1.00  0.00     0.197 A
HETATM   22  F4  UNL     1      23.622  20.034  18.395  1.00  0.00    -0.199 F
HETATM   23  C14 UNL     1      23.981  22.087  17.271  1.00  0.00     0.173 A
HETATM   24  F5  UNL     1      25.294  21.881  17.405  1.00  0.00    -0.202 F
ENDBRANCH  13  14
TORSDOF 1
ENDMDL