MODEL 1
REMARK VINA RESULT: -8.159222268      0.000      0.000
REMARK  1 active torsions:
REMARK  status: ('A' for Active; 'I' for Inactive)
REMARK    1  A    between atoms: C5_10  and  C6_11
ROOT
HETATM    1  C1  UNL     1      22.717  20.196  18.847  1.00  0.00     0.070 C
HETATM    2  C2  UNL     1      22.061  21.207  17.951  1.00  0.00     0.036 A
HETATM    3  N1  UNL     1      20.732  21.449  17.850  1.00  0.00    -0.301 N
ATOM      4  H1  UNL     1      20.008  20.963  18.380  1.00  0.00     0.187 HD
HETATM    5  N2  UNL     1      20.513  22.398  16.971  1.00  0.00    -0.280 N
HETATM    6  C3  UNL     1      19.243  22.963  16.559  1.00  0.00     0.179 C
HETATM    7  C4  UNL     1      21.696  22.813  16.466  1.00  0.00     0.135 A
HETATM    8  N3  UNL     1      22.317  23.647  15.615  1.00  0.00    -0.339 N
ATOM      9  H3  UNL     1      21.839  24.323  15.018  1.00  0.00     0.167 HD
HETATM   10  C5  UNL     1      23.675  23.472  15.651  1.00  0.00     0.057 A
HETATM   11  C12 UNL     1      23.918  22.489  16.561  1.00  0.00    -0.018 A
HETATM   12  C13 UNL     1      25.155  21.879  17.103  1.00  0.00     0.052 C
HETATM   13  C14 UNL     1      22.669  22.074  17.072  1.00  0.00     0.041 A
ENDROOT
BRANCH  10  14
HETATM   14  C6  UNL     1      24.621  24.311  14.901  1.00  0.00     0.075 A
HETATM   15  C7  UNL     1      24.684  24.181  13.511  1.00  0.00     0.173 A
HETATM   16  F1  UNL     1      23.789  23.387  12.884  1.00  0.00    -0.202 F
HETATM   17  C8  UNL     1      25.596  24.850  12.742  1.00  0.00     0.197 A
HETATM   18  F2  UNL     1      25.624  24.692  11.373  1.00  0.00    -0.199 F
HETATM   19  C9  UNL     1      26.500  25.694  13.344  1.00  0.00     0.199 A
HETATM   20  F3  UNL     1      27.402  26.354  12.573  1.00  0.00    -0.199 F
HETATM   21  C10 UNL     1      26.470  25.846  14.705  1.00  0.00     0.197 A
HETATM   22  F4  UNL     1      27.355  26.673  15.304  1.00  0.00    -0.199 F
HETATM   23  C11 UNL     1      25.530  25.155  15.493  1.00  0.00     0.173 A
HETATM   24  F5  UNL     1      25.643  25.342  16.827  1.00  0.00    -0.202 F
ENDBRANCH  10  14
TORSDOF 1
ENDMDL