MODEL 4
REMARK VINA RESULT: -5.891620283      3.077      3.758
REMARK  3 active torsions:
REMARK  status: ('A' for Active; 'I' for Inactive)
REMARK    1  A    between atoms: C3_5  and  N2_6
REMARK    2  A    between atoms: N2_6  and  C4_8
REMARK    3  A    between atoms: C4_8  and  C6_10
ROOT
HETATM    1  C1  UNL     1      21.385  22.720  16.581  1.00  0.00     0.070 C
HETATM    2  C2  UNL     1      22.890  22.785  16.828  1.00  0.00     0.036 A
HETATM    3  N1  UNL     1      23.662  23.746  16.360  1.00  0.00    -0.339 N
ATOM      4  H1  UNL     1      23.269  24.502  15.800  1.00  0.00     0.168 HD
HETATM    5  C3  UNL     1      24.962  23.710  16.633  1.00  0.00     0.146 A
HETATM    6  S1  UNL     1      25.119  22.283  17.577  1.00  0.00    -0.040 SA
HETATM    7  C7  UNL     1      23.482  21.803  17.571  1.00  0.00     0.100 A
HETATM    8 CL4  UNL     1      22.723  20.392  18.329  1.00  0.00    -0.074 Cl
ENDROOT
BRANCH   5   9
HETATM    9  N2  UNL     1      25.909  24.552  16.275  1.00  0.00    -0.362 N
ATOM     10  H2  UNL     1      26.152  25.363  16.844  1.00  0.00     0.162 HD
BRANCH   9  11
HETATM   11  C4  UNL     1      26.585  24.263  15.033  1.00  0.00     0.134 C
HETATM   12  C5  UNL     1      28.078  24.114  15.234  1.00  0.00     0.036 C
BRANCH  11  13
HETATM   13  C6  UNL     1      26.391  25.385  14.021  1.00  0.00     0.208 C
HETATM   14 CL1  UNL     1      24.688  25.325  13.510  1.00  0.00    -0.082 Cl
HETATM   15 CL2  UNL     1      27.389  25.040  12.594  1.00  0.00    -0.082 Cl
HETATM   16 CL3  UNL     1      26.800  26.948  14.748  1.00  0.00    -0.082 Cl
ENDBRANCH  11  13
ENDBRANCH   9  11
ENDBRANCH   5   9
TORSDOF 3
ENDMDL