MODEL 2
REMARK VINA RESULT: -6.187909643      1.544      1.636
REMARK  6 active torsions:
REMARK  status: ('A' for Active; 'I' for Inactive)
REMARK    1  A    between atoms: C1_4  and  C2_5
REMARK    2  A    between atoms: C1_4  and  N4_11
REMARK    3  A    between atoms: C2_5  and  C3_6
REMARK    4  A    between atoms: N4_11  and  C5_13
REMARK    5  A    between atoms: C5_13  and  C6_14
REMARK    6  A    between atoms: C6_14  and  O1_15
ROOT
HETATM    1  N1  UNL     1      21.686 -14.933   7.961  1.00  0.00    -0.389 N
ATOM      2  H11 UNL     1      21.624 -13.966   8.279  1.00  0.00     0.157 HD
ATOM      3  H12 UNL     1      20.927 -15.584   8.164  1.00  0.00     0.157 HD
HETATM    4  C1  UNL     1      22.743 -15.288   7.306  1.00  0.00     0.072 C
ENDROOT
BRANCH   4   5
HETATM    5  C2  UNL     1      22.834 -16.700   6.842  1.00  0.00     0.104 C
BRANCH   5   6
HETATM    6  C3  UNL     1      21.912 -16.933   5.654  1.00  0.00     0.145 A
HETATM    7  C4  UNL     1      22.676 -16.965   4.429  1.00  0.00     0.099 A
HETATM    8  N2  UNL     1      22.181 -15.907   4.001  1.00  0.00    -0.317 N
HETATM    9  N3  UNL     1      21.405 -15.753   5.101  1.00  0.00    -0.131 NA
ATOM     10  H2  UNL     1      22.310 -15.363   3.148  1.00  0.00     0.181 HD
ENDBRANCH   5   6
ENDBRANCH   4   5
BRANCH   4  11
HETATM   11  N4  UNL     1      23.801 -14.381   7.024  1.00  0.00    -0.378 N
ATOM     12  H4  UNL     1      23.586 -13.515   6.531  1.00  0.00     0.160 HD
BRANCH  11  13
HETATM   13  C5  UNL     1      25.173 -14.644   7.410  1.00  0.00     0.146 C
BRANCH  13  14
HETATM   14  C6  UNL     1      25.985 -13.392   7.092  1.00  0.00     0.183 C
BRANCH  14  15
HETATM   15  O1  UNL     1      26.803 -13.694   5.982  1.00  0.00    -0.399 OA
ATOM     16  H1  UNL     1      26.829 -12.919   5.432  1.00  0.00     0.209 HD
ENDBRANCH  14  15
ENDBRANCH  13  14
ENDBRANCH  11  13
ENDBRANCH   4  11
TORSDOF 6
ENDMDL