MODEL 5
REMARK VINA RESULT: -6.356275230      2.585      3.320
REMARK  5 active torsions:
REMARK  status: ('A' for Active; 'I' for Inactive)
REMARK    1  A    between atoms: N2_4  and  N3_6
REMARK    2  A    between atoms: N3_6  and  C1_8
REMARK    3  A    between atoms: C1_8  and  C2_12
REMARK    4  A    between atoms: C2_12  and  N5_13
REMARK    5  A    between atoms: N5_13  and  S1_15
ROOT
HETATM    1  C1  UNL     1      24.261 -14.863   7.288  1.00  0.00     0.109 C
HETATM    2  N4  UNL     1      25.117 -15.511   7.982  1.00  0.00    -0.386 N
ATOM      3  H41 UNL     1      24.925 -16.485   8.220  1.00  0.00     0.157 HD
ATOM      4  H42 UNL     1      25.975 -15.054   8.289  1.00  0.00     0.157 HD
ENDROOT
BRANCH   1   5
HETATM    5  N3  UNL     1      24.526 -13.514   6.958  1.00  0.00    -0.274 N
ATOM      6  H3  UNL     1      23.759 -12.842   6.935  1.00  0.00     0.190 HD
BRANCH   5   7
HETATM    7  N2  UNL     1      25.823 -13.089   6.664  1.00  0.00    -0.248 N
HETATM    8  N1  UNL     1      26.208 -11.915   6.915  1.00  0.00    -0.331 N
ATOM      9  H12 UNL     1      25.542 -11.272   7.344  1.00  0.00     0.178 HD
ATOM     10  H11 UNL     1      27.155 -11.603   6.701  1.00  0.00     0.178 HD
ATOM     11  H2  UNL     1      26.476 -13.744   6.236  1.00  0.00     0.207 HD
ENDBRANCH   5   7
ENDBRANCH   1   5
BRANCH   1  12
HETATM   12  C2  UNL     1      23.031 -15.517   6.849  1.00  0.00     0.212 C
BRANCH  12  13
HETATM   13  N5  UNL     1      21.864 -15.163   7.559  1.00  0.00    -0.294 N
ATOM     14  H5  UNL     1      21.308 -14.352   7.285  1.00  0.00     0.175 HD
BRANCH  13  15
HETATM   15  S1  UNL     1      21.421 -16.103   8.855  1.00  0.00     0.204 S
HETATM   16  O1  UNL     1      20.309 -17.030   8.522  1.00  0.00    -0.578 OA
HETATM   17  O2  UNL     1      21.012 -15.198  10.010  1.00  0.00    -0.578 OA
HETATM   18  O3  UNL     1      22.779 -16.955   9.418  1.00  0.00    -0.578 OA
ENDBRANCH  13  15
ENDBRANCH  12  13
ENDBRANCH   1  12
TORSDOF 5
ENDMDL