MODEL 1
REMARK VINA RESULT: -6.698867865      0.000      0.000
REMARK  4 active torsions:
REMARK  status: ('A' for Active; 'I' for Inactive)
REMARK    1  A    between atoms: N2_4  and  C1_6
REMARK    2  A    between atoms: C1_6  and  C2_7
REMARK    3  A    between atoms: N3_8  and  C3_10
REMARK    4  A    between atoms: C3_10  and  N4_11
REMARK       I    between atoms: N4_11  and  C4_13
REMARK       I    between atoms: C4_13  and  N6_17
ROOT
HETATM    1  N4  UNL     1      22.233 -15.813   6.136  1.00  0.00    -0.209 N
ATOM      2  H4  UNL     1      21.431 -15.389   6.602  1.00  0.00     0.179 HD
HETATM    3  C4  UNL     1      22.117 -16.270   4.806  1.00  0.00     0.687 C
HETATM    4  N5  UNL     1      21.320 -15.632   4.013  1.00  0.00    -0.234 N
ATOM      5  H51 UNL     1      21.236 -15.963   3.052  1.00  0.00     0.174 HD
ATOM      6  H52 UNL     1      20.772 -14.817   4.289  1.00  0.00     0.174 HD
HETATM    7  N6  UNL     1      22.876 -17.398   4.423  1.00  0.00    -0.139 N
ATOM      8  H6  UNL     1      23.870 -17.304   4.214  1.00  0.00     0.205 HD
HETATM    9  N7  UNL     1      22.312 -18.518   4.344  1.00  0.00    -0.331 N
ATOM     10  H71 UNL     1      22.860 -19.332   4.068  1.00  0.00     0.177 HD
ATOM     11  H72 UNL     1      21.316 -18.594   4.557  1.00  0.00     0.177 HD
ENDROOT
BRANCH   1  12
HETATM   12  C3  UNL     1      23.478 -15.945   6.832  1.00  0.00     0.261 C
BRANCH  12  13
HETATM   13  N3  UNL     1      24.265 -14.766   6.597  1.00  0.00    -0.384 N
HETATM   14  C2  UNL     1      25.244 -14.545   7.387  1.00  0.00     0.078 C
ATOM     15  H3  UNL     1      24.050 -14.129   5.829  1.00  0.00     0.160 HD
BRANCH  14  16
HETATM   16  C1  UNL     1      26.067 -13.332   7.158  1.00  0.00     0.182 C
BRANCH  16  17
HETATM   17  N2  UNL     1      27.367 -13.562   7.690  1.00  0.00    -0.338 N
HETATM   18  N1  UNL     1      27.620 -13.264   8.865  1.00  0.00    -0.349 N
ATOM     19  H12 UNL     1      26.884 -12.852   9.438  1.00  0.00     0.176 HD
ATOM     20  H11 UNL     1      28.551 -13.429   9.246  1.00  0.00     0.176 HD
ATOM     21  H2  UNL     1      28.091 -13.975   7.102  1.00  0.00     0.179 HD
ENDBRANCH  16  17
ENDBRANCH  14  16
ENDBRANCH  12  13
ENDBRANCH   1  12
TORSDOF 4
ENDMDL