MODEL 3
REMARK VINA RESULT: -6.803706795      2.458      4.147
REMARK  5 active torsions:
REMARK  status: ('A' for Active; 'I' for Inactive)
REMARK    1  A    between atoms: N2_4  and  N3_6
REMARK       I    between atoms: N3_6  and  C1_8
REMARK       I    between atoms: C1_8  and  N6_17
REMARK    2  A    between atoms: N4_9  and  C2_11
REMARK    3  A    between atoms: C2_11  and  C3_12
REMARK    4  A    between atoms: C3_12  and  C4_13
REMARK    5  A    between atoms: N6_17  and  O1_21
ROOT
HETATM    1  N3  UNL     1      22.668 -18.404   4.420  1.00  0.00    -0.115 N
ATOM      2  H3  UNL     1      23.538 -18.144   3.954  1.00  0.00     0.207 HD
HETATM    3  C1  UNL     1      21.944 -17.450   5.159  1.00  0.00     0.735 C
HETATM    4  N4  UNL     1      21.163 -17.815   6.102  1.00  0.00    -0.221 N
ATOM      5  H4  UNL     1      21.052 -18.802   6.334  1.00  0.00     0.177 HD
HETATM    6  N6  UNL     1      22.086 -16.084   4.848  1.00  0.00     0.010 N
HETATM    7  N7  UNL     1      22.973 -15.369   5.392  1.00  0.00    -0.304 N
ATOM      8  H71 UNL     1      23.076 -14.380   5.167  1.00  0.00     0.180 HD
ATOM      9  H72 UNL     1      23.611 -15.772   6.077  1.00  0.00     0.180 HD
ENDROOT
BRANCH   1  10
HETATM   10  N2  UNL     1      22.187 -19.702   4.332  1.00  0.00    -0.235 N
HETATM   11  N1  UNL     1      22.537 -20.648   5.104  1.00  0.00    -0.330 N
ATOM     12  H12 UNL     1      23.218 -20.422   5.830  1.00  0.00     0.178 HD
ATOM     13  H11 UNL     1      22.183 -21.602   5.039  1.00  0.00     0.178 HD
ATOM     14  H2  UNL     1      21.507 -19.910   3.601  1.00  0.00     0.208 HD
ENDBRANCH   1  10
BRANCH   4  15
HETATM   15  C2  UNL     1      20.445 -16.807   6.828  1.00  0.00     0.143 C
BRANCH  15  16
HETATM   16  C3  UNL     1      21.011 -16.577   8.211  1.00  0.00     0.064 C
BRANCH  16  17
HETATM   17  C4  UNL     1      21.217 -15.141   8.516  1.00  0.00     0.054 C
HETATM   18  N5  UNL     1      20.368 -14.270   8.188  1.00  0.00    -0.411 N
ATOM     19  H52 UNL     1      19.525 -14.577   7.702  1.00  0.00     0.155 HD
ATOM     20  H51 UNL     1      20.509 -13.282   8.398  1.00  0.00     0.155 HD
ENDBRANCH  16  17
ENDBRANCH  15  16
ENDBRANCH   4  15
BRANCH   6  21
HETATM   21  O1  UNL     1      21.227 -15.540   3.926  1.00  0.00    -0.255 OA
ATOM     22  H1  UNL     1      20.322 -15.829   3.935  1.00  0.00     0.247 HD
ENDBRANCH   6  21
TORSDOF 5
ENDMDL