MODEL 1
REMARK VINA RESULT: -5.991232833      0.000      0.000
REMARK  4 active torsions:
REMARK  status: ('A' for Active; 'I' for Inactive)
REMARK    1  A    between atoms: N1_2  and  C2_3
REMARK    2  A    between atoms: N1_2  and  N3_7
REMARK       I    between atoms: N3_7  and  C3_9
REMARK    3  A    between atoms: C3_9  and  C4_11
REMARK    4  A    between atoms: C5_15  and  N5_16
ROOT
HETATM    1  C4  UNL     1      22.741 -16.239   6.692  1.00  0.00     0.331 A
HETATM    2  N4  UNL     1      23.301 -15.716   5.449  1.00  0.00    -0.034 N
ATOM      3  H41 UNL     1      22.946 -15.179   4.657  1.00  0.00     0.281 HD
ATOM      4  H42 UNL     1      23.629 -16.118   4.570  1.00  0.00     0.281 HD
HETATM    5  C5  UNL     1      23.897 -15.401   6.730  1.00  0.00     0.339 A
ENDROOT
BRANCH   1   6
HETATM    6  C3  UNL     1      21.388 -15.786   7.121  1.00  0.00     0.267 C
HETATM    7  N3  UNL     1      20.238 -16.415   6.620  1.00  0.00    -0.283 N
ATOM      8  H3  UNL     1      20.374 -17.181   5.961  1.00  0.00     0.184 HD
HETATM    9  O1  UNL     1      21.326 -14.853   7.921  1.00  0.00    -0.270 OA
BRANCH   7  10
HETATM   10  N1  UNL     1      18.929 -16.080   6.948  1.00  0.00    -0.194 NA
HETATM   11  C1  UNL     1      17.957 -17.097   6.653  1.00  0.00     0.143 C
BRANCH  10  12
HETATM   12  C2  UNL     1      18.556 -14.929   6.182  1.00  0.00     0.164 C
HETATM   13  N2  UNL     1      18.380 -13.829   6.767  1.00  0.00    -0.398 N
ATOM     14  H22 UNL     1      18.505 -13.774   7.777  1.00  0.00     0.156 HD
ATOM     15  H21 UNL     1      18.114 -13.009   6.221  1.00  0.00     0.156 HD
ENDBRANCH  10  12
ENDBRANCH   7  10
ENDBRANCH   1   6
BRANCH   5  16
HETATM   16  N5  UNL     1      23.868 -13.999   7.055  1.00  0.00    -0.310 N
HETATM   17  N6  UNL     1      24.963 -13.383   6.981  1.00  0.00    -0.347 N
ATOM     18  H62 UNL     1      25.818 -13.866   6.705  1.00  0.00     0.176 HD
ATOM     19  H61 UNL     1      24.943 -12.390   7.211  1.00  0.00     0.176 HD
ATOM     20  H5  UNL     1      23.006 -13.530   7.330  1.00  0.00     0.182 HD
ENDBRANCH   5  16
TORSDOF 4
ENDMDL