MODEL 5
REMARK VINA RESULT: -5.942104416      1.066      4.397
REMARK  6 active torsions:
REMARK  status: ('A' for Active; 'I' for Inactive)
REMARK    1  A    between atoms: N1_1  and  N2_4
REMARK    2  A    between atoms: N4_9  and  C2_10
REMARK    3  A    between atoms: N4_9  and  C4_15
REMARK    4  A    between atoms: C2_10  and  C3_11
REMARK    5  A    between atoms: C4_15  and  C5_16
REMARK    6  A    between atoms: C5_16  and  N6_17
ROOT
HETATM    1  N2  UNL     1      19.419 -14.906   6.207  1.00  0.00    -0.268 N
ATOM      2  H2  UNL     1      19.458 -15.196   5.230  1.00  0.00     0.189 HD
HETATM    3  C1  UNL     1      20.347 -15.253   7.037  1.00  0.00     0.344 A
HETATM    4  N3  UNL     1      20.987 -15.308   8.280  1.00  0.00    -0.168 N
ATOM      5  H3  UNL     1      21.001 -15.046   9.266  1.00  0.00     0.197 HD
HETATM    6  N4  UNL     1      21.587 -15.971   7.219  1.00  0.00     0.086 N
ENDROOT
BRANCH   6   7
HETATM    7  C2  UNL     1      22.683 -15.380   6.518  1.00  0.00     0.319 C
BRANCH   7   8
HETATM    8  C3  UNL     1      23.697 -14.764   7.397  1.00  0.00     0.083 C
HETATM    9  N5  UNL     1      24.329 -13.732   6.993  1.00  0.00    -0.410 N
ATOM     10  H52 UNL     1      24.124 -13.349   6.070  1.00  0.00     0.155 HD
ATOM     11  H51 UNL     1      25.030 -13.306   7.601  1.00  0.00     0.155 HD
ENDBRANCH   7   8
ENDBRANCH   6   7
BRANCH   6  12
HETATM   12  C4  UNL     1      21.389 -17.412   7.104  1.00  0.00     0.297 C
BRANCH  12  13
HETATM   13  C5  UNL     1      22.501 -17.995   6.248  1.00  0.00     0.169 C
BRANCH  13  14
HETATM   14  N6  UNL     1      21.995 -18.237   4.928  1.00  0.00    -0.341 N
HETATM   15  N7  UNL     1      22.459 -19.141   4.213  1.00  0.00    -0.349 N
ATOM     16  H72 UNL     1      23.215 -19.713   4.588  1.00  0.00     0.176 HD
ATOM     17  H71 UNL     1      22.099 -19.314   3.274  1.00  0.00     0.176 HD
ATOM     18  H6  UNL     1      21.237 -17.656   4.568  1.00  0.00     0.179 HD
ENDBRANCH  13  14
ENDBRANCH  12  13
ENDBRANCH   6  12
BRANCH   1  19
HETATM   19  N1  UNL     1      18.376 -14.134   6.673  1.00  0.00    -0.342 N
ATOM     20  H12 UNL     1      17.792 -13.619   6.015  1.00  0.00     0.176 HD
ATOM     21  H11 UNL     1      18.212 -14.095   7.679  1.00  0.00     0.176 HD
ENDBRANCH   1  19
TORSDOF 6
ENDMDL