MODEL 2
REMARK VINA RESULT: -6.036262797      1.020      1.482
REMARK  7 active torsions:
REMARK  status: ('A' for Active; 'I' for Inactive)
REMARK    1  A    between atoms: N1_2  and  N2_3
REMARK    2  A    between atoms: N1_2  and  C2_6
REMARK    3  A    between atoms: N1_2  and  C3_10
REMARK    4  A    between atoms: C3_10  and  N4_11
REMARK    5  A    between atoms: N4_11  and  C4_14
REMARK    6  A    between atoms: C4_14  and  N5_15
REMARK    7  A    between atoms: N5_15  and  N6_16
ROOT
HETATM    1  C3  UNL     1      22.990 -16.518   6.903  1.00  0.00     0.503 C
ENDROOT
BRANCH   1   2
HETATM    2  N1  UNL     1      21.992 -16.731   5.908  1.00  0.00     0.061 N
HETATM    3  C1  UNL     1      20.713 -16.155   6.266  1.00  0.00     0.312 C
BRANCH   2   4
HETATM    4  N2  UNL     1      21.781 -18.087   5.619  1.00  0.00    -0.255 N
ATOM      5  H22 UNL     1      20.910 -18.489   5.272  1.00  0.00     0.184 HD
ATOM      6  H21 UNL     1      22.650 -18.584   5.819  1.00  0.00     0.184 HD
ENDBRANCH   2   4
BRANCH   2   7
HETATM    7  C2  UNL     1      22.413 -16.118   4.690  1.00  0.00     0.315 C
HETATM    8  N3  UNL     1      21.551 -15.528   3.941  1.00  0.00    -0.387 N
ATOM      9  H32 UNL     1      20.573 -15.508   4.230  1.00  0.00     0.156 HD
ATOM     10  H31 UNL     1      21.852 -15.089   3.070  1.00  0.00     0.156 HD
ENDBRANCH   2   7
ENDBRANCH   1   2
BRANCH   1  11
HETATM   11  N4  UNL     1      23.848 -15.381   6.626  1.00  0.00    -0.034 N
ATOM     12  H42 UNL     1      24.269 -15.416   5.698  1.00  0.00     0.280 HD
ATOM     13  H41 UNL     1      23.329 -14.512   6.502  1.00  0.00     0.280 HD
BRANCH  11  14
HETATM   14  C4  UNL     1      24.822 -15.309   7.685  1.00  0.00     0.370 C
BRANCH  14  15
HETATM   15  N5  UNL     1      25.891 -14.374   7.387  1.00  0.00    -0.099 NA
BRANCH  15  16
HETATM   16  N6  UNL     1      25.387 -13.156   6.966  1.00  0.00    -0.252 N
HETATM   17  N7  UNL     1      26.093 -12.163   6.782  1.00  0.00    -0.334 N
ATOM     18  H72 UNL     1      27.094 -12.261   6.954  1.00  0.00     0.177 HD
ATOM     19  H71 UNL     1      25.721 -11.266   6.472  1.00  0.00     0.177 HD
ATOM     20  H6  UNL     1      24.384 -13.076   6.799  1.00  0.00     0.203 HD
ENDBRANCH  15  16
ENDBRANCH  14  15
ENDBRANCH  11  14
ENDBRANCH   1  11
TORSDOF 7
ENDMDL