MODEL 1
REMARK VINA RESULT: -5.944784001      0.000      0.000
REMARK  6 active torsions:
REMARK  status: ('A' for Active; 'I' for Inactive)
REMARK    1  A    between atoms: C1_4  and  N2_5
REMARK    2  A    between atoms: N2_5  and  C2_7
REMARK    3  A    between atoms: C2_7  and  C3_8
REMARK    4  A    between atoms: C3_8  and  N3_9
REMARK    5  A    between atoms: C4_11  and  N4_12
REMARK    6  A    between atoms: N4_12  and  N5_14
ROOT
HETATM    1  N3  UNL     1      23.542 -16.212   7.059  1.00  0.00    -0.384 N
ATOM      2  H3  UNL     1      23.508 -17.139   7.485  1.00  0.00     0.160 HD
HETATM    3  C4  UNL     1      24.118 -15.236   7.634  1.00  0.00     0.195 C
ENDROOT
BRANCH   1   4
HETATM    4  C3  UNL     1      22.938 -15.948   5.776  1.00  0.00     0.140 C
BRANCH   4   5
HETATM    5  C2  UNL     1      21.749 -16.871   5.576  1.00  0.00     0.140 C
BRANCH   5   6
HETATM    6  N2  UNL     1      22.167 -18.055   4.869  1.00  0.00    -0.385 N
ATOM      7  H2  UNL     1      22.224 -18.048   3.850  1.00  0.00     0.160 HD
BRANCH   6   8
HETATM    8  C1  UNL     1      22.497 -19.227   5.586  1.00  0.00     0.168 C
HETATM    9  N1  UNL     1      22.511 -20.349   4.967  1.00  0.00    -0.396 N
ATOM     10  H12 UNL     1      22.286 -20.378   3.973  1.00  0.00     0.156 HD
ATOM     11  H11 UNL     1      22.750 -21.196   5.484  1.00  0.00     0.156 HD
ENDBRANCH   6   8
ENDBRANCH   5   6
ENDBRANCH   4   5
ENDBRANCH   1   4
BRANCH   3  12
HETATM   12  N4  UNL     1      24.159 -13.964   7.039  1.00  0.00    -0.275 N
ATOM     13  H4  UNL     1      23.347 -13.538   6.591  1.00  0.00     0.189 HD
BRANCH  12  14
HETATM   14  N5  UNL     1      25.396 -13.335   7.109  1.00  0.00    -0.189 N
HETATM   15  C5  UNL     1      26.676 -13.278   7.431  1.00  0.00     0.245 A
HETATM   16  N6  UNL     1      26.089 -12.158   6.802  1.00  0.00    -0.271 N
ATOM     17  H6  UNL     1      26.135 -11.214   6.419  1.00  0.00     0.190 HD
ENDBRANCH  12  14
ENDBRANCH   3  12
TORSDOF 6
ENDMDL