MODEL 5
REMARK VINA RESULT: -8.174399746      3.994      9.082
REMARK  8 active torsions:
REMARK  status: ('A' for Active; 'I' for Inactive)
REMARK    1  A    between atoms: C7_7  and  N1_8
REMARK    2  A    between atoms: C7_7  and  C16_25
REMARK       I    between atoms: N1_8  and  C8_10
REMARK    3  A    between atoms: C8_10  and  C9_12
REMARK    4  A    between atoms: C9_12  and  C10_13
REMARK    5  A    between atoms: C10_13  and  S1_14
REMARK    6  A    between atoms: S1_14  and  C11_15
REMARK    7  A    between atoms: C16_25  and  O2_26
REMARK    8  A    between atoms: C16_25  and  N4_28
ROOT
HETATM    1  N1  UNL     1     -25.555   4.889  -3.685  1.00  0.00    -0.343 N
ATOM      2  H1  UNL     1     -26.473   4.908  -4.129  1.00  0.00     0.163 HD
HETATM    3  C8  UNL     1     -25.332   4.056  -2.551  1.00  0.00     0.219 C
HETATM    4  O1  UNL     1     -24.196   4.050  -2.034  1.00  0.00    -0.274 OA
ENDROOT
BRANCH   1   5
HETATM    5  C7  UNL     1     -24.459   5.727  -4.220  1.00  0.00     0.104 C
HETATM    6  C2  UNL     1     -25.049   6.459  -5.393  1.00  0.00    -0.015 C
HETATM    7  C1  UNL     1     -25.614   7.813  -5.043  1.00  0.00     0.018 C
HETATM    8  C3  UNL     1     -26.237   5.675  -5.991  1.00  0.00     0.018 C
HETATM    9  C4  UNL     1     -24.028   6.481  -6.488  1.00  0.00     0.012 C
HETATM   10  C5  UNL     1     -23.326   5.153  -6.283  1.00  0.00     0.004 C
HETATM   11  C6  UNL     1     -23.391   4.887  -4.789  1.00  0.00     0.040 C
BRANCH   5  12
HETATM   12  C16 UNL     1     -23.994   6.634  -3.154  1.00  0.00     0.143 C
BRANCH  12  13
HETATM   13  O2  UNL     1     -22.676   6.553  -2.926  1.00  0.00    -0.347 OA
ATOM     14  H2  UNL     1     -22.463   6.204  -2.069  1.00  0.00     0.219 HD
ENDBRANCH  12  13
BRANCH  12  15
HETATM   15  N4  UNL     1     -24.594   7.553  -2.333  1.00  0.00    -0.363 N
HETATM   16  C17 UNL     1     -25.734   7.435  -1.508  1.00  0.00     0.124 C
HETATM   17  C18 UNL     1     -25.413   7.650  -0.031  1.00  0.00     0.020 C
HETATM   18  C19 UNL     1     -24.676   8.944   0.115  1.00  0.00     0.003 C
HETATM   19  C20 UNL     1     -24.588   9.705  -1.190  1.00  0.00     0.020 C
HETATM   20  C21 UNL     1     -23.962   8.912  -2.285  1.00  0.00     0.124 C
ENDBRANCH  12  15
ENDBRANCH   5  12
ENDBRANCH   1   5
BRANCH   3  21
HETATM   21  C9  UNL     1     -26.382   3.202  -1.962  1.00  0.00     0.113 C
BRANCH  21  22
HETATM   22  C10 UNL     1     -26.216   1.778  -2.444  1.00  0.00     0.084 C
BRANCH  22  23
HETATM   23  S1  UNL     1     -25.287   0.774  -1.278  1.00  0.00    -0.156 SA
BRANCH  23  24
HETATM   24  C11 UNL     1     -23.524   0.755  -1.733  1.00  0.00     0.114 C
HETATM   25  C12 UNL     1     -23.444   0.444  -3.210  1.00  0.00     0.024 C
HETATM   26  C13 UNL     1     -22.211  -0.355  -3.519  1.00  0.00     0.021 C
HETATM   27  C14 UNL     1     -22.461  -1.763  -2.960  1.00  0.00     0.121 C
HETATM   28  N2  UNL     1     -22.592  -1.564  -1.516  1.00  0.00    -0.379 N
HETATM   29  C15 UNL     1     -22.789  -0.275  -0.957  1.00  0.00     0.084 C
ATOM     30  H2  UNL     1     -22.541  -2.372  -0.896  1.00  0.00     0.160 HD
HETATM   31  N3  UNL     1     -22.341   0.036   0.225  1.00  0.00    -0.388 N
ATOM     32  H32 UNL     1     -22.483   0.963   0.627  1.00  0.00     0.157 HD
ATOM     33  H31 UNL     1     -21.837  -0.672   0.758  1.00  0.00     0.157 HD
ENDBRANCH  23  24
ENDBRANCH  22  23
ENDBRANCH  21  22
ENDBRANCH   3  21
TORSDOF 8
ENDMDL