MODEL 2
REMARK VINA RESULT: -8.818906947      2.658      4.153
REMARK  10 active torsions:
REMARK  status: ('A' for Active; 'I' for Inactive)
REMARK    1  A    between atoms: C3_3  and  C4_4
REMARK    2  A    between atoms: C5_5  and  C6_6
REMARK    3  A    between atoms: C6_6  and  O1_7
REMARK    4  A    between atoms: C7_9  and  C8_10
REMARK    5  A    between atoms: C9_11  and  C10_12
REMARK    6  A    between atoms: C10_12  and  C11_13
REMARK    7  A    between atoms: C11_13  and  C12_14
REMARK    8  A    between atoms: C12_14  and  C13_15
REMARK    9  A    between atoms: C13_15  and  C14_16
REMARK   10  A    between atoms: C14_16  and  C15_17
ROOT
HETATM    1  C1  UNL     1     -27.856  10.732  -5.481  1.00  0.00     0.018 C
HETATM    2  C2  UNL     1     -26.424  10.459  -5.776  1.00  0.00    -0.010 C
HETATM    3  C3  UNL     1     -25.900   9.381  -4.819  1.00  0.00     0.034 C
HETATM    4  C7  UNL     1     -25.026   8.924  -5.977  1.00  0.00     0.078 C
HETATM    5  C16 UNL     1     -26.138   9.468  -6.889  1.00  0.00     0.013 C
HETATM    6  C17 UNL     1     -25.636  10.258  -8.053  1.00  0.00     0.014 C
HETATM    7  C18 UNL     1     -25.373  11.669  -7.579  1.00  0.00     0.019 C
HETATM    8  C19 UNL     1     -26.542  12.563  -7.897  1.00  0.00     0.038 C
HETATM    9  C20 UNL     1     -26.393  13.283  -9.198  1.00  0.00     0.018 C
HETATM   10  C21 UNL     1     -26.241  14.774  -9.062  1.00  0.00     0.079 C
HETATM   11  C22 UNL     1     -27.085  15.374  -8.029  1.00  0.00     0.132 C
HETATM   12  O4  UNL     1     -27.587  16.467  -8.227  1.00  0.00    -0.298 OA
HETATM   13  C23 UNL     1     -27.380  14.730  -6.719  1.00  0.00     0.130 C
HETATM   14  C24 UNL     1     -26.673  13.411  -6.726  1.00  0.00    -0.006 C
HETATM   15  N1  UNL     1     -26.102  12.860  -5.728  1.00  0.00    -0.390 N
ATOM     16  H1  UNL     1     -26.071  13.278  -4.798  1.00  0.00     0.159 HD
HETATM   17  C25 UNL     1     -25.512  11.602  -6.044  1.00  0.00     0.095 C
ENDROOT
BRANCH   4  18
HETATM   18  C8  UNL     1     -24.889   7.471  -6.054  1.00  0.00    -0.101 C
HETATM   19  C9  UNL     1     -24.782   6.245  -6.141  1.00  0.00    -0.106 C
BRANCH  19  20
HETATM   20  C10 UNL     1     -24.705   4.800  -6.206  1.00  0.00     0.094 C
BRANCH  20  21
HETATM   21  C11 UNL     1     -25.638   4.092  -5.326  1.00  0.00     0.012 C
BRANCH  21  22
HETATM   22  C12 UNL     1     -25.144   2.905  -4.602  1.00  0.00     0.001 C
BRANCH  22  23
HETATM   23  C13 UNL     1     -24.229   3.168  -3.482  1.00  0.00     0.010 C
BRANCH  23  24
HETATM   24  C14 UNL     1     -24.643   4.357  -2.611  1.00  0.00     0.113 C
BRANCH  24  25
HETATM   25  C15 UNL     1     -25.189   3.992  -1.304  1.00  0.00     0.172 C
HETATM   26  O2  UNL     1     -25.554   4.840  -0.483  1.00  0.00    -0.648 OA
HETATM   27  O3  UNL     1     -25.275   2.618  -1.032  1.00  0.00    -0.648 OA
ENDBRANCH  24  25
ENDBRANCH  23  24
ENDBRANCH  22  23
ENDBRANCH  21  22
ENDBRANCH  20  21
ENDBRANCH  19  20
ENDBRANCH   4  18
BRANCH   3  28
HETATM   28  C4  UNL     1     -25.209   9.879  -3.631  1.00  0.00    -0.022 C
HETATM   29  C5  UNL     1     -25.118   9.191  -2.522  1.00  0.00    -0.005 C
BRANCH  29  30
HETATM   30  C6  UNL     1     -25.685   7.856  -2.325  1.00  0.00     0.191 C
BRANCH  30  31
HETATM   31  O1  UNL     1     -26.036   7.770  -0.951  1.00  0.00    -0.397 OA
ATOM     32  H1  UNL     1     -25.890   6.868  -0.695  1.00  0.00     0.209 HD
ENDBRANCH  30  31
ENDBRANCH  29  30
ENDBRANCH   3  28
TORSDOF 10
ENDMDL