MODEL 4
REMARK VINA RESULT: -9.331708536      1.026      1.511
REMARK  7 active torsions:
REMARK  status: ('A' for Active; 'I' for Inactive)
REMARK    1  A    between atoms: C2_2  and  O1_3
REMARK    2  A    between atoms: C2_2  and  C3_5
REMARK    3  A    between atoms: N1_8  and  C6_9
REMARK    4  A    between atoms: C12_15  and  C13_16
REMARK    5  A    between atoms: C13_16  and  C14_17
REMARK       I    between atoms: C14_17  and  N2_19
REMARK    6  A    between atoms: N2_19  and  C15_21
REMARK    7  A    between atoms: C15_21  and  C16_22
ROOT
HETATM    1  C3  UNL     1     -24.701   8.301  -0.889  1.00  0.00    -0.011 C
HETATM    2  C4  UNL     1     -24.559   9.635  -1.621  1.00  0.00     0.031 C
HETATM    3  C5  UNL     1     -24.145   9.281  -3.018  1.00  0.00     0.119 C
HETATM    4  N1  UNL     1     -25.156   8.403  -3.581  1.00  0.00    -0.399 N
HETATM    5  C12 UNL     1     -25.193   7.172  -2.921  1.00  0.00     0.037 C
HETATM    6  C22 UNL     1     -23.766   6.784  -2.495  1.00  0.00     0.032 C
HETATM    7  C23 UNL     1     -23.460   7.512  -1.234  1.00  0.00     0.014 C
HETATM    8  C24 UNL     1     -25.786   7.473  -1.532  1.00  0.00     0.043 C
ENDROOT
BRANCH   5   9
HETATM    9  C13 UNL     1     -25.900   6.036  -3.540  1.00  0.00     0.134 C
BRANCH   9  10
HETATM   10  C14 UNL     1     -25.098   4.897  -4.052  1.00  0.00     0.223 C
HETATM   11  O2  UNL     1     -24.391   4.853  -5.067  1.00  0.00    -0.273 OA
HETATM   12  N2  UNL     1     -25.108   3.647  -3.306  1.00  0.00    -0.339 N
ATOM     13  H2  UNL     1     -25.667   3.618  -2.453  1.00  0.00     0.167 HD
BRANCH  12  14
HETATM   14  C15 UNL     1     -24.417   2.480  -3.658  1.00  0.00     0.089 C
BRANCH  14  15
HETATM   15  C16 UNL     1     -23.382   1.969  -2.674  1.00  0.00     0.119 C
HETATM   16  C17 UNL     1     -22.571   0.852  -3.205  1.00  0.00     0.030 C
HETATM   17  C18 UNL     1     -23.083  -0.521  -3.071  1.00  0.00     0.003 C
HETATM   18  C19 UNL     1     -22.463  -1.147  -1.825  1.00  0.00     0.005 C
HETATM   19  C20 UNL     1     -22.560  -0.072  -0.740  1.00  0.00     0.044 C
HETATM   20  C21 UNL     1     -23.935   0.493  -0.804  1.00  0.00     0.056 C
HETATM   21  N3  UNL     1     -24.104   1.713  -1.470  1.00  0.00    -0.393 N
ATOM     22  H3  UNL     1     -24.742   2.417  -1.096  1.00  0.00     0.159 HD
ENDBRANCH  14  15
ENDBRANCH  12  14
ENDBRANCH   9  10
ENDBRANCH   5   9
BRANCH   4  23
HETATM   23  C6  UNL     1     -25.586   8.753  -4.819  1.00  0.00     0.080 C
HETATM   24  C7  UNL     1     -24.699   8.027  -5.873  1.00  0.00     0.025 C
HETATM   25  C8  UNL     1     -25.577   7.618  -7.032  1.00  0.00     0.002 C
HETATM   26  C9  UNL     1     -26.569   8.750  -7.295  1.00  0.00     0.000 C
HETATM   27  C10 UNL     1     -25.863  10.018  -6.940  1.00  0.00     0.002 C
HETATM   28  C11 UNL     1     -25.717  10.104  -5.383  1.00  0.00     0.025 C
ENDBRANCH   4  23
BRANCH   1  29
HETATM   29  C2  UNL     1     -24.874   8.518   0.575  1.00  0.00     0.122 C
HETATM   30  C1  UNL     1     -25.751   7.515   1.245  1.00  0.00     0.040 C
BRANCH  29  31
HETATM   31  O1  UNL     1     -25.323   9.811   0.873  1.00  0.00    -0.395 OA
ATOM     32  H1  UNL     1     -24.621  10.434   0.733  1.00  0.00     0.210 HD
ENDBRANCH  29  31
ENDBRANCH   1  29
TORSDOF 7
ENDMDL