MODEL 4
REMARK VINA RESULT: -9.242095632      3.587      8.850
REMARK  7 active torsions:
REMARK  status: ('A' for Active; 'I' for Inactive)
REMARK    1  A    between atoms: C2_2  and  C4_4
REMARK    2  A    between atoms: C6_10  and  C7_11
REMARK    3  A    between atoms: C7_11  and  C8_12
REMARK    4  A    between atoms: C8_12  and  N3_13
REMARK    5  A    between atoms: C8_12  and  C18_28
REMARK       I    between atoms: N3_13  and  C9_15
REMARK       I    between atoms: C9_15  and  N4_17
REMARK    6  A    between atoms: N4_17  and  C10_19
REMARK    7  A    between atoms: C18_28  and  C19_30
ROOT
HETATM    1  C8  UNL     1     -24.261   7.090  -2.417  1.00  0.00     0.085 C
ENDROOT
BRANCH   1   2
HETATM    2  C7  UNL     1     -25.312   7.181  -1.412  1.00  0.00     0.065 C
BRANCH   2   3
HETATM    3  C6  UNL     1     -25.271   8.159  -0.330  1.00  0.00     0.058 A
HETATM    4  C4  UNL     1     -25.665   7.831   0.981  1.00  0.00    -0.010 A
HETATM    5  C5  UNL     1     -25.534   8.969   1.725  1.00  0.00     0.117 A
HETATM    6  N1  UNL     1     -25.090   9.912   0.883  1.00  0.00    -0.311 N
HETATM    7  N2  UNL     1     -24.929   9.452  -0.325  1.00  0.00    -0.301 N
ATOM      8  H1  UNL     1     -24.899  10.875   1.156  1.00  0.00     0.186 HD
ATOM      9  H2  UNL     1     -24.600   9.986  -1.129  1.00  0.00     0.187 HD
BRANCH   4  10
HETATM   10  C2  UNL     1     -26.154   6.482   1.421  1.00  0.00     0.014 C
HETATM   11  C1  UNL     1     -26.100   6.463   2.940  1.00  0.00     0.015 C
HETATM   12  C3  UNL     1     -27.613   6.290   1.069  1.00  0.00     0.015 C
ENDBRANCH   4  10
ENDBRANCH   2   3
ENDBRANCH   1   2
BRANCH   1  13
HETATM   13  N3  UNL     1     -24.251   8.370  -3.115  1.00  0.00    -0.306 N
HETATM   14  C9  UNL     1     -25.208   9.001  -3.900  1.00  0.00     0.321 C
HETATM   15  O1  UNL     1     -26.311   8.468  -4.042  1.00  0.00    -0.247 OA
HETATM   16  N4  UNL     1     -24.895  10.262  -4.537  1.00  0.00    -0.338 N
ATOM     17  H4  UNL     1     -23.970  10.672  -4.407  1.00  0.00     0.164 HD
ATOM     18  H3  UNL     1     -23.385   8.897  -3.009  1.00  0.00     0.171 HD
BRANCH  16  19
HETATM   19  C10 UNL     1     -25.846  10.939  -5.337  1.00  0.00     0.090 C
HETATM   20  C11 UNL     1     -26.186  12.257  -4.641  1.00  0.00     0.055 C
HETATM   21  C12 UNL     1     -27.261  12.900  -5.502  1.00  0.00     0.275 C
HETATM   22  N5  UNL     1     -26.765  13.181  -6.832  1.00  0.00     0.093 N
HETATM   23  C13 UNL     1     -25.887  14.341  -6.838  1.00  0.00     0.310 C
HETATM   24  C14 UNL     1     -26.195  12.048  -7.504  1.00  0.00     0.154 C
HETATM   25  C15 UNL     1     -27.232  11.037  -7.937  1.00  0.00     0.049 C
HETATM   26  C16 UNL     1     -25.459  12.568  -8.717  1.00  0.00     0.049 C
HETATM   27  C17 UNL     1     -25.191  11.283  -6.646  1.00  0.00     0.066 C
ENDBRANCH  16  19
ENDBRANCH   1  13
BRANCH   1  28
HETATM   28  C18 UNL     1     -24.029   5.980  -3.303  1.00  0.00     0.183 C
HETATM   29  O2  UNL     1     -22.908   5.963  -3.900  1.00  0.00    -0.290 OA
BRANCH  28  30
HETATM   30  C19 UNL     1     -24.880   4.838  -3.672  1.00  0.00     0.016 C
HETATM   31  C20 UNL     1     -25.588   5.203  -5.020  1.00  0.00     0.023 C
HETATM   32  C21 UNL     1     -25.958   4.460  -2.711  1.00  0.00     0.023 C
HETATM   33  C22 UNL     1     -24.082   3.581  -3.982  1.00  0.00     0.023 C
ENDBRANCH  28  30
ENDBRANCH   1  28
TORSDOF 7
ENDMDL