MODEL 3
REMARK VINA RESULT: -9.133778720      3.136      4.400
REMARK  7 active torsions:
REMARK  status: ('A' for Active; 'I' for Inactive)
REMARK    1  A    between atoms: C2_2  and  C4_4
REMARK    2  A    between atoms: C2_2  and  C8_13
REMARK    3  A    between atoms: C4_4  and  N1_5
REMARK    4  A    between atoms: N1_5  and  C5_8
REMARK    5  A    between atoms: C5_8  and  C6_9
REMARK    6  A    between atoms: C6_9  and  C7_10
REMARK    7  A    between atoms: C14_20  and  O3_22
ROOT
HETATM    1  C8  UNL     1     -25.539   7.213  -3.170  1.00  0.00     0.142 C
HETATM    2  O2  UNL     1     -24.728   6.803  -4.213  1.00  0.00    -0.378 OA
HETATM    3  C9  UNL     1     -24.568   8.126  -4.561  1.00  0.00     0.137 C
HETATM    4  C10 UNL     1     -25.494   8.547  -5.673  1.00  0.00     0.020 C
HETATM    5  C11 UNL     1     -24.999   8.075  -6.986  1.00  0.00     0.008 C
HETATM    6  C12 UNL     1     -25.493   8.823  -8.161  1.00  0.00     0.009 C
HETATM    7  C13 UNL     1     -26.527   9.877  -7.889  1.00  0.00     0.028 C
HETATM    8  C14 UNL     1     -26.529  10.775  -9.110  1.00  0.00     0.059 C
HETATM    9  C15 UNL     1     -27.903  11.192  -9.545  1.00  0.00     0.046 C
HETATM   10  C16 UNL     1     -25.635  11.923  -8.745  1.00  0.00     0.038 C
HETATM   11  C17 UNL     1     -24.961  11.546  -7.438  1.00  0.00     0.013 C
HETATM   12  C18 UNL     1     -26.086  10.747  -6.763  1.00  0.00    -0.034 C
HETATM   13  C19 UNL     1     -27.106  11.794  -6.376  1.00  0.00     0.016 C
HETATM   14  C20 UNL     1     -25.633  10.048  -5.542  1.00  0.00     0.001 C
HETATM   15  C21 UNL     1     -26.536  10.214  -4.341  1.00  0.00     0.007 C
HETATM   16  C22 UNL     1     -25.908   9.719  -3.104  1.00  0.00     0.015 C
HETATM   17  C23 UNL     1     -24.962   8.567  -3.202  1.00  0.00     0.009 C
HETATM   18  C24 UNL     1     -23.724   8.872  -2.396  1.00  0.00     0.020 C
ENDROOT
BRANCH   1  19
HETATM   19  C2  UNL     1     -25.501   6.344  -1.982  1.00  0.00     0.003 C
HETATM   20  C1  UNL     1     -24.157   5.998  -1.424  1.00  0.00     0.019 C
HETATM   21  C3  UNL     1     -26.442   6.879  -0.911  1.00  0.00     0.019 C
BRANCH  19  22
HETATM   22  C4  UNL     1     -26.117   5.000  -2.390  1.00  0.00     0.243 C
BRANCH  22  23
HETATM   23  N1  UNL     1     -25.157   4.058  -2.867  1.00  0.00    -0.074 N
ATOM     24  H12 UNL     1     -24.258   4.503  -3.054  1.00  0.00     0.277 HD
ATOM     25  H11 UNL     1     -24.865   3.416  -2.131  1.00  0.00     0.277 HD
BRANCH  23  26
HETATM   26  C5  UNL     1     -25.650   3.345  -4.031  1.00  0.00     0.241 C
BRANCH  26  27
HETATM   27  C6  UNL     1     -24.874   2.083  -4.312  1.00  0.00     0.127 C
BRANCH  27  28
HETATM   28  C7  UNL     1     -23.922   1.847  -3.215  1.00  0.00     0.232 C
HETATM   29  N2  UNL     1     -22.598   2.338  -3.324  1.00  0.00    -0.062 NA
HETATM   30  O1  UNL     1     -24.271   1.221  -2.199  1.00  0.00    -0.277 OA
ENDBRANCH  27  28
ENDBRANCH  26  27
ENDBRANCH  23  26
ENDBRANCH  22  23
ENDBRANCH  19  22
ENDBRANCH   1  19
BRANCH   8  31
HETATM   31  O3  UNL     1     -25.959  10.102 -10.217  1.00  0.00    -0.390 OA
ATOM     32  H3  UNL     1     -25.873  10.694 -10.956  1.00  0.00     0.210 HD
ENDBRANCH   8  31
TORSDOF 7
ENDMDL