MODEL 4
REMARK VINA RESULT: -9.171268328      4.013      5.576
REMARK  5 active torsions:
REMARK  status: ('A' for Active; 'I' for Inactive)
REMARK    1  A    between atoms: C16_17  and  C17_18
REMARK    2  A    between atoms: C17_18  and  C19_20
REMARK    3  A    between atoms: C19_20  and  C20_21
REMARK    4  A    between atoms: C20_21  and  C21_22
REMARK       I    between atoms: C21_22  and  N1_24
REMARK    5  A    between atoms: N1_24  and  S1_26
ROOT
HETATM    1  C1  UNL     1     -24.103   9.495  -3.448  1.00  0.00     0.015 C
HETATM    2  C2  UNL     1     -24.973   8.483  -3.505  1.00  0.00    -0.084 C
HETATM    3  C3  UNL     1     -26.118   8.359  -2.589  1.00  0.00     0.034 C
HETATM    4  C4  UNL     1     -25.957   6.999  -1.927  1.00  0.00     0.010 C
HETATM    5  C5  UNL     1     -26.040   5.919  -2.966  1.00  0.00     0.007 C
HETATM    6  C6  UNL     1     -25.185   6.090  -4.167  1.00  0.00     0.069 C
HETATM    7  C7  UNL     1     -24.027   5.170  -3.792  1.00  0.00     0.137 C
HETATM    8  O1  UNL     1     -22.843   5.439  -3.913  1.00  0.00    -0.297 OA
HETATM    9  C8  UNL     1     -24.736   3.997  -3.301  1.00  0.00     0.068 C
HETATM   10  C9  UNL     1     -23.978   2.962  -2.558  1.00  0.00    -0.007 C
HETATM   11  C10 UNL     1     -23.071   2.235  -3.524  1.00  0.00     0.011 C
HETATM   12  C11 UNL     1     -24.946   1.928  -2.039  1.00  0.00     0.005 C
HETATM   13  C12 UNL     1     -26.229   2.420  -1.490  1.00  0.00     0.001 C
HETATM   14  C13 UNL     1     -26.795   3.667  -2.109  1.00  0.00     0.010 C
HETATM   15  C14 UNL     1     -25.687   4.638  -2.283  1.00  0.00    -0.029 C
HETATM   16  C15 UNL     1     -25.002   4.875  -0.964  1.00  0.00     0.016 C
HETATM   17  C16 UNL     1     -24.759   7.453  -4.560  1.00  0.00     0.029 C
ENDROOT
BRANCH  17  18
HETATM   18  C17 UNL     1     -25.428   8.026  -5.793  1.00  0.00    -0.009 C
HETATM   19  C18 UNL     1     -24.892   7.468  -7.094  1.00  0.00     0.010 C
BRANCH  18  20
HETATM   20  C19 UNL     1     -25.609   9.474  -5.870  1.00  0.00     0.014 C
BRANCH  20  21
HETATM   21  C20 UNL     1     -26.687  10.072  -6.672  1.00  0.00     0.104 C
BRANCH  21  22
HETATM   22  C21 UNL     1     -26.691  11.546  -6.833  1.00  0.00     0.233 C
HETATM   23  O2  UNL     1     -27.688  12.251  -6.490  1.00  0.00    -0.273 OA
HETATM   24  N1  UNL     1     -25.590  12.249  -7.385  1.00  0.00    -0.235 N
ATOM     25  H1  UNL     1     -24.763  11.729  -7.676  1.00  0.00     0.184 HD
BRANCH  24  26
HETATM   26  S1  UNL     1     -25.615  13.949  -7.574  1.00  0.00     0.211 S
HETATM   27  O3  UNL     1     -24.404  14.449  -8.360  1.00  0.00    -0.578 OA
HETATM   28  O4  UNL     1     -25.531  14.672  -6.259  1.00  0.00    -0.578 OA
HETATM   29  O5  UNL     1     -27.040  14.432  -8.360  1.00  0.00    -0.578 OA
ENDBRANCH  24  26
ENDBRANCH  21  22
ENDBRANCH  20  21
ENDBRANCH  18  20
ENDBRANCH  17  18
TORSDOF 5
ENDMDL