MODEL 1
REMARK VINA RESULT: -7.474347637      0.000      0.000
REMARK  8 active torsions:
REMARK  status: ('A' for Active; 'I' for Inactive)
REMARK    1  A    between atoms: C2_2  and  C3_3
REMARK    2  A    between atoms: C4_4  and  C5_5
REMARK    3  A    between atoms: C11_12  and  N1_13
REMARK    4  A    between atoms: C16_18  and  C17_19
REMARK    5  A    between atoms: C19_21  and  O2_22
REMARK    6  A    between atoms: C22_26  and  C23_27
REMARK    7  A    between atoms: C23_27  and  O3_28
REMARK    8  A    between atoms: C24_30  and  O4_31
ROOT
HETATM    1  C5  UNL     1     -24.892   4.599  -4.455  1.00  0.00     0.000 C
HETATM    2  C6  UNL     1     -24.188   3.260  -4.700  1.00  0.00     0.022 C
HETATM    3  C7  UNL     1     -23.879   5.660  -4.241  1.00  0.00     0.019 C
HETATM    4  C8  UNL     1     -23.832   6.369  -2.958  1.00  0.00     0.040 C
HETATM    5  C9  UNL     1     -25.118   6.442  -2.163  1.00  0.00     0.072 C
HETATM    6  C10 UNL     1     -25.993   7.395  -2.911  1.00  0.00     0.047 C
HETATM    7  O1  UNL     1     -24.747   6.805  -0.909  1.00  0.00    -0.345 OA
HETATM    8  C11 UNL     1     -25.561   7.547  -0.138  1.00  0.00     0.355 C
HETATM    9  C19 UNL     1     -26.953   7.049   0.013  1.00  0.00     0.175 C
HETATM   10  C20 UNL     1     -27.087   5.549  -0.019  1.00  0.00     0.037 C
HETATM   11  C21 UNL     1     -27.050   5.032  -1.393  1.00  0.00     0.020 C
HETATM   12  C22 UNL     1     -25.694   5.059  -2.093  1.00  0.00     0.039 C
HETATM   13  C24 UNL     1     -25.980   4.488  -3.468  1.00  0.00     0.143 C
ENDROOT
BRANCH   8  14
HETATM   14  N1  UNL     1     -24.886   7.790   1.131  1.00  0.00    -0.038 N
HETATM   15  C12 UNL     1     -25.375   8.996   1.740  1.00  0.00     0.276 C
HETATM   16  C13 UNL     1     -24.908   6.734   2.071  1.00  0.00     0.240 C
HETATM   17  C14 UNL     1     -23.998   7.322   3.168  1.00  0.00     0.030 C
HETATM   18  C15 UNL     1     -22.918   7.961   2.294  1.00  0.00     0.035 C
HETATM   19  C16 UNL     1     -23.445   7.873   0.878  1.00  0.00     0.193 C
BRANCH  19  20
HETATM   20  C17 UNL     1     -23.075   9.060   0.047  1.00  0.00     0.029 C
HETATM   21  C18 UNL     1     -21.802   8.681  -0.709  1.00  0.00     0.007 C
ENDBRANCH  19  20
ENDBRANCH   8  14
BRANCH   9  22
HETATM   22  O2  UNL     1     -27.584   7.588   1.159  1.00  0.00    -0.391 OA
ATOM     23  H2  UNL     1     -28.455   7.231   1.284  1.00  0.00     0.210 HD
ENDBRANCH   9  22
BRANCH  12  24
HETATM   24  C23 UNL     1     -24.830   4.124  -1.284  1.00  0.00     0.179 C
BRANCH  24  25
HETATM   25  O3  UNL     1     -25.396   2.936  -0.921  1.00  0.00    -0.400 OA
ATOM     26  H3  UNL     1     -24.830   2.174  -0.946  1.00  0.00     0.209 HD
ENDBRANCH  24  25
ENDBRANCH  12  24
BRANCH  13  27
HETATM   27  O4  UNL     1     -26.304   3.148  -3.246  1.00  0.00    -0.394 OA
ATOM     28  H4  UNL     1     -25.914   2.841  -2.435  1.00  0.00     0.210 HD
ENDBRANCH  13  27
BRANCH   1  29
HETATM   29  C4  UNL     1     -25.560   4.897  -5.782  1.00  0.00    -0.019 C
HETATM   30  C3  UNL     1     -25.350   6.087  -6.326  1.00  0.00    -0.030 C
BRANCH  30  31
HETATM   31  C2  UNL     1     -25.958   6.476  -7.623  1.00  0.00     0.022 C
HETATM   32  C1  UNL     1     -25.299   7.769  -8.111  1.00  0.00     0.009 C
ENDBRANCH  30  31
ENDBRANCH   1  29
TORSDOF 8
ENDMDL