MODEL 2
REMARK VINA RESULT: -8.897459132      1.298      1.633
REMARK  8 active torsions:
REMARK  status: ('A' for Active; 'I' for Inactive)
REMARK    1  A    between atoms: C4_4  and  O1_5
REMARK    2  A    between atoms: C13_16  and  O3_17
REMARK    3  A    between atoms: C17_22  and  C19_24
REMARK    4  A    between atoms: C19_24  and  C20_25
REMARK    5  A    between atoms: C20_25  and  C21_26
REMARK    6  A    between atoms: C21_26  and  C22_27
REMARK    7  A    between atoms: C22_27  and  C23_28
REMARK    8  A    between atoms: C23_28  and  C24_29
ROOT
HETATM    1  C1  UNL     1     -27.723  10.486  -6.307  1.00  0.00     0.016 C
HETATM    2  C2  UNL     1     -26.323  10.254  -6.803  1.00  0.00    -0.027 C
HETATM    3  C3  UNL     1     -26.300  10.415  -8.319  1.00  0.00     0.042 C
HETATM    4  C4  UNL     1     -26.972  11.697  -8.745  1.00  0.00     0.126 C
HETATM    5  C5  UNL     1     -26.786  12.824  -7.788  1.00  0.00     0.110 C
HETATM    6  C6  UNL     1     -25.779  12.599  -6.748  1.00  0.00     0.134 C
HETATM    7  O2  UNL     1     -25.242  13.575  -6.208  1.00  0.00    -0.297 OA
HETATM    8  C7  UNL     1     -25.329  11.262  -6.269  1.00  0.00     0.064 C
HETATM    9  C8  UNL     1     -25.294  11.257  -4.780  1.00  0.00     0.013 C
HETATM   10  C9  UNL     1     -25.689   9.959  -4.160  1.00  0.00     0.006 C
HETATM   11  C10 UNL     1     -25.347   8.755  -5.021  1.00  0.00    -0.004 C
HETATM   12  C11 UNL     1     -25.899   8.877  -6.421  1.00  0.00     0.001 C
HETATM   13  C12 UNL     1     -24.902   8.273  -7.379  1.00  0.00     0.037 C
HETATM   14  C13 UNL     1     -25.001   6.746  -7.247  1.00  0.00     0.119 C
HETATM   15  C14 UNL     1     -24.426   6.309  -5.909  1.00  0.00     0.037 C
HETATM   16  C15 UNL     1     -25.434   6.258  -4.836  1.00  0.00     0.002 A
HETATM   17  C16 UNL     1     -25.916   7.562  -4.336  1.00  0.00     0.003 A
HETATM   18  C17 UNL     1     -25.145   6.699  -3.394  1.00  0.00    -0.035 A
HETATM   19  C18 UNL     1     -23.720   7.003  -3.105  1.00  0.00     0.016 C
ENDROOT
BRANCH  18  20
HETATM   20  C19 UNL     1     -25.986   5.939  -2.399  1.00  0.00     0.010 C
BRANCH  20  21
HETATM   21  C20 UNL     1     -26.035   6.317  -0.998  1.00  0.00     0.001 C
BRANCH  21  22
HETATM   22  C21 UNL     1     -26.811   5.457  -0.045  1.00  0.00     0.001 C
BRANCH  22  23
HETATM   23  C22 UNL     1     -27.578   6.286   0.960  1.00  0.00     0.010 C
BRANCH  23  24
HETATM   24  C23 UNL     1     -26.782   7.373   1.611  1.00  0.00     0.113 C
BRANCH  24  25
HETATM   25  C24 UNL     1     -25.770   6.928   2.575  1.00  0.00     0.172 C
HETATM   26  O4  UNL     1     -25.941   6.205   3.571  1.00  0.00    -0.648 OA
HETATM   27  O5  UNL     1     -24.463   7.364   2.350  1.00  0.00    -0.648 OA
ENDBRANCH  24  25
ENDBRANCH  23  24
ENDBRANCH  22  23
ENDBRANCH  21  22
ENDBRANCH  20  21
ENDBRANCH  18  20
BRANCH  14  28
HETATM   28  O3  UNL     1     -26.312   6.393  -7.419  1.00  0.00    -0.396 OA
ATOM     29  H3  UNL     1     -26.480   5.625  -6.887  1.00  0.00     0.210 HD
ENDBRANCH  14  28
BRANCH   4  30
HETATM   30  O1  UNL     1     -26.395  12.085  -9.976  1.00  0.00    -0.395 OA
ATOM     31  H1  UNL     1     -27.054  11.960 -10.648  1.00  0.00     0.210 HD
ENDBRANCH   4  30
TORSDOF 8
ENDMDL