MODEL 4
REMARK VINA RESULT: -7.789203492      3.874      6.811
REMARK  7 active torsions:
REMARK  status: ('A' for Active; 'I' for Inactive)
REMARK    1  A    between atoms: C2_2  and  C3_3
REMARK    2  A    between atoms: C2_2  and  C22_26
REMARK       I    between atoms: C3_3  and  N1_5
REMARK    3  A    between atoms: N1_5  and  C4_7
REMARK    4  A    between atoms: C4_7  and  C6_9
REMARK    5  A    between atoms: C4_7  and  C12_16
REMARK    6  A    between atoms: C22_26  and  N3_27
REMARK    7  A    between atoms: C22_26  and  C23_31
ROOT
HETATM    1  C4  UNL     1     -24.503   5.533  -4.383  1.00  0.00     0.040 C
HETATM    2  C5  UNL     1     -22.949   5.581  -4.512  1.00  0.00     0.039 C
ENDROOT
BRANCH   1   3
HETATM    3  N1  UNL     1     -24.860   6.580  -3.453  1.00  0.00    -0.351 N
HETATM    4  C3  UNL     1     -24.022   7.137  -2.451  1.00  0.00     0.224 C
HETATM    5  O1  UNL     1     -22.839   6.811  -2.229  1.00  0.00    -0.273 OA
ATOM      6  H1  UNL     1     -25.806   6.956  -3.523  1.00  0.00     0.163 HD
BRANCH   4   7
HETATM    7  C2  UNL     1     -24.578   8.206  -1.577  1.00  0.00     0.105 C
HETATM    8  C1  UNL     1     -24.690   9.521  -2.317  1.00  0.00     0.022 C
BRANCH   7   9
HETATM    9  C22 UNL     1     -23.739   8.397  -0.331  1.00  0.00     0.206 C
BRANCH   9  10
HETATM   10  N3  UNL     1     -22.852   9.526  -0.600  1.00  0.00    -0.073 N
ATOM     11  H33 UNL     1     -22.395   9.474  -1.511  1.00  0.00     0.274 HD
ATOM     12  H32 UNL     1     -23.349  10.402  -0.760  1.00  0.00     0.274 HD
ATOM     13  H31 UNL     1     -22.197   9.570   0.180  1.00  0.00     0.274 HD
ENDBRANCH   9  10
BRANCH   9  14
HETATM   14  C23 UNL     1     -24.645   8.839   0.809  1.00  0.00     0.119 C
HETATM   15  S1  UNL     1     -25.399   7.338   1.523  1.00  0.00    -0.096 SA
ENDBRANCH   9  14
ENDBRANCH   7   9
ENDBRANCH   4   7
ENDBRANCH   1   3
BRANCH   1  16
HETATM   16  C6  UNL     1     -24.805   4.226  -3.822  1.00  0.00     0.017 C
HETATM   17  C7  UNL     1     -23.720   3.199  -3.695  1.00  0.00     0.037 C
HETATM   18  C8  UNL     1     -24.413   1.852  -3.543  1.00  0.00     0.272 C
HETATM   19  N2  UNL     1     -25.853   1.934  -3.656  1.00  0.00     0.084 N
HETATM   20  C9  UNL     1     -26.366   0.600  -3.401  1.00  0.00     0.309 C
HETATM   21  C10 UNL     1     -26.416   2.802  -2.645  1.00  0.00     0.272 C
HETATM   22  C11 UNL     1     -25.645   4.133  -2.585  1.00  0.00     0.037 C
ENDBRANCH   1  16
BRANCH   1  23
HETATM   23  C12 UNL     1     -25.006   5.895  -5.735  1.00  0.00    -0.014 C
HETATM   24  C13 UNL     1     -23.852   5.700  -6.704  1.00  0.00     0.016 C
HETATM   25  C14 UNL     1     -24.235   6.036  -8.126  1.00  0.00    -0.013 C
HETATM   26  C15 UNL     1     -25.311   5.020  -8.520  1.00  0.00     0.009 C
HETATM   27  C19 UNL     1     -24.726   7.434  -8.308  1.00  0.00     0.009 C
HETATM   28  C16 UNL     1     -26.486   5.299  -7.658  1.00  0.00    -0.013 C
HETATM   29  C17 UNL     1     -26.983   6.732  -7.778  1.00  0.00     0.009 C
HETATM   30  C21 UNL     1     -26.217   5.106  -6.171  1.00  0.00     0.016 C
HETATM   31  C18 UNL     1     -25.891   7.624  -7.328  1.00  0.00    -0.013 C
HETATM   32  C20 UNL     1     -25.353   7.355  -5.935  1.00  0.00     0.016 C
ENDBRANCH   1  23
TORSDOF 7
ENDMDL