MODEL 5
REMARK VINA RESULT: -8.955308465      2.502      9.251
REMARK  6 active torsions:
REMARK  status: ('A' for Active; 'I' for Inactive)
REMARK    1  A    between atoms: C6_7  and  N1_8
REMARK       I    between atoms: N1_8  and  C7_10
REMARK    2  A    between atoms: C7_10  and  C8_12
REMARK    3  A    between atoms: C8_12  and  C9_13
REMARK    4  A    between atoms: C9_13  and  C10_14
REMARK       I    between atoms: C10_14  and  N2_16
REMARK    5  A    between atoms: N2_16  and  C11_18
REMARK    6  A    between atoms: C18_25  and  C19_26
ROOT
HETATM    1  N1  UNL     1     -25.657   6.663  -2.970  1.00  0.00    -0.320 N
ATOM      2  H1  UNL     1     -26.553   6.281  -2.666  1.00  0.00     0.169 HD
HETATM    3  C7  UNL     1     -24.430   6.330  -2.284  1.00  0.00     0.223 C
HETATM    4  O1  UNL     1     -23.373   6.836  -2.714  1.00  0.00    -0.273 OA
ENDROOT
BRANCH   1   5
HETATM    5  C6  UNL     1     -25.570   7.551  -4.096  1.00  0.00     0.093 A
HETATM    6  S1  UNL     1     -25.697   9.276  -4.022  1.00  0.00    -0.075 SA
HETATM    7  C5  UNL     1     -25.510   9.627  -5.655  1.00  0.00    -0.008 A
HETATM    8  C4  UNL     1     -25.478  10.886  -6.508  1.00  0.00     0.047 C
HETATM    9  C20 UNL     1     -25.349   8.395  -6.252  1.00  0.00    -0.026 A
HETATM   10  C3  UNL     1     -26.422  10.731  -7.672  1.00  0.00     0.009 C
HETATM   11  C2  UNL     1     -26.318   9.377  -8.317  1.00  0.00    -0.014 C
HETATM   12  C1  UNL     1     -27.585   8.564  -8.219  1.00  0.00     0.010 C
HETATM   13  C21 UNL     1     -25.174   8.561  -7.749  1.00  0.00     0.045 C
HETATM   14  C18 UNL     1     -25.381   7.313  -5.434  1.00  0.00     0.070 A
BRANCH  14  15
HETATM   15  C19 UNL     1     -25.218   5.895  -5.897  1.00  0.00     0.268 C
HETATM   16  N3  UNL     1     -26.208   5.248  -6.684  1.00  0.00    -0.057 NA
HETATM   17  O3  UNL     1     -24.204   5.227  -5.609  1.00  0.00    -0.271 OA
ENDBRANCH  14  15
ENDBRANCH   1   5
BRANCH   3  18
HETATM   18  C8  UNL     1     -24.448   5.424  -1.121  1.00  0.00     0.112 C
BRANCH  18  19
HETATM   19  C9  UNL     1     -25.752   4.672  -1.125  1.00  0.00     0.112 C
BRANCH  19  20
HETATM   20  C10 UNL     1     -25.575   3.231  -1.371  1.00  0.00     0.218 C
HETATM   21  O2  UNL     1     -26.594   2.494  -1.293  1.00  0.00    -0.274 OA
HETATM   22  N2  UNL     1     -24.288   2.736  -1.681  1.00  0.00    -0.356 N
ATOM     23  H2  UNL     1     -23.498   3.379  -1.730  1.00  0.00     0.162 HD
BRANCH  22  24
HETATM   24  C11 UNL     1     -24.081   1.344  -1.925  1.00  0.00     0.084 C
HETATM   25  C12 UNL     1     -23.866   0.521  -0.691  1.00  0.00     0.025 C
HETATM   26  C13 UNL     1     -22.553  -0.194  -0.659  1.00  0.00     0.002 C
HETATM   27  C14 UNL     1     -22.243  -0.974  -1.897  1.00  0.00     0.004 C
HETATM   28  C15 UNL     1     -22.867  -0.374  -3.143  1.00  0.00    -0.017 C
HETATM   29  C16 UNL     1     -22.019  -0.643  -4.341  1.00  0.00     0.010 C
HETATM   30  C17 UNL     1     -22.915   1.138  -2.898  1.00  0.00     0.029 C
ENDBRANCH  22  24
ENDBRANCH  19  20
ENDBRANCH  18  19
ENDBRANCH   3  18
TORSDOF 6
ENDMDL