MODEL 2
REMARK VINA RESULT: -7.983551120      1.613      2.155
REMARK  13 active torsions:
REMARK  status: ('A' for Active; 'I' for Inactive)
REMARK    1  A    between atoms: C2_2  and  C4_4
REMARK    2  A    between atoms: C4_4  and  C5_5
REMARK    3  A    between atoms: C5_5  and  C6_6
REMARK    4  A    between atoms: C5_5  and  C8_10
REMARK    5  A    between atoms: C6_6  and  C7_7
REMARK    6  A    between atoms: C8_10  and  C9_11
REMARK    7  A    between atoms: C8_10  and  N1_15
REMARK    8  A    between atoms: C9_11  and  C10_12
REMARK       I    between atoms: N1_15  and  C13_17
REMARK    9  A    between atoms: C13_17  and  C14_19
REMARK       I    between atoms: N3_26  and  C18_28
REMARK       I    between atoms: C18_28  and  N4_30
REMARK   10  A    between atoms: N4_30  and  C19_32
REMARK   11  A    between atoms: C19_32  and  C20_33
REMARK   12  A    between atoms: C20_33  and  C21_34
REMARK   13  A    between atoms: C21_34  and  C22_35
ROOT
HETATM    1  C14 UNL     1      21.934  12.251  22.953  1.00  0.00     0.306 C
HETATM    2  N2  UNL     1      22.833  11.394  22.233  1.00  0.00    -0.301 N
HETATM    3  C15 UNL     1      23.575  10.359  21.627  1.00  0.00     0.242 C
HETATM    4  O4  UNL     1      23.337   9.131  21.685  1.00  0.00    -0.272 OA
HETATM    5  C16 UNL     1      24.741  10.884  20.864  1.00  0.00     0.198 C
HETATM    6 BR1  UNL     1      24.427  10.689  18.967  1.00  0.00    -0.075 Br
HETATM    7  C17 UNL     1      24.785  12.287  21.285  1.00  0.00     0.052 C
HETATM    8  N3  UNL     1      25.803  13.058  21.233  1.00  0.00    -0.312 N
ATOM      9  H3  UNL     1      25.657  14.010  21.570  1.00  0.00     0.170 HD
HETATM   10  C18 UNL     1      27.086  12.765  20.775  1.00  0.00     0.320 C
HETATM   11  O5  UNL     1      27.269  11.835  19.952  1.00  0.00    -0.247 OA
HETATM   12  N4  UNL     1      28.226  13.484  21.205  1.00  0.00    -0.343 N
ATOM     13  H4  UNL     1      28.099  14.242  21.875  1.00  0.00     0.164 HD
HETATM   14  C23 UNL     1      23.466  12.652  21.777  1.00  0.00     0.262 C
HETATM   15  S1  UNL     1      23.370  13.174  23.468  1.00  0.00     0.202 S
HETATM   16  O6  UNL     1      23.145  14.616  23.690  1.00  0.00    -0.223 OA
HETATM   17  O7  UNL     1      24.315  12.474  24.362  1.00  0.00    -0.223 OA
ENDROOT
BRANCH   1  18
HETATM   18  C13 UNL     1      21.104  11.719  24.014  1.00  0.00     0.256 C
HETATM   19  N1  UNL     1      19.975  12.369  24.544  1.00  0.00    -0.353 N
ATOM     20  H1  UNL     1      19.710  13.275  24.158  1.00  0.00     0.163 HD
HETATM   21  O3  UNL     1      21.468  10.576  24.465  1.00  0.00    -0.270 OA
BRANCH  19  22
HETATM   22  C8  UNL     1      19.152  11.797  25.640  1.00  0.00     0.089 C
BRANCH  22  23
HETATM   23  C5  UNL     1      17.794  11.461  25.151  1.00  0.00     0.018 C
BRANCH  23  24
HETATM   24  C4  UNL     1      17.551  10.475  24.107  1.00  0.00     0.011 C
BRANCH  24  25
HETATM   25  C2  UNL     1      16.561   9.382  24.248  1.00  0.00    -0.022 C
HETATM   26  C1  UNL     1      15.437   9.751  23.212  1.00  0.00     0.009 C
HETATM   27  C3  UNL     1      15.904   9.293  25.580  1.00  0.00     0.009 C
ENDBRANCH  24  25
ENDBRANCH  23  24
BRANCH  23  28
HETATM   28  C6  UNL     1      17.073  12.755  24.697  1.00  0.00     0.119 C
BRANCH  28  29
HETATM   29  C7  UNL     1      15.738  12.895  25.299  1.00  0.00     0.172 C
HETATM   30  O1  UNL     1      15.549  12.851  26.524  1.00  0.00    -0.648 OA
HETATM   31  O2  UNL     1      14.654  13.086  24.458  1.00  0.00    -0.648 OA
ENDBRANCH  28  29
ENDBRANCH  23  28
ENDBRANCH  22  23
BRANCH  22  32
HETATM   32  C9  UNL     1      19.345  12.647  26.817  1.00  0.00     0.029 C
BRANCH  32  33
HETATM   33  C10 UNL     1      20.258  12.034  27.872  1.00  0.00    -0.021 C
HETATM   34  C11 UNL     1      20.136  10.532  27.729  1.00  0.00     0.009 C
HETATM   35  C12 UNL     1      21.684  12.418  27.723  1.00  0.00     0.009 C
ENDBRANCH  32  33
ENDBRANCH  22  32
ENDBRANCH  19  22
ENDBRANCH   1  18
BRANCH  12  36
HETATM   36  C19 UNL     1      29.563  13.195  20.739  1.00  0.00     0.124 C
BRANCH  36  37
HETATM   37  C20 UNL     1      30.215  14.424  20.189  1.00  0.00     0.020 C
BRANCH  37  38
HETATM   38  C21 UNL     1      29.243  15.300  19.466  1.00  0.00     0.012 C
BRANCH  38  39
HETATM   39  C22 UNL     1      29.800  15.845  18.182  1.00  0.00     0.085 C
HETATM   40 BR2  UNL     1      31.678  15.379  18.095  1.00  0.00    -0.097 Br
ENDBRANCH  38  39
ENDBRANCH  37  38
ENDBRANCH  36  37
ENDBRANCH  12  36
TORSDOF 13
ENDMDL