MODEL 2
REMARK VINA RESULT: -9.372224039      4.225     10.864
REMARK  14 active torsions:
REMARK  status: ('A' for Active; 'I' for Inactive)
REMARK    1  A    between atoms: C2_2  and  C3_3
REMARK    2  A    between atoms: N1_6  and  C5_7
REMARK    3  A    between atoms: C5_7  and  C6_8
REMARK       I    between atoms: C6_8  and  N2_10
REMARK    4  A    between atoms: N2_10  and  C7_12
REMARK    5  A    between atoms: C7_12  and  C9_14
REMARK    6  A    between atoms: C7_12  and  C16_21
REMARK    7  A    between atoms: C9_14  and  C10_15
REMARK    8  A    between atoms: C16_21  and  O3_22
REMARK    9  A    between atoms: C16_21  and  C17_24
REMARK       I    between atoms: N3_30  and  C21_31
REMARK       I    between atoms: C21_31  and  N4_33
REMARK   10  A    between atoms: N4_33  and  C22_35
REMARK   11  A    between atoms: C22_35  and  C23_36
REMARK   12  A    between atoms: C22_35  and  C30_45
REMARK   13  A    between atoms: C23_36  and  C24_37
REMARK   14  A    between atoms: C24_37  and  C25_38
REMARK       I    between atoms: C25_38  and  N5_40
ROOT
HETATM    1  C3  UNL     1      21.014  11.956  25.954  1.00  0.00     0.180 C
HETATM    2  C4  UNL     1      20.074  11.923  27.093  1.00  0.00     0.243 C
HETATM    3  O1  UNL     1      19.345  10.936  27.267  1.00  0.00    -0.271 OA
HETATM    4  N1  UNL     1      19.980  13.013  28.011  1.00  0.00    -0.340 N
HETATM    5  C19 UNL     1      21.186  13.778  28.265  1.00  0.00     0.146 C
HETATM    6  C20 UNL     1      22.401  13.109  27.644  1.00  0.00     0.148 C
HETATM    7  N3  UNL     1      22.170  12.803  26.252  1.00  0.00    -0.319 N
HETATM    8  C21 UNL     1      22.951  13.267  25.176  1.00  0.00     0.319 C
HETATM    9  O4  UNL     1      22.610  12.965  23.988  1.00  0.00    -0.247 OA
HETATM   10  N4  UNL     1      24.121  14.064  25.313  1.00  0.00    -0.330 N
ATOM     11  H4  UNL     1      24.427  14.326  26.250  1.00  0.00     0.165 HD
ENDROOT
BRANCH   4  12
HETATM   12  C5  UNL     1      18.739  13.345  28.674  1.00  0.00     0.228 C
BRANCH  12  13
HETATM   13  C6  UNL     1      17.647  13.686  27.685  1.00  0.00     0.236 C
HETATM   14  O2  UNL     1      17.410  14.909  27.589  1.00  0.00    -0.272 OA
HETATM   15  N2  UNL     1      16.978  12.737  26.958  1.00  0.00    -0.345 N
ATOM     16  H2  UNL     1      17.241  11.764  27.114  1.00  0.00     0.163 HD
BRANCH  15  17
HETATM   17  C7  UNL     1      15.877  13.002  25.937  1.00  0.00     0.076 C
HETATM   18  C8  UNL     1      14.761  13.406  26.888  1.00  0.00     0.046 C
BRANCH  17  19
HETATM   19  C9  UNL     1      16.413  13.971  25.059  1.00  0.00     0.009 C
BRANCH  19  20
HETATM   20  C10 UNL     1      15.874  15.079  24.283  1.00  0.00    -0.081 C
HETATM   21  C11 UNL     1      14.480  15.245  23.898  1.00  0.00     0.034 C
HETATM   22  C12 UNL     1      14.152  16.517  23.146  1.00  0.00     0.004 C
HETATM   23  C13 UNL     1      15.415  17.192  22.633  1.00  0.00     0.001 C
HETATM   24  C14 UNL     1      16.133  17.595  23.901  1.00  0.00     0.004 C
HETATM   25  C15 UNL     1      16.608  16.397  24.596  1.00  0.00     0.034 C
ENDBRANCH  19  20
ENDBRANCH  17  19
BRANCH  17  26
HETATM   26  C16 UNL     1      15.649  11.599  25.520  1.00  0.00     0.188 C
BRANCH  26  27
HETATM   27  O3  UNL     1      14.332  11.258  26.086  1.00  0.00    -0.390 OA
ATOM     28  H3  UNL     1      14.248  10.322  25.943  1.00  0.00     0.210 HD
ENDBRANCH  26  27
BRANCH  26  29
HETATM   29  C17 UNL     1      15.797  10.809  24.372  1.00  0.00     0.138 C
HETATM   30  C18 UNL     1      15.045   9.442  24.787  1.00  0.00     0.053 C
HETATM   31 CL1  UNL     1      17.415  10.028  24.071  1.00  0.00    -0.099 Cl
HETATM   32 CL2  UNL     1      15.071  11.142  22.842  1.00  0.00    -0.099 Cl
ENDBRANCH  26  29
ENDBRANCH  17  26
ENDBRANCH  15  17
ENDBRANCH  12  13
ENDBRANCH   4  12
BRANCH   1  33
HETATM   33  C2  UNL     1      21.398  10.582  25.490  1.00  0.00     0.030 C
HETATM   34  C1  UNL     1      20.777  10.319  24.142  1.00  0.00     0.007 C
ENDBRANCH   1  33
BRANCH  10  35
HETATM   35  C22 UNL     1      24.901  14.523  24.170  1.00  0.00     0.176 C
BRANCH  35  36
HETATM   36  C23 UNL     1      26.216  13.822  24.069  1.00  0.00     0.044 C
BRANCH  36  37
HETATM   37  C24 UNL     1      26.750  13.640  22.690  1.00  0.00     0.105 C
BRANCH  37  38
HETATM   38  C25 UNL     1      27.951  12.799  22.700  1.00  0.00     0.219 C
HETATM   39  O5  UNL     1      28.840  12.828  23.575  1.00  0.00    -0.273 OA
HETATM   40  N5  UNL     1      28.125  11.861  21.619  1.00  0.00    -0.352 N
HETATM   41  C26 UNL     1      29.259  10.950  21.485  1.00  0.00     0.126 C
HETATM   42  C29 UNL     1      27.243  11.654  20.505  1.00  0.00     0.126 C
HETATM   43  C27 UNL     1      28.613   9.698  20.943  1.00  0.00     0.021 C
HETATM   44  C28 UNL     1      27.515  10.233  20.056  1.00  0.00     0.021 C
ENDBRANCH  37  38
ENDBRANCH  36  37
ENDBRANCH  35  36
BRANCH  35  45
HETATM   45  C30 UNL     1      25.181  15.987  24.293  1.00  0.00     0.254 C
HETATM   46  N6  UNL     1      26.389  16.391  24.909  1.00  0.00    -0.060 NA
HETATM   47  O6  UNL     1      24.405  16.884  23.879  1.00  0.00    -0.275 OA
ENDBRANCH  35  45
ENDBRANCH  10  35
TORSDOF 14
ENDMDL