MODEL 3
REMARK VINA RESULT: -9.422619705      2.946     10.779
REMARK  13 active torsions:
REMARK  status: ('A' for Active; 'I' for Inactive)
REMARK    1  A    between atoms: C2_2  and  N1_3
REMARK       I    between atoms: N1_3  and  C3_5
REMARK    2  A    between atoms: C3_5  and  C4_7
REMARK    3  A    between atoms: C4_7  and  N2_8
REMARK       I    between atoms: N2_8  and  C5_10
REMARK    4  A    between atoms: C5_10  and  C6_12
REMARK       I    between atoms: N3_17  and  C11_18
REMARK    5  A    between atoms: C11_18  and  C12_20
REMARK    6  A    between atoms: C12_20  and  N4_21
REMARK    7  A    between atoms: C12_20  and  C25_42
REMARK       I    between atoms: N4_21  and  C13_23
REMARK    8  A    between atoms: C13_23  and  C14_25
REMARK    9  A    between atoms: C14_25  and  C15_26
REMARK   10  A    between atoms: C15_26  and  C16_27
REMARK       I    between atoms: C16_27  and  N5_29
REMARK   11  A    between atoms: C20_33  and  C21_34
REMARK       I    between atoms: C21_34  and  N6_36
REMARK   12  A    between atoms: N6_36  and  C23_38
REMARK   13  A    between atoms: C23_38  and  C24_39
ROOT
HETATM    1  C12 UNL     1      25.117  12.276  20.323  1.00  0.00     0.184 C
ENDROOT
BRANCH   1   2
HETATM    2  C11 UNL     1      26.460  12.577  20.796  1.00  0.00     0.244 C
HETATM    3  N3  UNL     1      27.345  11.708  21.400  1.00  0.00    -0.337 N
HETATM    4  C6  UNL     1      28.631  12.015  21.992  1.00  0.00     0.179 C
HETATM    5  C10 UNL     1      27.094  10.245  21.361  1.00  0.00     0.127 C
HETATM    6  C7  UNL     1      29.637  11.824  20.877  1.00  0.00     0.035 C
HETATM    7  C8  UNL     1      29.232  10.584  20.105  1.00  0.00     0.004 C
HETATM    8  C9  UNL     1      28.464   9.613  20.974  1.00  0.00     0.020 C
HETATM    9  O3  UNL     1      26.846  13.792  20.622  1.00  0.00    -0.271 OA
BRANCH   4  10
HETATM   10  C5  UNL     1      28.746  13.242  22.756  1.00  0.00     0.241 C
HETATM   11  N2  UNL     1      27.803  13.825  23.622  1.00  0.00    -0.341 N
ATOM     12  H2  UNL     1      26.919  13.328  23.731  1.00  0.00     0.163 HD
HETATM   13  O2  UNL     1      29.854  13.882  22.633  1.00  0.00    -0.271 OA
BRANCH  11  14
HETATM   14  C4  UNL     1      27.947  15.030  24.361  1.00  0.00     0.114 C
HETATM   15  C29 UNL     1      26.861  15.198  25.412  1.00  0.00     0.041 C
HETATM   16  C30 UNL     1      25.804  16.040  24.737  1.00  0.00     0.003 C
HETATM   17  C31 UNL     1      26.579  16.988  23.866  1.00  0.00     0.003 C
HETATM   18  C32 UNL     1      27.771  16.212  23.418  1.00  0.00     0.041 C
BRANCH  14  19
HETATM   19  C3  UNL     1      29.233  15.196  25.070  1.00  0.00     0.246 C
HETATM   20  N1  UNL     1      30.289  15.990  24.573  1.00  0.00    -0.359 N
ATOM     21  H1  UNL     1      30.142  16.464  23.681  1.00  0.00     0.162 HD
HETATM   22  O1  UNL     1      29.426  14.619  26.165  1.00  0.00    -0.271 OA
BRANCH  20  23
HETATM   23  C2  UNL     1      31.545  16.181  25.221  1.00  0.00     0.118 C
HETATM   24  C1  UNL     1      32.730  15.974  24.327  1.00  0.00     0.026 C
ENDBRANCH  20  23
ENDBRANCH  14  19
ENDBRANCH  11  14
ENDBRANCH   4  10
ENDBRANCH   1   2
BRANCH   1  25
HETATM   25  N4  UNL     1      24.558  11.117  21.063  1.00  0.00    -0.347 N
HETATM   26  C13 UNL     1      23.367  11.204  21.811  1.00  0.00     0.218 C
HETATM   27  O4  UNL     1      22.760  12.299  21.842  1.00  0.00    -0.274 OA
ATOM     28  H4  UNL     1      25.053  10.226  21.028  1.00  0.00     0.163 HD
BRANCH  26  29
HETATM   29  C14 UNL     1      22.849  10.042  22.536  1.00  0.00     0.112 C
BRANCH  29  30
HETATM   30  C15 UNL     1      22.501  10.342  23.947  1.00  0.00     0.112 C
BRANCH  30  31
HETATM   31  C16 UNL     1      21.069  10.271  24.293  1.00  0.00     0.221 C
HETATM   32  O5  UNL     1      20.304   9.456  23.747  1.00  0.00    -0.273 OA
HETATM   33  N5  UNL     1      20.579  11.161  25.271  1.00  0.00    -0.339 N
HETATM   34  C17 UNL     1      21.331  12.166  25.980  1.00  0.00     0.127 C
HETATM   35  C20 UNL     1      19.230  11.232  25.759  1.00  0.00     0.179 C
HETATM   36  C18 UNL     1      20.779  12.083  27.401  1.00  0.00     0.022 C
HETATM   37  C19 UNL     1      19.408  11.515  27.258  1.00  0.00     0.037 C
BRANCH  35  38
HETATM   38  C21 UNL     1      18.467  12.342  25.172  1.00  0.00     0.242 C
HETATM   39  O6  UNL     1      19.013  13.406  24.756  1.00  0.00    -0.271 OA
HETATM   40  N6  UNL     1      17.067  12.265  25.042  1.00  0.00    -0.350 N
HETATM   41  C22 UNL     1      16.292  13.399  24.491  1.00  0.00     0.152 C
BRANCH  40  42
HETATM   42  C23 UNL     1      16.342  11.094  25.405  1.00  0.00     0.196 C
BRANCH  42  43
HETATM   43  C24 UNL     1      15.696  10.410  24.200  1.00  0.00     0.370 C
HETATM   44  F1  UNL     1      14.894   9.360  24.585  1.00  0.00    -0.213 F
HETATM   45  F2  UNL     1      16.744   9.969  23.394  1.00  0.00    -0.213 F
ENDBRANCH  42  43
ENDBRANCH  40  42
ENDBRANCH  35  38
ENDBRANCH  30  31
ENDBRANCH  29  30
ENDBRANCH  26  29
ENDBRANCH   1  25
BRANCH   1  46
HETATM   46  C25 UNL     1      25.059  11.876  18.860  1.00  0.00    -0.022 C
HETATM   47  C26 UNL     1      26.363  11.960  18.145  1.00  0.00     0.017 C
HETATM   48  C27 UNL     1      24.069  12.776  18.119  1.00  0.00     0.017 C
HETATM   49  C28 UNL     1      24.518  10.469  18.725  1.00  0.00     0.017 C
ENDBRANCH   1  46
TORSDOF 13
ENDMDL