MODEL 1
REMARK VINA RESULT: -8.440905599      0.000      0.000
REMARK  14 active torsions:
REMARK  status: ('A' for Active; 'I' for Inactive)
REMARK    1  A    between atoms: N1_2  and  C2_3
REMARK       I    between atoms: N1_2  and  C13_16
REMARK    2  A    between atoms: C2_3  and  C3_4
REMARK    3  A    between atoms: C3_4  and  C4_5
REMARK    4  A    between atoms: C4_5  and  C5_6
REMARK    5  A    between atoms: C5_6  and  C6_7
REMARK    6  A    between atoms: C6_7  and  C7_8
REMARK    7  A    between atoms: C13_16  and  C14_18
REMARK    8  A    between atoms: C14_18  and  C15_19
REMARK    9  A    between atoms: C14_18  and  N5_30
REMARK   10  A    between atoms: C15_19  and  C16_20
REMARK   11  A    between atoms: C16_20  and  C17_21
REMARK   12  A    between atoms: C17_21  and  C18_22
REMARK   13  A    between atoms: C18_22  and  N2_23
REMARK       I    between atoms: C19_25  and  N3_26
REMARK       I    between atoms: N5_30  and  C20_32
REMARK       I    between atoms: C20_32  and  N6_34
REMARK   14  A    between atoms: C22_37  and  C23_39
ROOT
HETATM    1  C14 UNL     1      28.757  13.344  22.508  1.00  0.00     0.178 C
ENDROOT
BRANCH   1   2
HETATM    2  C13 UNL     1      29.183  12.550  21.345  1.00  0.00     0.242 C
HETATM    3  N1  UNL     1      29.136  11.140  21.548  1.00  0.00    -0.355 N
HETATM    4  C1  UNL     1      29.331  10.542  22.852  1.00  0.00     0.152 C
HETATM    5  O3  UNL     1      29.560  12.967  20.342  1.00  0.00    -0.271 OA
BRANCH   3   6
HETATM    6  C2  UNL     1      28.826  10.348  20.359  1.00  0.00     0.125 C
BRANCH   6   7
HETATM    7  C3  UNL     1      27.381  10.083  20.383  1.00  0.00     0.020 C
BRANCH   7   8
HETATM    8  C4  UNL     1      26.773  10.551  19.048  1.00  0.00     0.003 C
BRANCH   8   9
HETATM    9  C5  UNL     1      26.443  11.994  19.221  1.00  0.00     0.020 C
BRANCH   9  10
HETATM   10  C6  UNL     1      24.942  12.180  19.422  1.00  0.00     0.048 C
HETATM   11  C8  UNL     1      24.487  10.839  18.733  1.00  0.00     0.020 C
HETATM   12  C9  UNL     1      23.189  10.327  19.193  1.00  0.00     0.001 C
HETATM   13  C10 UNL     1      22.926  10.483  20.661  1.00  0.00     0.000 C
HETATM   14  C11 UNL     1      22.997  11.980  20.943  1.00  0.00     0.001 C
HETATM   15  C12 UNL     1      24.426  12.398  20.712  1.00  0.00     0.020 C
BRANCH  10  16
HETATM   16  C7  UNL     1      24.499  13.218  18.406  1.00  0.00     0.181 C
HETATM   17  O1  UNL     1      23.391  13.471  18.114  1.00  0.00    -0.647 OA
HETATM   18  O2  UNL     1      25.561  13.918  17.768  1.00  0.00    -0.647 OA
ENDBRANCH  10  16
ENDBRANCH   9  10
ENDBRANCH   8   9
ENDBRANCH   7   8
ENDBRANCH   6   7
ENDBRANCH   3   6
ENDBRANCH   1   2
BRANCH   1  19
HETATM   19  C15 UNL     1      27.535  14.151  21.951  1.00  0.00     0.035 C
BRANCH  19  20
HETATM   20  C16 UNL     1      26.680  14.574  23.074  1.00  0.00     0.004 C
BRANCH  20  21
HETATM   21  C17 UNL     1      26.262  13.364  23.899  1.00  0.00     0.020 C
BRANCH  21  22
HETATM   22  C18 UNL     1      24.696  13.606  24.205  1.00  0.00     0.122 C
BRANCH  22  23
HETATM   23  N2  UNL     1      24.136  12.283  24.236  1.00  0.00    -0.365 N
HETATM   24  C19 UNL     1      22.860  12.189  24.610  1.00  0.00     0.181 C
HETATM   25  N3  UNL     1      22.282  13.374  25.004  1.00  0.00    -0.374 N
HETATM   26  N4  UNL     1      22.454  10.830  24.438  1.00  0.00    -0.064 NA
ATOM     27  H32 UNL     1      22.572  14.344  25.126  1.00  0.00     0.158 HD
ATOM     28  H31 UNL     1      21.306  13.302  25.290  1.00  0.00     0.158 HD
ATOM     29  H2  UNL     1      24.686  11.461  23.984  1.00  0.00     0.162 HD
ENDBRANCH  22  23
ENDBRANCH  21  22
ENDBRANCH  20  21
ENDBRANCH  19  20
ENDBRANCH   1  19
BRANCH   1  30
HETATM   30  N5  UNL     1      29.690  14.093  23.109  1.00  0.00    -0.329 N
HETATM   31  C20 UNL     1      30.372  15.217  22.698  1.00  0.00     0.326 C
HETATM   32  O4  UNL     1      30.081  15.704  21.570  1.00  0.00    -0.247 OA
HETATM   33  N6  UNL     1      31.279  15.815  23.633  1.00  0.00    -0.257 N
HETATM   34  C21 UNL     1      31.327  16.074  24.958  1.00  0.00     0.251 A
HETATM   35  C24 UNL     1      32.397  16.609  23.316  1.00  0.00     0.064 A
HETATM   36  O5  UNL     1      30.770  15.899  26.028  1.00  0.00    -0.271 OA
HETATM   37  C22 UNL     1      32.536  16.985  24.682  1.00  0.00     0.133 A
HETATM   38 BR1  UNL     1      31.984  18.862  24.946  1.00  0.00    -0.071 Br
HETATM   39  C25 UNL     1      33.429  15.496  22.869  1.00  0.00     0.041 C
HETATM   40  C26 UNL     1      32.360  17.745  22.348  1.00  0.00     0.041 C
ATOM     41  H5  UNL     1      29.944  13.771  24.043  1.00  0.00     0.165 HD
BRANCH  37  42
HETATM   42  C23 UNL     1      33.715  16.519  25.459  1.00  0.00     0.118 C
HETATM   43 BR2  UNL     1      34.690  18.067  26.180  1.00  0.00    -0.094 Br
ENDBRANCH  37  42
ENDBRANCH   1  30
TORSDOF 14
ENDMDL