MODEL 2
REMARK VINA RESULT: -8.318174700      4.255     10.345
REMARK  13 active torsions:
REMARK  status: ('A' for Active; 'I' for Inactive)
REMARK    1  A    between atoms: C2_2  and  C4_4
REMARK    2  A    between atoms: C4_4  and  C5_5
REMARK    3  A    between atoms: C5_5  and  C6_6
REMARK    4  A    between atoms: C5_5  and  N4_28
REMARK       I    between atoms: C6_6  and  N1_8
REMARK    5  A    between atoms: C10_12  and  C11_13
REMARK       I    between atoms: C11_13  and  N2_15
REMARK    6  A    between atoms: N2_15  and  C12_17
REMARK    7  A    between atoms: C12_17  and  C13_18
REMARK    8  A    between atoms: C12_17  and  C16_25
REMARK       I    between atoms: C13_18  and  N3_20
REMARK    9  A    between atoms: N3_20  and  C14_22
REMARK   10  A    between atoms: C14_22  and  C15_23
REMARK   11  A    between atoms: C20_30  and  C21_31
REMARK       I    between atoms: C21_31  and  N5_33
REMARK   12  A    between atoms: N5_33  and  C22_35
REMARK   13  A    between atoms: C26_39  and  C27_40
ROOT
HETATM    1  C5  UNL     1      25.741  13.732  22.659  1.00  0.00     0.179 C
ENDROOT
BRANCH   1   2
HETATM    2  C4  UNL     1      26.587  12.949  21.736  1.00  0.00     0.039 C
BRANCH   2   3
HETATM    3  C2  UNL     1      26.621  13.201  20.300  1.00  0.00    -0.020 C
HETATM    4  C1  UNL     1      26.596  12.042  19.368  1.00  0.00     0.009 C
HETATM    5  C3  UNL     1      27.961  13.919  20.026  1.00  0.00     0.009 C
ENDBRANCH   2   3
ENDBRANCH   1   2
BRANCH   1   6
HETATM    6  C6  UNL     1      24.742  12.965  23.443  1.00  0.00     0.243 C
HETATM    7  O1  UNL     1      24.771  13.062  24.695  1.00  0.00    -0.271 OA
HETATM    8  N1  UNL     1      23.744  12.130  22.886  1.00  0.00    -0.337 N
HETATM    9  C7  UNL     1      23.500  11.899  21.456  1.00  0.00     0.127 C
HETATM   10  C10 UNL     1      22.772  11.354  23.640  1.00  0.00     0.179 C
HETATM   11  C8  UNL     1      22.899  10.508  21.392  1.00  0.00     0.022 C
HETATM   12  C9  UNL     1      22.089  10.455  22.657  1.00  0.00     0.037 C
BRANCH  10  13
HETATM   13  C11 UNL     1      21.827  12.212  24.369  1.00  0.00     0.241 C
HETATM   14  O2  UNL     1      21.387  13.248  23.830  1.00  0.00    -0.271 OA
HETATM   15  N2  UNL     1      21.409  11.883  25.675  1.00  0.00    -0.346 N
ATOM     16  H2  UNL     1      21.774  11.036  26.109  1.00  0.00     0.163 HD
BRANCH  15  17
HETATM   17  C12 UNL     1      20.461  12.719  26.438  1.00  0.00     0.180 C
BRANCH  17  18
HETATM   18  C13 UNL     1      19.090  12.353  26.072  1.00  0.00     0.240 C
HETATM   19  O3  UNL     1      18.345  13.295  25.612  1.00  0.00    -0.271 OA
HETATM   20  N3  UNL     1      18.551  11.068  26.196  1.00  0.00    -0.359 N
ATOM     21  H3  UNL     1      19.142  10.322  26.565  1.00  0.00     0.162 HD
BRANCH  20  22
HETATM   22  C14 UNL     1      17.186  10.753  25.820  1.00  0.00     0.133 C
BRANCH  22  23
HETATM   23  C15 UNL     1      17.053  10.017  24.531  1.00  0.00     0.104 C
HETATM   24 BR1  UNL     1      15.452   8.911  24.528  1.00  0.00    -0.095 Br
ENDBRANCH  22  23
ENDBRANCH  20  22
ENDBRANCH  17  18
BRANCH  17  25
HETATM   25  C16 UNL     1      20.705  12.464  27.912  1.00  0.00     0.009 C
HETATM   26  C17 UNL     1      19.824  13.317  28.788  1.00  0.00     0.012 C
HETATM   27  C18 UNL     1      22.134  12.601  28.313  1.00  0.00     0.012 C
ENDBRANCH  17  25
ENDBRANCH  15  17
ENDBRANCH  10  13
ENDBRANCH   1   6
BRANCH   1  28
HETATM   28  N4  UNL     1      26.612  14.490  23.605  1.00  0.00    -0.338 N
HETATM   29  C19 UNL     1      27.721  13.869  24.278  1.00  0.00     0.141 C
HETATM   30  C20 UNL     1      28.809  14.804  24.708  1.00  0.00     0.097 C
HETATM   31  C25 UNL     1      28.294  16.021  25.411  1.00  0.00     0.030 C
HETATM   32  C26 UNL     1      27.315  16.742  24.557  1.00  0.00     0.082 C
HETATM   33  C30 UNL     1      26.362  15.867  23.870  1.00  0.00     0.225 C
HETATM   34  O5  UNL     1      25.270  16.346  23.493  1.00  0.00    -0.273 OA
BRANCH  30  35
HETATM   35  C21 UNL     1      29.863  15.087  23.749  1.00  0.00     0.223 C
HETATM   36  O4  UNL     1      29.964  14.273  22.749  1.00  0.00    -0.273 OA
HETATM   37  N5  UNL     1      30.803  16.122  23.738  1.00  0.00    -0.357 N
ATOM     38  H5  UNL     1      30.785  16.805  24.496  1.00  0.00     0.162 HD
BRANCH  37  39
HETATM   39  C22 UNL     1      31.802  16.271  22.697  1.00  0.00     0.076 C
HETATM   40  C23 UNL     1      31.988  17.695  22.277  1.00  0.00     0.032 C
HETATM   41  C24 UNL     1      33.107  15.629  23.187  1.00  0.00     0.032 C
ENDBRANCH  37  39
ENDBRANCH  30  35
BRANCH  32  42
HETATM   42  C27 UNL     1      26.642  17.778  25.433  1.00  0.00    -0.010 C
HETATM   43  C28 UNL     1      26.707  19.167  24.908  1.00  0.00     0.010 C
HETATM   44  C29 UNL     1      27.309  17.731  26.790  1.00  0.00     0.010 C
ENDBRANCH  32  42
ENDBRANCH   1  28
TORSDOF 13
ENDMDL