MODEL 2
REMARK VINA RESULT: -9.090409712      1.294      1.895
REMARK  19 active torsions:
REMARK  status: ('A' for Active; 'I' for Inactive)
REMARK       I    between atoms: C2_2  and  N1_4
REMARK    1  A    between atoms: N2_7  and  C5_8
REMARK    2  A    between atoms: C5_8  and  O2_9
REMARK    3  A    between atoms: C5_8  and  C6_11
REMARK    4  A    between atoms: N3_18  and  C13_19
REMARK    5  A    between atoms: C13_19  and  O3_20
REMARK    6  A    between atoms: C13_19  and  C14_22
REMARK    7  A    between atoms: C14_22  and  N4_23
REMARK    8  A    between atoms: C14_22  and  C30_49
REMARK       I    between atoms: N4_23  and  C15_25
REMARK    9  A    between atoms: C15_25  and  C16_27
REMARK   10  A    between atoms: C16_27  and  C17_28
REMARK   11  A    between atoms: C16_27  and  N5_32
REMARK   12  A    between atoms: C17_28  and  C18_29
REMARK   13  A    between atoms: N5_32  and  C21_34
REMARK   14  A    between atoms: C21_34  and  O5_35
REMARK   15  A    between atoms: C21_34  and  C22_37
REMARK   16  A    between atoms: C22_37  and  C23_38
REMARK   17  A    between atoms: C22_37  and  N6_42
REMARK   18  A    between atoms: C23_38  and  C24_39
REMARK   19  A    between atoms: N6_42  and  C27_44
ROOT
HETATM    1  C14 UNL     1      20.983  11.301  25.476  1.00  0.00     0.162 C
ENDROOT
BRANCH   1   2
HETATM    2  C13 UNL     1      20.585  11.196  26.880  1.00  0.00     0.139 C
BRANCH   2   3
HETATM    3  N3  UNL     1      20.281  12.132  27.865  1.00  0.00    -0.339 N
HETATM    4  C6  UNL     1      18.820  12.342  28.121  1.00  0.00     0.184 C
HETATM    5  C7  UNL     1      18.564  12.433  29.548  1.00  0.00     0.003 C
HETATM    6  C8  UNL     1      19.453  12.779  30.453  1.00  0.00    -0.026 C
HETATM    7  C9  UNL     1      20.824  13.114  30.106  1.00  0.00     0.057 C
HETATM    8  C10 UNL     1      21.194  12.871  28.669  1.00  0.00     0.031 C
HETATM    9  C11 UNL     1      21.454  14.245  28.022  1.00  0.00     0.038 C
HETATM   10  C12 UNL     1      22.590  12.210  28.777  1.00  0.00     0.038 C
BRANCH   4  11
HETATM   11  C5  UNL     1      18.197  13.288  27.228  1.00  0.00     0.141 C
BRANCH  11  12
HETATM   12  N2  UNL     1      17.368  13.191  26.124  1.00  0.00    -0.360 N
HETATM   13  C4  UNL     1      15.892  13.200  26.342  1.00  0.00     0.144 C
HETATM   14  C3  UNL     1      15.237  12.228  25.394  1.00  0.00     0.145 C
HETATM   15  N1  UNL     1      16.198  11.205  24.966  1.00  0.00    -0.349 N
HETATM   16  C2  UNL     1      15.864   9.836  25.137  1.00  0.00     0.215 C
HETATM   17  C34 UNL     1      17.450  11.581  24.397  1.00  0.00     0.145 C
HETATM   18  C1  UNL     1      14.545   9.450  25.759  1.00  0.00     0.117 C
HETATM   19  O1  UNL     1      16.610   8.882  24.797  1.00  0.00    -0.274 OA
HETATM   20  C33 UNL     1      17.703  13.046  24.731  1.00  0.00     0.144 C
ENDBRANCH  11  12
BRANCH  11  21
HETATM   21  O2  UNL     1      18.477  14.553  27.535  1.00  0.00    -0.348 OA
ATOM     22  H2  UNL     1      19.402  14.747  27.442  1.00  0.00     0.219 HD
ENDBRANCH  11  21
ENDBRANCH   4  11
ENDBRANCH   2   3
BRANCH   2  23
HETATM   23  O3  UNL     1      20.497   9.933  27.276  1.00  0.00    -0.348 OA
ATOM     24  H3  UNL     1      19.761   9.749  27.848  1.00  0.00     0.219 HD
ENDBRANCH   2  23
ENDBRANCH   1   2
BRANCH   1  25
HETATM   25  N4  UNL     1      22.291  12.047  25.390  1.00  0.00    -0.347 N
HETATM   26  C15 UNL     1      22.472  13.130  24.522  1.00  0.00     0.241 C
HETATM   27  O4  UNL     1      21.525  13.538  23.771  1.00  0.00    -0.271 OA
ATOM     28  H4  UNL     1      23.068  11.753  25.982  1.00  0.00     0.163 HD
BRANCH  26  29
HETATM   29  C16 UNL     1      23.775  13.895  24.389  1.00  0.00     0.176 C
BRANCH  29  30
HETATM   30  C17 UNL     1      24.091  14.517  25.677  1.00  0.00     0.038 C
BRANCH  30  31
HETATM   31  C18 UNL     1      24.592  15.916  25.657  1.00  0.00    -0.020 C
HETATM   32  C19 UNL     1      26.069  15.828  26.111  1.00  0.00     0.009 C
HETATM   33  C20 UNL     1      24.591  16.604  24.342  1.00  0.00     0.009 C
ENDBRANCH  30  31
ENDBRANCH  29  30
BRANCH  29  34
HETATM   34  N5  UNL     1      24.713  12.867  23.893  1.00  0.00    -0.356 N
ATOM     35  H5  UNL     1      24.773  11.971  24.378  1.00  0.00     0.162 HD
BRANCH  34  36
HETATM   36  C21 UNL     1      25.519  13.091  22.771  1.00  0.00     0.163 C
BRANCH  36  37
HETATM   37  O5  UNL     1      26.437  14.034  23.032  1.00  0.00    -0.345 OA
ATOM     38  H5  UNL     1      26.617  14.549  22.254  1.00  0.00     0.219 HD
ENDBRANCH  36  37
BRANCH  36  39
HETATM   39  C22 UNL     1      25.555  12.558  21.454  1.00  0.00     0.076 C
BRANCH  39  40
HETATM   40  C23 UNL     1      26.585  12.500  20.463  1.00  0.00     0.011 C
BRANCH  40  41
HETATM   41  C24 UNL     1      27.842  11.745  20.528  1.00  0.00     0.002 C
HETATM   42  C25 UNL     1      27.545  10.402  19.751  1.00  0.00     0.013 C
HETATM   43  C26 UNL     1      28.419  11.318  21.826  1.00  0.00     0.013 C
ENDBRANCH  40  41
ENDBRANCH  39  40
BRANCH  39  44
HETATM   44  N6  UNL     1      24.797  11.239  21.493  1.00  0.00    -0.376 N
ATOM     45  H6  UNL     1      25.194  10.356  21.815  1.00  0.00     0.160 HD
BRANCH  44  46
HETATM   46  C27 UNL     1      23.461  11.394  21.022  1.00  0.00     0.160 A
HETATM   47  C28 UNL     1      22.626  10.365  20.413  1.00  0.00     0.112 A
HETATM   48  C29 UNL     1      23.214  11.473  19.503  1.00  0.00     0.265 A
HETATM   49  F1  UNL     1      24.292  11.101  18.706  1.00  0.00    -0.204 F
HETATM   50  F2  UNL     1      22.374  12.440  19.037  1.00  0.00    -0.204 F
ENDBRANCH  44  46
ENDBRANCH  39  44
ENDBRANCH  36  39
ENDBRANCH  34  36
ENDBRANCH  29  34
ENDBRANCH  26  29
ENDBRANCH   1  25
BRANCH   1  51
HETATM   51  C30 UNL     1      21.339   9.939  24.850  1.00  0.00     0.008 C
HETATM   52  C31 UNL     1      20.345   9.699  23.711  1.00  0.00     0.012 C
HETATM   53  C32 UNL     1      22.718   9.973  24.227  1.00  0.00     0.012 C
ENDBRANCH   1  51
TORSDOF 19
ENDMDL