MODEL 2
REMARK VINA RESULT: -8.202407520      1.017      3.748
REMARK  16 active torsions:
REMARK  status: ('A' for Active; 'I' for Inactive)
REMARK    1  A    between atoms: C2_2  and  C3_3
REMARK    2  A    between atoms: C3_3  and  N1_4
REMARK    3  A    between atoms: C3_3  and  C9_14
REMARK       I    between atoms: N1_4  and  C4_6
REMARK    4  A    between atoms: C4_6  and  C5_8
REMARK    5  A    between atoms: C5_8  and  C6_10
REMARK    6  A    between atoms: C6_10  and  C7_11
REMARK    7  A    between atoms: C9_14  and  O2_15
REMARK    8  A    between atoms: C9_14  and  N2_17
REMARK    9  A    between atoms: N2_17  and  C10_19
REMARK   10  A    between atoms: C10_19  and  C11_20
REMARK   11  A    between atoms: C11_20  and  N3_22
REMARK       I    between atoms: N3_22  and  C13_24
REMARK   12  A    between atoms: C13_24  and  C14_26
REMARK   13  A    between atoms: C14_26  and  C15_27
REMARK   14  A    between atoms: C14_26  and  N5_36
REMARK   15  A    between atoms: C15_27  and  O4_28
REMARK   16  A    between atoms: C15_27  and  N4_30
ROOT
HETATM    1  N3  UNL     1      21.950  12.617  23.559  1.00  0.00    -0.353 N
ATOM      2  H3  UNL     1      21.367  13.382  23.218  1.00  0.00     0.163 HD
HETATM    3  C13 UNL     1      21.531  11.892  24.698  1.00  0.00     0.260 C
HETATM    4  O3  UNL     1      22.300  10.954  25.075  1.00  0.00    -0.271 OA
ENDROOT
BRANCH   1   5
HETATM    5  C11 UNL     1      23.161  12.313  22.874  1.00  0.00     0.098 C
HETATM    6  C12 UNL     1      24.352  13.147  23.287  1.00  0.00     0.034 C
BRANCH   5   7
HETATM    7  C10 UNL     1      23.006  12.323  21.368  1.00  0.00     0.146 C
BRANCH   7   8
HETATM    8  N2  UNL     1      22.921  10.962  20.828  1.00  0.00    -0.371 N
ATOM      9  H2  UNL     1      22.029  10.568  20.529  1.00  0.00     0.161 HD
BRANCH   8  10
HETATM   10  C9  UNL     1      24.101  10.225  20.737  1.00  0.00     0.134 C
BRANCH  10  11
HETATM   11  C3  UNL     1      25.269  10.476  19.872  1.00  0.00     0.158 C
BRANCH  11  12
HETATM   12  C2  UNL     1      25.087  11.220  18.622  1.00  0.00     0.029 C
HETATM   13  C1  UNL     1      25.480  12.669  18.645  1.00  0.00     0.007 C
ENDBRANCH  11  12
BRANCH  11  14
HETATM   14  N1  UNL     1      26.293  11.071  20.737  1.00  0.00    -0.348 N
HETATM   15  C4  UNL     1      27.641  10.637  20.772  1.00  0.00     0.232 C
HETATM   16  O1  UNL     1      27.959   9.684  20.010  1.00  0.00    -0.272 OA
ATOM     17  H1  UNL     1      26.020  11.841  21.348  1.00  0.00     0.163 HD
BRANCH  15  18
HETATM   18  C5  UNL     1      28.644  11.245  21.641  1.00  0.00     0.150 C
HETATM   19 BR1  UNL     1      29.548   9.847  22.628  1.00  0.00    -0.081 Br
BRANCH  18  20
HETATM   20  C6  UNL     1      28.203  12.349  22.520  1.00  0.00     0.041 C
BRANCH  20  21
HETATM   21  C7  UNL     1      28.801  13.688  22.294  1.00  0.00     0.055 C
HETATM   22  C8  UNL     1      27.972  14.678  23.133  1.00  0.00     0.022 C
HETATM   23 BR2  UNL     1      28.582  14.277  20.446  1.00  0.00    -0.091 Br
ENDBRANCH  20  21
ENDBRANCH  18  20
ENDBRANCH  15  18
ENDBRANCH  11  14
ENDBRANCH  10  11
BRANCH  10  24
HETATM   24  O2  UNL     1      24.178   9.179  21.526  1.00  0.00    -0.348 OA
ATOM     25  H2  UNL     1      23.473   9.076  22.155  1.00  0.00     0.219 HD
ENDBRANCH  10  24
ENDBRANCH   8  10
ENDBRANCH   7   8
ENDBRANCH   5   7
ENDBRANCH   1   5
BRANCH   3  26
HETATM   26  C14 UNL     1      20.323  12.113  25.457  1.00  0.00     0.387 C
BRANCH  26  27
HETATM   27  C15 UNL     1      20.427  11.719  26.867  1.00  0.00     0.157 C
BRANCH  27  28
HETATM   28  O4  UNL     1      20.633  10.439  27.031  1.00  0.00    -0.347 OA
ATOM     29  H4  UNL     1      21.327  10.247  27.650  1.00  0.00     0.219 HD
ENDBRANCH  27  28
BRANCH  27  30
HETATM   30  N4  UNL     1      20.345  12.475  28.035  1.00  0.00    -0.363 N
HETATM   31  C16 UNL     1      19.301  13.536  28.055  1.00  0.00     0.124 C
HETATM   32  C17 UNL     1      18.149  13.043  28.911  1.00  0.00     0.020 C
HETATM   33  C18 UNL     1      18.726  12.286  30.109  1.00  0.00     0.003 C
HETATM   34  C19 UNL     1      20.137  12.745  30.393  1.00  0.00     0.020 C
HETATM   35  C20 UNL     1      21.096  12.384  29.254  1.00  0.00     0.124 C
ENDBRANCH  27  30
ENDBRANCH  26  27
BRANCH  26  36
HETATM   36  N5  UNL     1      19.092  11.621  24.927  1.00  0.00     0.110 N
HETATM   37  C21 UNL     1      18.309  12.636  24.253  1.00  0.00     0.275 C
HETATM   38  C22 UNL     1      16.876  12.217  24.348  1.00  0.00     0.040 C
HETATM   39  C23 UNL     1      16.607  10.793  24.059  1.00  0.00    -0.037 A
HETATM   40  C24 UNL     1      17.751   9.867  24.027  1.00  0.00     0.040 C
HETATM   41  C26 UNL     1      15.328  10.476  23.336  1.00  0.00     0.010 A
HETATM   42  C27 UNL     1      15.359  10.235  24.785  1.00  0.00     0.010 A
HETATM   43  C25 UNL     1      19.126  10.473  24.109  1.00  0.00     0.275 C
ENDBRANCH  26  36
ENDBRANCH   3  26
TORSDOF 16
ENDMDL