MODEL 1
REMARK VINA RESULT: -8.298686117      0.000      0.000
REMARK  16 active torsions:
REMARK  status: ('A' for Active; 'I' for Inactive)
REMARK    1  A    between atoms: C2_2  and  C3_3
REMARK    2  A    between atoms: C3_3  and  C5_5
REMARK    3  A    between atoms: C5_5  and  C6_7
REMARK    4  A    between atoms: C6_7  and  O2_8
REMARK    5  A    between atoms: C6_7  and  N1_10
REMARK    6  A    between atoms: N1_10  and  C8_12
REMARK    7  A    between atoms: C8_12  and  C9_13
REMARK    8  A    between atoms: C8_12  and  C15_20
REMARK    9  A    between atoms: C9_13  and  C10_14
REMARK   10  A    between atoms: C10_14  and  C11_15
REMARK   11  A    between atoms: C11_15  and  C12_16
REMARK   12  A    between atoms: C12_16  and  N2_17
REMARK       I    between atoms: C15_20  and  N3_22
REMARK   13  A    between atoms: N3_22  and  C16_24
REMARK   14  A    between atoms: C17_28  and  C19_30
REMARK   15  A    between atoms: C22_34  and  C23_35
REMARK   16  A    between atoms: C29_42  and  O4_43
ROOT
HETATM    1  C16 UNL     1      19.390  12.729  24.824  1.00  0.00     0.292 C
HETATM    2  N4  UNL     1      19.681  11.972  26.043  1.00  0.00    -0.044 N
ATOM      3  H41 UNL     1      20.577  12.254  26.441  1.00  0.00     0.280 HD
ATOM      4  H42 UNL     1      19.894  10.999  25.826  1.00  0.00     0.280 HD
HETATM    5  C17 UNL     1      18.636  12.062  27.018  1.00  0.00     0.141 C
HETATM    6  C18 UNL     1      18.686  13.499  27.543  1.00  0.00     0.048 C
HETATM    7  C20 UNL     1      17.326  11.679  26.417  1.00  0.00     0.033 C
HETATM    8  C21 UNL     1      16.308  12.798  26.450  1.00  0.00     0.019 C
HETATM    9  C22 UNL     1      15.835  12.900  25.020  1.00  0.00    -0.020 C
HETATM   10  C24 UNL     1      17.046  13.517  24.282  1.00  0.00     0.020 C
HETATM   11  C25 UNL     1      18.066  12.382  24.216  1.00  0.00     0.046 C
HETATM   12  C26 UNL     1      17.386  11.306  24.954  1.00  0.00    -0.017 C
HETATM   13  C27 UNL     1      17.563   9.924  24.597  1.00  0.00     0.014 C
HETATM   14  C28 UNL     1      16.250   9.290  25.087  1.00  0.00     0.033 C
HETATM   15  C29 UNL     1      15.225  10.423  25.069  1.00  0.00     0.128 C
HETATM   16  C30 UNL     1      15.931  11.534  24.465  1.00  0.00    -0.001 C
HETATM   17  C31 UNL     1      15.797  11.498  22.984  1.00  0.00     0.019 C
ENDROOT
BRANCH   1  18
HETATM   18  N3  UNL     1      20.467  12.316  23.906  1.00  0.00    -0.331 N
HETATM   19  C15 UNL     1      21.799  12.691  24.099  1.00  0.00     0.242 C
HETATM   20  O3  UNL     1      22.076  13.412  25.093  1.00  0.00    -0.271 OA
ATOM     21  H3  UNL     1      20.232  11.735  23.102  1.00  0.00     0.164 HD
BRANCH  19  22
HETATM   22  C8  UNL     1      22.940  12.306  23.214  1.00  0.00     0.178 C
BRANCH  22  23
HETATM   23  N1  UNL     1      22.871  10.886  23.019  1.00  0.00    -0.350 N
HETATM   24  C7  UNL     1      22.682  10.107  24.264  1.00  0.00     0.152 C
BRANCH  23  25
HETATM   25  C6  UNL     1      22.957  10.154  21.831  1.00  0.00     0.186 C
BRANCH  25  26
HETATM   26  C5  UNL     1      23.941  10.270  20.783  1.00  0.00     0.203 C
HETATM   27  O1  UNL     1      25.115   9.884  20.940  1.00  0.00    -0.288 OA
BRANCH  26  28
HETATM   28  C3  UNL     1      23.569  10.867  19.458  1.00  0.00     0.060 C
HETATM   29  C4  UNL     1      24.688  10.807  18.459  1.00  0.00     0.018 C
BRANCH  28  30
HETATM   30  C2  UNL     1      23.042  12.269  19.582  1.00  0.00     0.008 C
HETATM   31  C1  UNL     1      23.604  13.137  18.470  1.00  0.00     0.006 C
ENDBRANCH  28  30
ENDBRANCH  26  28
ENDBRANCH  25  26
BRANCH  25  32
HETATM   32  O2  UNL     1      22.033   9.252  21.648  1.00  0.00    -0.344 OA
ATOM     33  H2  UNL     1      21.881   8.660  22.375  1.00  0.00     0.219 HD
ENDBRANCH  25  32
ENDBRANCH  23  25
ENDBRANCH  22  23
BRANCH  22  34
HETATM   34  C9  UNL     1      24.282  12.695  23.806  1.00  0.00     0.035 C
BRANCH  34  35
HETATM   35  C10 UNL     1      25.006  13.719  22.985  1.00  0.00     0.004 C
BRANCH  35  36
HETATM   36  C11 UNL     1      26.007  13.083  22.037  1.00  0.00     0.030 C
BRANCH  36  37
HETATM   37  C12 UNL     1      27.368  13.150  22.733  1.00  0.00     0.271 C
BRANCH  37  38
HETATM   38  N2  UNL     1      28.345  12.568  21.817  1.00  0.00     0.080 N
HETATM   39  C13 UNL     1      27.716  12.312  20.529  1.00  0.00     0.309 C
HETATM   40  C14 UNL     1      28.856  11.313  22.378  1.00  0.00     0.309 C
ENDBRANCH  37  38
ENDBRANCH  36  37
ENDBRANCH  35  36
ENDBRANCH  34  35
ENDBRANCH  22  34
ENDBRANCH  19  22
ENDBRANCH   1  18
BRANCH   5  41
HETATM   41  C19 UNL     1      19.035  11.231  28.224  1.00  0.00     0.153 C
HETATM   42 CL1  UNL     1      18.959  12.042  29.763  1.00  0.00    -0.128 Cl
ENDBRANCH   5  41
BRANCH   9  43
HETATM   43  C23 UNL     1      14.599  13.661  24.828  1.00  0.00     0.095 C
HETATM   44 BR1  UNL     1      15.033  15.468  24.261  1.00  0.00    -0.096 Br
ENDBRANCH   9  43
BRANCH  15  45
HETATM   45  O4  UNL     1      14.589  10.581  26.264  1.00  0.00    -0.395 OA
ATOM     46  H4  UNL     1      14.057  11.367  26.297  1.00  0.00     0.210 HD
ENDBRANCH  15  45
TORSDOF 16
ENDMDL