MODEL 5
REMARK VINA RESULT: -7.738483861      4.094      9.904
REMARK  16 active torsions:
REMARK  status: ('A' for Active; 'I' for Inactive)
REMARK    1  A    between atoms: N1_5  and  C4_6
REMARK    2  A    between atoms: C4_6  and  C5_7
REMARK    3  A    between atoms: C5_7  and  C6_8
REMARK    4  A    between atoms: C6_8  and  C7_9
REMARK    5  A    between atoms: C7_9  and  C8_10
REMARK    6  A    between atoms: C8_10  and  C9_11
REMARK    7  A    between atoms: C9_11  and  N2_12
REMARK    8  A    between atoms: C16_20  and  O3_21
REMARK    9  A    between atoms: C17_25  and  C18_26
REMARK   10  A    between atoms: C18_26  and  C19_27
REMARK   11  A    between atoms: C19_27  and  C20_28
REMARK   12  A    between atoms: C20_28  and  C21_29
REMARK   13  A    between atoms: C21_29  and  N4_30
REMARK   14  A    between atoms: C22_34  and  O4_35
REMARK   15  A    between atoms: C23_39  and  C24_40
REMARK   16  A    between atoms: C24_40  and  C25_41
ROOT
HETATM    1  C1  UNL     1      27.341  17.812  23.129  1.00  0.00     0.042 C
HETATM    2  C2  UNL     1      27.798  16.393  23.509  1.00  0.00     0.175 C
HETATM    3  C3  UNL     1      29.252  16.434  23.768  1.00  0.00     0.249 C
HETATM    4  O1  UNL     1      29.629  16.117  24.951  1.00  0.00    -0.271 OA
HETATM    5  N1  UNL     1      30.299  16.782  22.873  1.00  0.00    -0.280 N
HETATM    6  C15 UNL     1      30.490  16.243  21.565  1.00  0.00     0.301 C
HETATM    7  O2  UNL     1      30.550  17.114  20.604  1.00  0.00    -0.263 OA
HETATM    8  C16 UNL     1      30.632  14.865  21.116  1.00  0.00     0.210 C
HETATM    9  N3  UNL     1      30.070  13.681  21.536  1.00  0.00    -0.332 N
ATOM     10  H3  UNL     1      30.730  13.130  22.085  1.00  0.00     0.168 HD
HETATM   11  C17 UNL     1      28.804  13.012  21.411  1.00  0.00     0.062 C
HETATM   12  C22 UNL     1      28.225  12.652  22.723  1.00  0.00     0.159 C
HETATM   13  N5  UNL     1      27.549  13.308  23.719  1.00  0.00    -0.356 N
ATOM     14  H5  UNL     1      28.184  13.547  24.481  1.00  0.00     0.162 HD
HETATM   15  C23 UNL     1      26.227  13.760  24.015  1.00  0.00     0.180 C
HETATM   16  C31 UNL     1      26.246  14.964  24.927  1.00  0.00     0.243 C
HETATM   17  O5  UNL     1      25.487  14.926  25.925  1.00  0.00    -0.271 OA
HETATM   18  N6  UNL     1      27.046  16.103  24.730  1.00  0.00    -0.342 N
HETATM   19  C32 UNL     1      27.152  17.087  25.793  1.00  0.00     0.153 C
ENDROOT
BRANCH   5  20
HETATM   20  C4  UNL     1      31.307  17.799  23.309  1.00  0.00     0.135 C
BRANCH  20  21
HETATM   21  C5  UNL     1      32.616  17.063  23.501  1.00  0.00     0.020 C
BRANCH  21  22
HETATM   22  C6  UNL     1      33.007  16.966  24.947  1.00  0.00     0.002 C
BRANCH  22  23
HETATM   23  C7  UNL     1      33.977  18.014  25.393  1.00  0.00     0.002 C
BRANCH  23  24
HETATM   24  C8  UNL     1      33.341  18.939  26.386  1.00  0.00     0.028 C
BRANCH  24  25
HETATM   25  C9  UNL     1      32.481  19.989  25.757  1.00  0.00     0.237 C
BRANCH  25  26
HETATM   26  N2  UNL     1      31.412  20.347  26.674  1.00  0.00    -0.071 N
HETATM   27  C10 UNL     1      31.881  20.472  28.042  1.00  0.00     0.272 C
HETATM   28  C11 UNL     1      30.332  19.410  26.658  1.00  0.00     0.237 C
HETATM   29  C12 UNL     1      29.393  19.923  25.570  1.00  0.00     0.029 C
HETATM   30  C13 UNL     1      29.463  21.416  25.820  1.00  0.00     0.029 C
HETATM   31  C14 UNL     1      30.881  21.640  26.294  1.00  0.00     0.237 C
ENDBRANCH  25  26
ENDBRANCH  24  25
ENDBRANCH  23  24
ENDBRANCH  22  23
ENDBRANCH  21  22
ENDBRANCH  20  21
ENDBRANCH   5  20
BRANCH   8  32
HETATM   32  O3  UNL     1      31.474  14.683  20.089  1.00  0.00    -0.342 OA
ATOM     33  H3  UNL     1      32.072  13.950  20.181  1.00  0.00     0.219 HD
ENDBRANCH   8  32
BRANCH  11  34
HETATM   34  C18 UNL     1      27.820  13.535  20.450  1.00  0.00     0.062 C
BRANCH  34  35
HETATM   35  C19 UNL     1      26.857  12.541  19.858  1.00  0.00     0.008 C
BRANCH  35  36
HETATM   36  C20 UNL     1      26.290  12.953  18.529  1.00  0.00     0.027 C
BRANCH  36  37
HETATM   37  C21 UNL     1      24.779  12.674  18.530  1.00  0.00     0.229 C
BRANCH  37  38
HETATM   38  N4  UNL     1      24.083  13.697  17.770  1.00  0.00    -0.079 N
ATOM     39  H43 UNL     1      24.709  14.195  17.136  1.00  0.00     0.274 HD
ATOM     40  H42 UNL     1      23.454  13.296  17.074  1.00  0.00     0.274 HD
ATOM     41  H41 UNL     1      23.597  14.332  18.402  1.00  0.00     0.274 HD
ENDBRANCH  37  38
ENDBRANCH  36  37
ENDBRANCH  35  36
ENDBRANCH  34  35
ENDBRANCH  11  34
BRANCH  15  42
HETATM   42  C24 UNL     1      25.245  13.912  22.915  1.00  0.00     0.073 C
BRANCH  42  43
HETATM   43  C25 UNL     1      24.175  12.878  23.072  1.00  0.00    -0.054 A
HETATM   44  C26 UNL     1      23.461  12.862  24.231  1.00  0.00     0.009 A
HETATM   45  C27 UNL     1      22.471  11.923  24.417  1.00  0.00     0.026 A
HETATM   46  C28 UNL     1      22.187  10.991  23.441  1.00  0.00     0.055 A
HETATM   47 CL1  UNL     1      20.909   9.789  23.690  1.00  0.00    -0.083 Cl
HETATM   48  C29 UNL     1      22.926  11.021  22.260  1.00  0.00     0.056 A
HETATM   49 CL2  UNL     1      22.571   9.842  21.017  1.00  0.00    -0.083 Cl
HETATM   50  C30 UNL     1      23.929  11.981  22.086  1.00  0.00     0.032 A
ENDBRANCH  42  43
ENDBRANCH  15  42
BRANCH  12  51
HETATM   51  O4  UNL     1      28.428  11.364  22.980  1.00  0.00    -0.345 OA
ATOM     52  H4  UNL     1      28.872  10.947  22.251  1.00  0.00     0.219 HD
ENDBRANCH  12  51
TORSDOF 16
ENDMDL