MODEL 3
REMARK VINA RESULT: -8.750634107      1.407      1.780
REMARK  15 active torsions:
REMARK  status: ('A' for Active; 'I' for Inactive)
REMARK    1  A    between atoms: C2_2  and  C3_3
REMARK    2  A    between atoms: C3_3  and  C5_5
REMARK    3  A    between atoms: C5_5  and  N1_6
REMARK    4  A    between atoms: C5_5  and  C19_29
REMARK       I    between atoms: N1_6  and  C6_8
REMARK       I    between atoms: C6_8  and  N2_10
REMARK    5  A    between atoms: N2_10  and  C7_12
REMARK    6  A    between atoms: C10_15  and  C11_16
REMARK    7  A    between atoms: C11_16  and  O2_17
REMARK    8  A    between atoms: C11_16  and  N3_19
REMARK    9  A    between atoms: N3_19  and  C12_20
REMARK   10  A    between atoms: N3_19  and  C14_24
REMARK   11  A    between atoms: C12_20  and  C13_21
REMARK       I    between atoms: C19_29  and  N4_31
REMARK   12  A    between atoms: N4_31  and  C20_33
REMARK   13  A    between atoms: C20_33  and  C21_34
REMARK   14  A    between atoms: C20_33  and  C28_45
REMARK       I    between atoms: C21_34  and  N5_36
REMARK       I    between atoms: N6_39  and  C24_40
REMARK   15  A    between atoms: C28_45  and  C30_47
ROOT
HETATM    1  C5  UNL     1      27.513  12.219  21.741  1.00  0.00     0.182 C
ENDROOT
BRANCH   1   2
HETATM    2  C3  UNL     1      28.162  11.493  20.613  1.00  0.00     0.013 C
HETATM    3  C4  UNL     1      27.501  11.713  19.267  1.00  0.00     0.012 C
BRANCH   2   4
HETATM    4  C2  UNL     1      28.489  10.047  20.851  1.00  0.00     0.002 C
HETATM    5  C1  UNL     1      29.235   9.897  22.175  1.00  0.00     0.005 C
ENDBRANCH   2   4
ENDBRANCH   1   2
BRANCH   1   6
HETATM    6  N1  UNL     1      28.225  13.500  21.838  1.00  0.00    -0.330 N
HETATM    7  C6  UNL     1      28.785  13.925  23.063  1.00  0.00     0.317 C
HETATM    8  O1  UNL     1      28.657  13.183  24.065  1.00  0.00    -0.247 OA
HETATM    9  N2  UNL     1      29.481  15.144  23.212  1.00  0.00    -0.339 N
ATOM     10  H2  UNL     1      29.576  15.741  22.391  1.00  0.00     0.164 HD
ATOM     11  H1  UNL     1      28.316  14.089  21.011  1.00  0.00     0.165 HD
BRANCH   9  12
HETATM   12  C7  UNL     1      30.070  15.604  24.457  1.00  0.00     0.086 C
HETATM   13  C8  UNL     1      31.456  16.112  24.286  1.00  0.00     0.026 C
HETATM   14  C9  UNL     1      31.646  17.589  24.314  1.00  0.00     0.015 C
HETATM   15  C10 UNL     1      30.737  18.353  25.208  1.00  0.00     0.060 C
HETATM   16  C17 UNL     1      29.860  17.477  26.081  1.00  0.00     0.015 C
HETATM   17  C18 UNL     1      29.121  16.487  25.191  1.00  0.00     0.026 C
BRANCH  15  18
HETATM   18  C11 UNL     1      31.294  19.454  25.967  1.00  0.00     0.118 C
BRANCH  18  19
HETATM   19  O2  UNL     1      32.369  19.186  26.649  1.00  0.00    -0.349 OA
ATOM     20  H2  UNL     1      33.167  19.088  26.142  1.00  0.00     0.219 HD
ENDBRANCH  18  19
BRANCH  18  21
HETATM   21  N3  UNL     1      30.862  20.784  26.095  1.00  0.00    -0.359 N
BRANCH  21  22
HETATM   22  C12 UNL     1      29.502  21.103  26.439  1.00  0.00     0.161 C
BRANCH  22  23
HETATM   23  C13 UNL     1      29.069  20.734  27.820  1.00  0.00     0.196 C
HETATM   24 CL1  UNL     1      27.607  19.686  27.767  1.00  0.00    -0.106 Cl
HETATM   25 CL2  UNL     1      28.625  22.131  28.821  1.00  0.00    -0.106 Cl
ENDBRANCH  22  23
ENDBRANCH  21  22
BRANCH  21  26
HETATM   26  C14 UNL     1      31.775  21.880  25.929  1.00  0.00     0.078 C
HETATM   27  C15 UNL     1      31.054  23.214  26.154  1.00  0.00     0.032 C
HETATM   28  C16 UNL     1      32.373  21.983  24.538  1.00  0.00     0.032 C
ENDBRANCH  21  26
ENDBRANCH  18  21
ENDBRANCH  15  18
ENDBRANCH   9  12
ENDBRANCH   1   6
BRANCH   1  29
HETATM   29  C19 UNL     1      26.072  12.411  21.662  1.00  0.00     0.241 C
HETATM   30  O3  UNL     1      25.611  13.572  21.943  1.00  0.00    -0.271 OA
HETATM   31  N4  UNL     1      25.135  11.431  21.306  1.00  0.00    -0.346 N
ATOM     32  H4  UNL     1      25.469  10.494  21.081  1.00  0.00     0.163 HD
BRANCH  31  33
HETATM   33  C20 UNL     1      23.690  11.699  21.243  1.00  0.00     0.180 C
BRANCH  33  34
HETATM   34  C21 UNL     1      23.003  10.750  22.153  1.00  0.00     0.243 C
HETATM   35  O4  UNL     1      22.850   9.574  21.649  1.00  0.00    -0.271 OA
HETATM   36  N5  UNL     1      22.530  10.967  23.428  1.00  0.00    -0.347 N
HETATM   37  C22 UNL     1      22.659  12.217  24.122  1.00  0.00     0.145 C
HETATM   38  C27 UNL     1      21.853   9.906  24.158  1.00  0.00     0.145 C
HETATM   39  C23 UNL     1      21.349  12.636  24.712  1.00  0.00     0.145 C
HETATM   40  N6  UNL     1      20.258  11.709  24.541  1.00  0.00    -0.349 N
HETATM   41  C24 UNL     1      18.935  12.256  24.569  1.00  0.00     0.215 C
HETATM   42  C26 UNL     1      20.393  10.284  24.351  1.00  0.00     0.145 C
HETATM   43  C25 UNL     1      17.780  11.345  24.409  1.00  0.00     0.117 C
HETATM   44  O5  UNL     1      18.775  13.503  24.730  1.00  0.00    -0.274 OA
ENDBRANCH  33  34
BRANCH  33  45
HETATM   45  C28 UNL     1      23.204  11.429  19.835  1.00  0.00     0.013 C
HETATM   46  C29 UNL     1      24.174  10.589  19.051  1.00  0.00     0.012 C
BRANCH  45  47
HETATM   47  C30 UNL     1      22.834  12.626  19.051  1.00  0.00     0.002 C
HETATM   48  C31 UNL     1      24.058  13.076  18.235  1.00  0.00     0.005 C
ENDBRANCH  45  47
ENDBRANCH  33  45
ENDBRANCH  31  33
ENDBRANCH   1  29
TORSDOF 15
ENDMDL