MODEL 4
REMARK VINA RESULT: -9.556022660      4.059      8.212
REMARK  11 active torsions:
REMARK  status: ('A' for Active; 'I' for Inactive)
REMARK    1  A    between atoms: C5_5  and  S1_6
REMARK    2  A    between atoms: S1_6  and  C6_7
REMARK    3  A    between atoms: C8_9  and  C9_10
REMARK    4  A    between atoms: C9_10  and  C10_11
REMARK       I    between atoms: C10_11  and  N1_13
REMARK    5  A    between atoms: C13_16  and  C14_17
REMARK    6  A    between atoms: C16_25  and  C17_26
REMARK    7  A    between atoms: C17_26  and  N5_27
REMARK       I    between atoms: N5_27  and  C18_29
REMARK    8  A    between atoms: C18_29  and  C19_31
REMARK    9  A    between atoms: C19_31  and  N6_32
REMARK       I    between atoms: N6_32  and  C21_34
REMARK   10  A    between atoms: C21_34  and  C22_36
REMARK   11  A    between atoms: C22_36  and  C23_37
ROOT
HETATM    1  C1  UNL     1      23.511   9.356  21.508  1.00  0.00     0.014 C
HETATM    2  C2  UNL     1      22.954  10.510  20.776  1.00  0.00     0.034 C
HETATM    3  C3  UNL     1      23.458  10.790  19.383  1.00  0.00     0.016 C
HETATM    4  C4  UNL     1      23.110  12.261  19.672  1.00  0.00     0.057 C
HETATM    5  C5  UNL     1      23.364  11.893  21.119  1.00  0.00     0.180 C
HETATM    6  N4  UNL     1      24.776  12.049  21.369  1.00  0.00    -0.049 N
ATOM      7  H41 UNL     1      24.987  11.841  22.345  1.00  0.00     0.279 HD
ATOM      8  H42 UNL     1      25.033  13.035  21.339  1.00  0.00     0.279 HD
HETATM    9  C16 UNL     1      25.631  11.282  20.499  1.00  0.00     0.224 C
HETATM   10  C29 UNL     1      24.956  10.735  19.300  1.00  0.00     0.119 C
HETATM   11 CL1  UNL     1      25.415  11.564  17.783  1.00  0.00    -0.122 Cl
ENDROOT
BRANCH   9  12
HETATM   12  C17 UNL     1      26.895  12.056  20.247  1.00  0.00     0.157 C
BRANCH  12  13
HETATM   13  N5  UNL     1      27.284  12.977  21.279  1.00  0.00    -0.358 N
HETATM   14  C18 UNL     1      28.131  12.670  22.366  1.00  0.00     0.235 C
HETATM   15  O3  UNL     1      28.610  11.520  22.459  1.00  0.00    -0.272 OA
ATOM     16  H5  UNL     1      26.918  13.928  21.222  1.00  0.00     0.162 HD
BRANCH  14  17
HETATM   17  C19 UNL     1      28.485  13.660  23.418  1.00  0.00     0.227 C
BRANCH  17  18
HETATM   18  N6  UNL     1      28.935  14.907  22.831  1.00  0.00    -0.347 N
HETATM   19  C20 UNL     1      28.186  16.142  22.903  1.00  0.00     0.153 C
HETATM   20  C21 UNL     1      30.178  14.915  22.144  1.00  0.00     0.224 C
HETATM   21  O4  UNL     1      30.834  13.857  22.047  1.00  0.00    -0.273 OA
BRANCH  20  22
HETATM   22  C22 UNL     1      30.707  16.180  21.533  1.00  0.00     0.141 C
BRANCH  22  23
HETATM   23  C23 UNL     1      30.718  16.036  20.068  1.00  0.00    -0.048 A
HETATM   24  C24 UNL     1      29.549  15.993  19.311  1.00  0.00     0.007 A
HETATM   25  C25 UNL     1      29.582  15.861  17.946  1.00  0.00     0.002 A
HETATM   26  C26 UNL     1      30.795  15.768  17.310  1.00  0.00     0.019 A
HETATM   27  C27 UNL     1      31.977  15.808  18.047  1.00  0.00     0.011 A
HETATM   28 BR1  UNL     1      33.646  15.680  17.164  1.00  0.00    -0.051 Br
HETATM   29  C28 UNL     1      31.927  15.941  19.409  1.00  0.00     0.026 A
ENDBRANCH  22  23
ENDBRANCH  20  22
ENDBRANCH  17  18
ENDBRANCH  14  17
ENDBRANCH  12  13
ENDBRANCH   9  12
BRANCH   5  30
HETATM   30  S1  UNL     1      22.317  12.686  22.332  1.00  0.00    -0.094 SA
BRANCH  30  31
HETATM   31  C6  UNL     1      23.255  13.004  23.824  1.00  0.00     0.287 C
HETATM   32  C7  UNL     1      23.843  14.411  23.849  1.00  0.00     0.054 C
HETATM   33  C8  UNL     1      24.302  14.457  25.298  1.00  0.00     0.039 C
HETATM   34  C13 UNL     1      23.370  13.534  25.979  1.00  0.00     0.316 C
HETATM   35  N3  UNL     1      22.389  13.097  25.014  1.00  0.00     0.112 N
HETATM   36  C15 UNL     1      21.732  11.874  25.243  1.00  0.00     0.312 C
BRANCH  33  37
HETATM   37  C9  UNL     1      24.503  15.817  25.810  1.00  0.00     0.110 C
BRANCH  37  38
HETATM   38  C10 UNL     1      25.850  16.325  25.974  1.00  0.00     0.219 C
HETATM   39  O1  UNL     1      26.838  15.579  26.116  1.00  0.00    -0.273 OA
HETATM   40  N1  UNL     1      26.082  17.736  25.978  1.00  0.00    -0.361 N
HETATM   41  C11 UNL     1      24.961  18.642  25.820  1.00  0.00     0.152 C
HETATM   42  C12 UNL     1      27.429  18.266  26.141  1.00  0.00     0.152 C
ENDBRANCH  37  38
ENDBRANCH  33  37
BRANCH  34  43
HETATM   43  C14 UNL     1      22.850  13.893  27.281  1.00  0.00     0.265 C
HETATM   44  N2  UNL     1      21.661  14.615  27.576  1.00  0.00    -0.060 NA
HETATM   45  O2  UNL     1      23.495  13.540  28.309  1.00  0.00    -0.274 OA
ENDBRANCH  34  43
ENDBRANCH  30  31
ENDBRANCH   5  30
TORSDOF 11
ENDMDL