MODEL 1
REMARK VINA RESULT: -8.898823793      0.000      0.000
REMARK  14 active torsions:
REMARK  status: ('A' for Active; 'I' for Inactive)
REMARK    1  A    between atoms: C2_2  and  C4_4
REMARK    2  A    between atoms: C4_4  and  N1_5
REMARK    3  A    between atoms: C4_4  and  C25_31
REMARK    4  A    between atoms: N1_5  and  C5_7
REMARK    5  A    between atoms: C5_7  and  O1_8
REMARK       I    between atoms: N2_18  and  C14_19
REMARK    6  A    between atoms: C14_19  and  C15_21
REMARK       I    between atoms: C25_31  and  N3_33
REMARK    7  A    between atoms: C27_35  and  O4_36
REMARK    8  A    between atoms: C28_38  and  O5_39
REMARK    9  A    between atoms: C29_41  and  C30_42
REMARK   10  A    between atoms: C30_42  and  O6_43
REMARK   11  A    between atoms: N4_45  and  C31_46
REMARK   12  A    between atoms: N4_45  and  C33_49
REMARK   13  A    between atoms: C31_46  and  C32_47
REMARK   14  A    between atoms: C33_49  and  C34_50
ROOT
HETATM    1  N1  UNL     1      26.953  13.632  22.069  1.00  0.00    -0.331 N
ATOM      2  H1  UNL     1      26.956  14.407  21.407  1.00  0.00     0.168 HD
ENDROOT
BRANCH   1   3
HETATM    3  C4  UNL     1      28.220  13.047  22.446  1.00  0.00     0.104 C
BRANCH   3   4
HETATM    4  C2  UNL     1      28.581  11.784  21.711  1.00  0.00    -0.055 C
HETATM    5  C1  UNL     1      29.031  11.832  20.327  1.00  0.00     0.045 C
HETATM    6  C3  UNL     1      29.161  10.772  22.618  1.00  0.00     0.045 C
ENDBRANCH   3   4
BRANCH   3   7
HETATM    7  C25 UNL     1      29.299  13.966  22.774  1.00  0.00     0.271 C
HETATM    8  O3  UNL     1      30.411  13.861  22.125  1.00  0.00    -0.266 OA
HETATM    9  N3  UNL     1      29.306  14.977  23.735  1.00  0.00    -0.329 N
HETATM   10  C26 UNL     1      28.332  15.097  24.837  1.00  0.00     0.161 C
HETATM   11  C29 UNL     1      30.160  16.133  23.891  1.00  0.00     0.193 C
HETATM   12  C27 UNL     1      29.360  15.352  25.981  1.00  0.00     0.167 C
HETATM   13  C28 UNL     1      30.007  16.578  25.299  1.00  0.00     0.179 C
BRANCH  12  14
HETATM   14  O4  UNL     1      28.760  15.601  27.153  1.00  0.00    -0.391 OA
ATOM     15  H4  UNL     1      29.082  15.038  27.847  1.00  0.00     0.210 HD
ENDBRANCH  12  14
BRANCH  13  16
HETATM   16  O5  UNL     1      29.031  17.583  25.480  1.00  0.00    -0.390 OA
ATOM     17  H5  UNL     1      29.370  18.298  24.956  1.00  0.00     0.210 HD
ENDBRANCH  13  16
BRANCH  11  18
HETATM   18  C30 UNL     1      29.932  17.178  22.898  1.00  0.00     0.140 C
HETATM   19  N4  UNL     1      30.576  18.115  22.158  1.00  0.00    -0.362 N
BRANCH  18  20
HETATM   20  O6  UNL     1      28.583  17.203  22.644  1.00  0.00    -0.348 OA
ATOM     21  H6  UNL     1      28.247  18.012  23.013  1.00  0.00     0.219 HD
ENDBRANCH  18  20
BRANCH  19  22
HETATM   22  C31 UNL     1      29.750  18.945  21.245  1.00  0.00     0.139 C
BRANCH  22  23
HETATM   23  C32 UNL     1      30.122  18.797  19.814  1.00  0.00     0.134 C
HETATM   24 CL1  UNL     1      29.587  17.191  19.215  1.00  0.00    -0.129 Cl
ENDBRANCH  22  23
ENDBRANCH  19  22
BRANCH  19  25
HETATM   25  C33 UNL     1      31.970  18.390  22.093  1.00  0.00     0.139 C
BRANCH  25  26
HETATM   26  C34 UNL     1      32.951  17.286  22.140  1.00  0.00     0.134 C
HETATM   27 CL2  UNL     1      32.656  16.284  20.662  1.00  0.00    -0.129 Cl
ENDBRANCH  25  26
ENDBRANCH  19  25
ENDBRANCH  11  18
ENDBRANCH   3   7
ENDBRANCH   1   3
BRANCH   1  28
HETATM   28  C5  UNL     1      25.706  13.184  22.573  1.00  0.00     0.164 C
HETATM   29  C6  UNL     1      24.728  12.333  21.989  1.00  0.00     0.070 C
HETATM   30  C7  UNL     1      24.488  11.989  20.602  1.00  0.00     0.046 C
HETATM   31  N2  UNL     1      23.422  12.237  22.640  1.00  0.00    -0.316 N
HETATM   32  C8  UNL     1      25.653  11.317  19.863  1.00  0.00     0.011 C
HETATM   33  C12 UNL     1      23.552  10.749  20.817  1.00  0.00     0.014 C
HETATM   34  C9  UNL     1      25.160  10.778  18.552  1.00  0.00     0.001 C
HETATM   35  C10 UNL     1      23.882  10.014  18.562  1.00  0.00     0.000 C
HETATM   36  C11 UNL     1      22.830  10.607  19.525  1.00  0.00     0.007 C
HETATM   37  C13 UNL     1      22.759  11.076  22.012  1.00  0.00     0.137 C
HETATM   38  C14 UNL     1      22.741  13.069  23.538  1.00  0.00     0.228 C
HETATM   39  O2  UNL     1      23.067  14.318  23.547  1.00  0.00    -0.273 OA
BRANCH  28  40
HETATM   40  O1  UNL     1      25.474  13.644  23.788  1.00  0.00    -0.345 OA
ATOM     41  H1  UNL     1      25.193  12.955  24.379  1.00  0.00     0.219 HD
ENDBRANCH  28  40
BRANCH  38  42
HETATM   42  C15 UNL     1      21.709  12.721  24.502  1.00  0.00     0.083 C
HETATM   43  C16 UNL     1      22.341  12.137  25.781  1.00  0.00     0.019 C
HETATM   44  C17 UNL     1      21.265  12.039  26.805  1.00  0.00    -0.009 C
HETATM   45  C18 UNL     1      20.352  13.225  26.895  1.00  0.00     0.010 C
HETATM   46  C21 UNL     1      20.379  10.840  26.431  1.00  0.00    -0.010 C
HETATM   47  C19 UNL     1      19.140  12.779  26.145  1.00  0.00    -0.013 C
HETATM   48  C20 UNL     1      18.981  11.364  26.724  1.00  0.00     0.009 C
HETATM   49  C24 UNL     1      19.263  12.670  24.669  1.00  0.00     0.010 C
HETATM   50  C23 UNL     1      20.519  11.915  24.201  1.00  0.00    -0.001 C
HETATM   51  C22 UNL     1      20.483  10.571  24.954  1.00  0.00     0.010 C
ENDBRANCH  38  42
ENDBRANCH   1  28
TORSDOF 14
ENDMDL