MODEL 5
REMARK VINA RESULT: -7.788313762      3.156      5.958
REMARK  15 active torsions:
REMARK  status: ('A' for Active; 'I' for Inactive)
REMARK    1  A    between atoms: N1_2  and  C2_5
REMARK    2  A    between atoms: C2_5  and  C4_7
REMARK       I    between atoms: C4_7  and  N2_9
REMARK    3  A    between atoms: N2_9  and  C5_10
REMARK    4  A    between atoms: C5_10  and  C6_11
REMARK    5  A    between atoms: C5_10  and  C10_15
REMARK    6  A    between atoms: C10_15  and  O2_16
REMARK    7  A    between atoms: C10_15  and  N3_18
REMARK    8  A    between atoms: N4_21  and  C13_22
REMARK    9  A    between atoms: C13_22  and  C15_24
REMARK   10  A    between atoms: C15_24  and  O3_25
REMARK   11  A    between atoms: C15_24  and  N5_27
REMARK   12  A    between atoms: N5_27  and  C17_29
REMARK   13  A    between atoms: C17_29  and  C18_30
REMARK   14  A    between atoms: C25_40  and  C27_42
REMARK       I    between atoms: C27_42  and  N6_44
REMARK   15  A    between atoms: N6_44  and  C28_46
ROOT
HETATM    1  N3  UNL     1      25.591  15.489  24.942  1.00  0.00    -0.337 N
HETATM    2  C11 UNL     1      26.520  14.583  24.360  1.00  0.00     0.118 C
HETATM    3  C12 UNL     1      26.725  14.618  22.887  1.00  0.00     0.152 C
HETATM    4  N4  UNL     1      28.056  14.114  22.701  1.00  0.00    -0.338 N
HETATM    5  C22 UNL     1      28.774  14.512  23.884  1.00  0.00     0.227 C
HETATM    6  O5  UNL     1      29.991  14.289  24.083  1.00  0.00    -0.273 OA
HETATM    7  C23 UNL     1      27.877  15.207  24.809  1.00  0.00     0.105 C
HETATM    8  C24 UNL     1      27.592  16.633  24.393  1.00  0.00     0.057 C
HETATM    9  C25 UNL     1      26.168  16.832  24.750  1.00  0.00     0.113 C
HETATM   10  C26 UNL     1      26.179  17.573  26.099  1.00  0.00     0.049 C
ENDROOT
BRANCH   1  11
HETATM   11  C10 UNL     1      24.392  15.244  25.571  1.00  0.00     0.156 C
BRANCH  11  12
HETATM   12  C5  UNL     1      23.481  14.054  25.482  1.00  0.00     0.264 C
BRANCH  12  13
HETATM   13  N2  UNL     1      22.663  14.026  26.506  1.00  0.00    -0.396 NA
HETATM   14  C4  UNL     1      21.768  14.002  27.626  1.00  0.00     0.318 C
HETATM   15  O1  UNL     1      21.109  14.988  28.003  1.00  0.00    -0.255 OA
BRANCH  14  16
HETATM   16  C2  UNL     1      21.579  12.770  28.431  1.00  0.00     0.287 C
HETATM   17  C3  UNL     1      20.405  12.760  29.343  1.00  0.00     0.051 C
BRANCH  16  18
HETATM   18  N1  UNL     1      21.543  11.612  27.552  1.00  0.00    -0.065 N
HETATM   19  C1  UNL     1      20.211  11.072  27.483  1.00  0.00     0.267 C
ATOM     20  H12 UNL     1      22.225  10.905  27.828  1.00  0.00     0.277 HD
ATOM     21  H11 UNL     1      21.914  11.827  26.626  1.00  0.00     0.277 HD
ENDBRANCH  16  18
ENDBRANCH  14  16
ENDBRANCH  12  13
BRANCH  12  22
HETATM   22  C6  UNL     1      23.017  14.060  24.036  1.00  0.00     0.022 C
HETATM   23  C7  UNL     1      22.313  12.972  23.414  1.00  0.00    -0.088 C
HETATM   24  C8  UNL     1      21.009  12.572  24.045  1.00  0.00     0.042 C
HETATM   25  C9  UNL     1      23.131  11.778  22.962  1.00  0.00     0.042 C
ENDBRANCH  12  22
ENDBRANCH  11  12
BRANCH  11  26
HETATM   26  O2  UNL     1      23.941  16.172  26.379  1.00  0.00    -0.347 OA
ATOM     27  H2  UNL     1      24.003  17.046  26.010  1.00  0.00     0.219 HD
ENDBRANCH  11  26
ENDBRANCH   1  11
BRANCH   9  28
HETATM   28  C27 UNL     1      25.362  17.657  23.854  1.00  0.00     0.247 C
HETATM   29  O6  UNL     1      24.177  17.314  23.607  1.00  0.00    -0.271 OA
HETATM   30  N6  UNL     1      25.822  18.841  23.231  1.00  0.00    -0.342 N
ATOM     31  H6  UNL     1      26.784  19.140  23.390  1.00  0.00     0.164 HD
BRANCH  30  32
HETATM   32  C28 UNL     1      24.976  19.641  22.377  1.00  0.00     0.177 C
HETATM   33  C29 UNL     1      25.842  20.504  21.437  1.00  0.00     0.049 C
HETATM   34 CL1  UNL     1      24.003  20.757  23.338  1.00  0.00    -0.103 Cl
ENDBRANCH  30  32
ENDBRANCH   9  28
BRANCH   4  35
HETATM   35  C13 UNL     1      28.626  13.355  21.593  1.00  0.00     0.157 C
HETATM   36  C14 UNL     1      28.584  14.208  20.325  1.00  0.00     0.041 C
BRANCH  35  37
HETATM   37  C15 UNL     1      27.978  12.055  21.429  1.00  0.00     0.136 C
BRANCH  37  38
HETATM   38  O3  UNL     1      26.729  11.992  21.829  1.00  0.00    -0.348 OA
ATOM     39  H3  UNL     1      26.539  11.318  22.470  1.00  0.00     0.219 HD
ENDBRANCH  37  38
BRANCH  37  40
HETATM   40  N5  UNL     1      28.457  10.850  20.908  1.00  0.00    -0.362 N
HETATM   41  C16 UNL     1      29.275   9.890  21.651  1.00  0.00     0.152 C
BRANCH  40  42
HETATM   42  C17 UNL     1      28.154  10.502  19.523  1.00  0.00     0.189 C
BRANCH  42  43
HETATM   43  C18 UNL     1      26.745  10.859  19.190  1.00  0.00     0.072 A
HETATM   44  C19 UNL     1      26.417  11.767  18.213  1.00  0.00     0.038 A
HETATM   45  C20 UNL     1      25.018  11.849  18.172  1.00  0.00     0.048 A
HETATM   46  C21 UNL     1      24.577  10.952  19.164  1.00  0.00     0.121 A
HETATM   47 BR1  UNL     1      22.716  10.679  19.511  1.00  0.00    -0.023 Br
HETATM   48  O4  UNL     1      25.626  10.421  19.708  1.00  0.00    -0.306 OA
ENDBRANCH  42  43
ENDBRANCH  40  42
ENDBRANCH  37  40
ENDBRANCH  35  37
ENDBRANCH   4  35
TORSDOF 15
ENDMDL