MODEL 1
REMARK VINA RESULT: -7.902489080      0.000      0.000
REMARK  15 active torsions:
REMARK  status: ('A' for Active; 'I' for Inactive)
REMARK    1  A    between atoms: C2_2  and  N1_3
REMARK    2  A    between atoms: N1_3  and  C3_4
REMARK    3  A    between atoms: N1_3  and  C5_6
REMARK    4  A    between atoms: C5_6  and  O1_7
REMARK    5  A    between atoms: C5_6  and  C6_9
REMARK    6  A    between atoms: C6_9  and  C7_10
REMARK    7  A    between atoms: C6_9  and  N2_13
REMARK    8  A    between atoms: C10_16  and  C11_17
REMARK    9  A    between atoms: C14_21  and  S1_22
REMARK   10  A    between atoms: S1_22  and  C15_24
REMARK   11  A    between atoms: C15_24  and  C16_25
REMARK   12  A    between atoms: C22_32  and  O5_33
REMARK   13  A    between atoms: C23_35  and  O6_36
REMARK   14  A    between atoms: C25_42  and  C26_43
REMARK   15  A    between atoms: C26_43  and  C27_44
ROOT
HETATM    1  N2  UNL     1      21.858  12.789  25.368  1.00  0.00    -0.295 N
HETATM    2  C9  UNL     1      22.567  13.847  24.752  1.00  0.00     0.248 C
HETATM    3  O3  UNL     1      22.465  13.890  23.486  1.00  0.00    -0.271 OA
HETATM    4  C10 UNL     1      23.337  14.786  25.539  1.00  0.00     0.183 C
HETATM    5  N3  UNL     1      23.599  14.283  26.849  1.00  0.00    -0.346 N
ATOM      6  H3  UNL     1      24.301  14.757  27.418  1.00  0.00     0.163 HD
HETATM    7  C24 UNL     1      22.933  13.155  27.400  1.00  0.00     0.241 C
HETATM    8  O7  UNL     1      23.476  12.508  28.364  1.00  0.00    -0.271 OA
HETATM    9  C25 UNL     1      21.620  12.754  26.834  1.00  0.00     0.185 C
ENDROOT
BRANCH   4  10
HETATM   10  C11 UNL     1      24.572  15.355  24.891  1.00  0.00     0.050 C
HETATM   11  C12 UNL     1      25.322  16.341  25.731  1.00  0.00     0.027 C
HETATM   12  C13 UNL     1      26.435  16.918  24.883  1.00  0.00     0.077 C
HETATM   13 BR1  UNL     1      25.596  17.856  23.399  1.00  0.00    -0.090 Br
HETATM   14  C14 UNL     1      27.374  15.861  24.373  1.00  0.00     0.125 C
HETATM   15  C22 UNL     1      26.847  14.457  24.708  1.00  0.00     0.164 C
HETATM   16  C23 UNL     1      25.410  14.329  24.221  1.00  0.00     0.154 C
BRANCH  14  17
HETATM   17  S1  UNL     1      28.989  15.986  25.012  1.00  0.00     0.027 S
HETATM   18  O4  UNL     1      29.458  14.805  26.052  1.00  0.00    -0.257 OA
BRANCH  17  19
HETATM   19  C15 UNL     1      30.203  16.605  23.930  1.00  0.00     0.147 C
BRANCH  19  20
HETATM   20  C16 UNL     1      31.463  17.012  24.553  1.00  0.00    -0.046 A
HETATM   21  C17 UNL     1      32.458  16.077  24.679  1.00  0.00     0.009 A
HETATM   22  C18 UNL     1      33.654  16.440  25.260  1.00  0.00     0.024 A
HETATM   23  C19 UNL     1      33.809  17.743  25.697  1.00  0.00     0.034 A
HETATM   24 CL1  UNL     1      35.344  18.165  26.428  1.00  0.00    -0.084 Cl
HETATM   25  C20 UNL     1      32.832  18.693  25.582  1.00  0.00     0.024 A
HETATM   26  C21 UNL     1      31.627  18.304  24.991  1.00  0.00     0.009 A
ENDBRANCH  19  20
ENDBRANCH  17  19
ENDBRANCH  14  17
BRANCH  15  27
HETATM   27  O5  UNL     1      27.657  13.531  24.085  1.00  0.00    -0.392 OA
ATOM     28  H5  UNL     1      27.313  12.663  24.267  1.00  0.00     0.210 HD
ENDBRANCH  15  27
BRANCH  16  29
HETATM   29  O6  UNL     1      25.020  13.025  24.351  1.00  0.00    -0.392 OA
ATOM     30  H6  UNL     1      25.706  12.374  24.438  1.00  0.00     0.210 HD
ENDBRANCH  16  29
ENDBRANCH   4  10
BRANCH   1  31
HETATM   31  C6  UNL     1      21.280  11.685  24.562  1.00  0.00     0.135 C
BRANCH  31  32
HETATM   32  C5  UNL     1      20.102  11.146  25.228  1.00  0.00     0.169 C
BRANCH  32  33
HETATM   33  N1  UNL     1      18.748  11.453  25.183  1.00  0.00    -0.361 N
BRANCH  33  34
HETATM   34  C2  UNL     1      18.274  12.431  24.153  1.00  0.00     0.120 C
HETATM   35  C1  UNL     1      17.541  13.570  24.777  1.00  0.00     0.026 C
ENDBRANCH  33  34
BRANCH  33  36
HETATM   36  C3  UNL     1      17.702  10.931  25.986  1.00  0.00     0.120 C
HETATM   37  C4  UNL     1      16.745   9.992  25.287  1.00  0.00     0.026 C
ENDBRANCH  33  36
ENDBRANCH  32  33
BRANCH  32  38
HETATM   38  O1  UNL     1      20.414  10.147  26.039  1.00  0.00    -0.344 OA
ATOM     39  H1  UNL     1      21.309  10.161  26.358  1.00  0.00     0.219 HD
ENDBRANCH  32  38
ENDBRANCH  31  32
BRANCH  31  40
HETATM   40  C7  UNL     1      22.255  10.803  23.960  1.00  0.00     0.176 C
HETATM   41  C8  UNL     1      22.296  10.375  22.558  1.00  0.00     0.098 C
HETATM   42  O2  UNL     1      23.141  10.361  24.694  1.00  0.00    -0.291 OA
ENDBRANCH  31  40
ENDBRANCH   1  31
BRANCH   9  43
HETATM   43  C26 UNL     1      20.578  13.740  27.215  1.00  0.00     0.039 C
BRANCH  43  44
HETATM   44  C27 UNL     1      19.765  13.479  28.429  1.00  0.00    -0.020 C
HETATM   45  C28 UNL     1      19.638  12.100  28.933  1.00  0.00     0.009 C
HETATM   46  C29 UNL     1      18.384  14.163  28.326  1.00  0.00     0.009 C
ENDBRANCH  43  44
ENDBRANCH   9  43
TORSDOF 15
ENDMDL