MODEL 5
REMARK VINA RESULT: -7.458976754      5.652     11.982
REMARK  13 active torsions:
REMARK  status: ('A' for Active; 'I' for Inactive)
REMARK    1  A    between atoms: C2_2  and  C3_3
REMARK    2  A    between atoms: C5_5  and  C6_6
REMARK       I    between atoms: C6_6  and  N1_8
REMARK       I    between atoms: N2_11  and  C9_12
REMARK    3  A    between atoms: C9_12  and  C10_14
REMARK    4  A    between atoms: C10_14  and  C11_17
REMARK    5  A    between atoms: C11_17  and  C12_18
REMARK    6  A    between atoms: C12_18  and  N3_19
REMARK       I    between atoms: N4_25  and  C15_26
REMARK    7  A    between atoms: C15_26  and  C16_28
REMARK    8  A    between atoms: C19_31  and  C20_32
REMARK    9  A    between atoms: C20_32  and  N5_33
REMARK   10  A    between atoms: C20_32  and  C27_42
REMARK       I    between atoms: N5_33  and  C21_35
REMARK   11  A    between atoms: C21_35  and  C22_37
REMARK   12  A    between atoms: C22_37  and  C23_38
REMARK       I    between atoms: C27_42  and  N6_44
REMARK   13  A    between atoms: N6_44  and  C28_46
ROOT
HETATM    1  C3  UNL     1      27.412  13.227  22.368  1.00  0.00     0.112 C
HETATM    2  C4  UNL     1      28.884  13.048  22.714  1.00  0.00     0.064 C
HETATM    3  C5  UNL     1      28.820  14.551  22.893  1.00  0.00     0.182 C
HETATM    4  N4  UNL     1      27.393  14.490  23.110  1.00  0.00    -0.330 N
HETATM    5  C15 UNL     1      26.383  15.255  23.740  1.00  0.00     0.225 C
HETATM    6  O3  UNL     1      26.693  16.328  24.314  1.00  0.00    -0.273 OA
ENDROOT
BRANCH   1   7
HETATM    7  C2  UNL     1      27.263  13.380  20.893  1.00  0.00    -0.012 C
HETATM    8  C1  UNL     1      27.806  12.553  20.030  1.00  0.00     0.009 C
ENDBRANCH   1   7
BRANCH   3   9
HETATM    9  C6  UNL     1      29.635  14.937  24.070  1.00  0.00     0.243 C
HETATM   10  O1  UNL     1      29.357  14.625  25.255  1.00  0.00    -0.271 OA
HETATM   11  N1  UNL     1      30.805  15.709  23.843  1.00  0.00    -0.347 N
HETATM   12  C7  UNL     1      31.235  16.112  22.524  1.00  0.00     0.145 C
HETATM   13  C14 UNL     1      31.608  16.124  25.001  1.00  0.00     0.145 C
HETATM   14  C8  UNL     1      31.615  17.599  22.626  1.00  0.00     0.146 C
HETATM   15  N2  UNL     1      32.736  17.647  23.523  1.00  0.00    -0.345 N
HETATM   16  C9  UNL     1      33.663  18.701  23.560  1.00  0.00     0.271 C
HETATM   17  C13 UNL     1      32.955  16.543  24.469  1.00  0.00     0.146 C
HETATM   18  O2  UNL     1      34.628  18.658  24.405  1.00  0.00    -0.269 OA
BRANCH  16  19
HETATM   19  C10 UNL     1      33.625  19.875  22.698  1.00  0.00     0.241 C
HETATM   20  F1  UNL     1      32.284  20.178  22.430  1.00  0.00    -0.220 F
HETATM   21 BR1  UNL     1      34.369  19.427  20.939  1.00  0.00    -0.038 Br
BRANCH  19  22
HETATM   22  C11 UNL     1      34.320  21.082  23.245  1.00  0.00     0.093 C
BRANCH  22  23
HETATM   23  C12 UNL     1      33.365  22.196  23.591  1.00  0.00     0.234 C
BRANCH  23  24
HETATM   24  N3  UNL     1      32.884  22.086  24.952  1.00  0.00    -0.079 N
ATOM     25  H33 UNL     1      33.517  21.531  25.527  1.00  0.00     0.274 HD
ATOM     26  H32 UNL     1      32.959  22.976  25.446  1.00  0.00     0.274 HD
ATOM     27  H31 UNL     1      31.932  21.721  24.988  1.00  0.00     0.274 HD
ENDBRANCH  23  24
ENDBRANCH  22  23
ENDBRANCH  19  22
ENDBRANCH  16  19
ENDBRANCH   3   9
BRANCH   5  28
HETATM   28  C16 UNL     1      24.950  14.880  23.773  1.00  0.00     0.084 C
HETATM   29  C17 UNL     1      24.116  15.900  24.515  1.00  0.00     0.015 C
HETATM   30  C18 UNL     1      24.148  14.965  25.730  1.00  0.00     0.009 C
HETATM   31  C19 UNL     1      24.593  13.877  24.860  1.00  0.00     0.030 C
BRANCH  31  32
HETATM   32  C20 UNL     1      23.703  12.764  24.417  1.00  0.00     0.181 C
BRANCH  32  33
HETATM   33  N5  UNL     1      23.595  12.967  22.948  1.00  0.00    -0.347 N
HETATM   34  C21 UNL     1      23.156  11.969  22.060  1.00  0.00     0.218 C
HETATM   35  O4  UNL     1      22.831  10.829  22.509  1.00  0.00    -0.274 OA
ATOM     36  H5  UNL     1      23.852  13.877  22.564  1.00  0.00     0.163 HD
BRANCH  34  37
HETATM   37  C22 UNL     1      23.092  12.296  20.620  1.00  0.00     0.111 C
BRANCH  37  38
HETATM   38  C23 UNL     1      23.668  11.252  19.718  1.00  0.00    -0.043 C
HETATM   39  C24 UNL     1      24.195  11.995  18.485  1.00  0.00     0.015 C
HETATM   40  C25 UNL     1      24.884  10.591  20.343  1.00  0.00     0.015 C
HETATM   41  C26 UNL     1      22.648  10.262  19.272  1.00  0.00     0.015 C
ENDBRANCH  37  38
ENDBRANCH  34  37
ENDBRANCH  32  33
BRANCH  32  42
HETATM   42  C27 UNL     1      22.375  12.703  25.007  1.00  0.00     0.241 C
HETATM   43  O5  UNL     1      21.479  13.455  24.478  1.00  0.00    -0.271 OA
HETATM   44  N6  UNL     1      21.962  11.914  26.089  1.00  0.00    -0.351 N
ATOM     45  H6  UNL     1      22.635  11.292  26.539  1.00  0.00     0.163 HD
BRANCH  44  46
HETATM   46  C28 UNL     1      20.597  11.959  26.584  1.00  0.00     0.022 C
HETATM   47  C29 UNL     1      20.294  13.213  27.358  1.00  0.00     0.037 C
HETATM   48  C30 UNL     1      20.276  10.775  27.490  1.00  0.00     0.037 C
HETATM   49  C31 UNL     1      19.589  11.860  25.436  1.00  0.00     0.037 C
ENDBRANCH  44  46
ENDBRANCH  32  42
ENDBRANCH  31  32
ENDBRANCH   5  28
TORSDOF 13
ENDMDL