MODEL 3
REMARK VINA RESULT: -8.863855448      1.513      1.610
REMARK  13 active torsions:
REMARK  status: ('A' for Active; 'I' for Inactive)
REMARK    1  A    between atoms: C2_2  and  C3_3
REMARK       I    between atoms: C3_3  and  N1_5
REMARK    2  A    between atoms: N1_5  and  C4_7
REMARK    3  A    between atoms: C6_9  and  C7_10
REMARK    4  A    between atoms: C7_10  and  N3_20
REMARK    5  A    between atoms: N2_11  and  S1_13
REMARK    6  A    between atoms: S1_13  and  C8_16
REMARK    7  A    between atoms: N3_20  and  C11_22
REMARK    8  A    between atoms: C11_22  and  C12_23
REMARK    9  A    between atoms: C11_22  and  C15_28
REMARK   10  A    between atoms: C12_23  and  C13_24
REMARK   11  A    between atoms: C13_24  and  C14_25
REMARK       I    between atoms: C15_28  and  N4_30
REMARK   12  A    between atoms: C22_37  and  C23_38
REMARK       I    between atoms: C23_38  and  N5_40
REMARK   13  A    between atoms: C24_42  and  C25_43
ROOT
HETATM    1  C7  UNL     1      20.870  12.822  24.853  1.00  0.00     0.092 C
HETATM    2  N2  UNL     1      21.677  13.040  25.767  1.00  0.00    -0.272 N
ATOM      3  H2  UNL     1      22.604  12.814  25.406  1.00  0.00     0.180 HD
ENDROOT
BRANCH   1   4
HETATM    4  C6  UNL     1      21.416  12.327  23.589  1.00  0.00     0.071 C
HETATM    5  C5  UNL     1      22.362  11.191  23.535  1.00  0.00     0.039 C
HETATM    6  C4  UNL     1      22.929  11.874  22.271  1.00  0.00     0.099 C
HETATM    7  C22 UNL     1      22.513  13.176  22.978  1.00  0.00     0.112 C
BRANCH   6   8
HETATM    8  N1  UNL     1      24.304  11.698  22.009  1.00  0.00    -0.355 N
HETATM    9  C3  UNL     1      24.769  11.783  20.658  1.00  0.00     0.226 C
HETATM   10  O1  UNL     1      23.948  12.009  19.734  1.00  0.00    -0.273 OA
ATOM     11  H1  UNL     1      24.957  11.512  22.770  1.00  0.00     0.162 HD
BRANCH   9  12
HETATM   12  C2  UNL     1      26.195  11.616  20.272  1.00  0.00     0.037 A
HETATM   13  C1  UNL     1      26.745  10.193  20.416  1.00  0.00     0.025 C
HETATM   14  C26 UNL     1      27.127  12.733  20.671  1.00  0.00     0.020 A
HETATM   15  C27 UNL     1      26.803  12.459  19.232  1.00  0.00     0.020 A
ENDBRANCH   9  12
ENDBRANCH   6   8
BRANCH   7  16
HETATM   16  C23 UNL     1      23.541  13.756  23.823  1.00  0.00     0.228 C
HETATM   17  O7  UNL     1      24.276  12.908  24.469  1.00  0.00    -0.273 OA
HETATM   18  N5  UNL     1      23.830  15.111  24.024  1.00  0.00    -0.340 N
HETATM   19  C24 UNL     1      24.967  15.644  23.971  1.00  0.00     0.074 C
ATOM     20  H5  UNL     1      23.042  15.725  24.232  1.00  0.00     0.167 HD
BRANCH  19  21
HETATM   21  C25 UNL     1      25.113  17.102  24.209  1.00  0.00     0.129 C
HETATM   22 BR1  UNL     1      26.023  17.475  25.866  1.00  0.00    -0.091 Br
ENDBRANCH  19  21
ENDBRANCH   7  16
ENDBRANCH   1   4
BRANCH   1  23
HETATM   23  N3  UNL     1      19.488  13.040  25.001  1.00  0.00    -0.366 N
ATOM     24  H3  UNL     1      19.165  14.008  25.021  1.00  0.00     0.161 HD
BRANCH  23  25
HETATM   25  C11 UNL     1      18.469  11.983  25.129  1.00  0.00     0.175 C
BRANCH  25  26
HETATM   26  C12 UNL     1      17.980  11.619  23.735  1.00  0.00     0.045 C
BRANCH  26  27
HETATM   27  C13 UNL     1      17.184  10.354  23.651  1.00  0.00     0.116 C
BRANCH  27  28
HETATM   28  C14 UNL     1      15.841  10.631  23.125  1.00  0.00     0.172 C
HETATM   29  O4  UNL     1      14.914  11.030  23.828  1.00  0.00    -0.648 OA
HETATM   30  O5  UNL     1      15.652  10.417  21.734  1.00  0.00    -0.648 OA
ENDBRANCH  27  28
ENDBRANCH  26  27
ENDBRANCH  25  26
BRANCH  25  31
HETATM   31  C15 UNL     1      17.357  12.611  25.905  1.00  0.00     0.243 C
HETATM   32  O6  UNL     1      17.085  12.033  27.026  1.00  0.00    -0.271 OA
HETATM   33  N4  UNL     1      16.595  13.722  25.564  1.00  0.00    -0.341 N
HETATM   34  C16 UNL     1      15.517  14.372  26.336  1.00  0.00     0.088 C
HETATM   35  C19 UNL     1      16.581  14.557  24.395  1.00  0.00     0.088 C
HETATM   36  C17 UNL     1      16.003  15.795  26.332  1.00  0.00     0.027 C
HETATM   37  C21 UNL     1      14.395  14.244  25.334  1.00  0.00     0.027 C
HETATM   38  C18 UNL     1      16.818  15.914  25.032  1.00  0.00     0.027 C
HETATM   39  C20 UNL     1      15.111  14.533  24.024  1.00  0.00     0.027 C
ENDBRANCH  25  31
ENDBRANCH  23  25
ENDBRANCH   1  23
BRANCH   2  40
HETATM   40  S1  UNL     1      21.875  13.539  27.308  1.00  0.00     0.253 S
HETATM   41  O2  UNL     1      23.250  13.272  27.901  1.00  0.00    -0.204 OA
HETATM   42  O3  UNL     1      21.656  15.055  27.478  1.00  0.00    -0.204 OA
BRANCH  40  43
HETATM   43  C8  UNL     1      20.656  12.810  28.393  1.00  0.00     0.151 C
HETATM   44  C9  UNL     1      19.419  13.659  28.440  1.00  0.00     0.051 C
HETATM   45  C10 UNL     1      21.198  12.816  29.832  1.00  0.00     0.051 C
HETATM   46 CL1  UNL     1      20.288  11.180  27.866  1.00  0.00    -0.101 Cl
ENDBRANCH  40  43
ENDBRANCH   2  40
TORSDOF 13
ENDMDL