MODEL 1
REMARK VINA RESULT: -7.335155741      0.000      0.000
REMARK  12 active torsions:
REMARK  status: ('A' for Active; 'I' for Inactive)
REMARK    1  A    between atoms: C2_2  and  C3_3
REMARK       I    between atoms: N1_10  and  C8_11
REMARK    2  A    between atoms: C8_11  and  C9_13
REMARK    3  A    between atoms: C9_13  and  N2_14
REMARK    4  A    between atoms: C9_13  and  C22_34
REMARK       I    between atoms: N2_14  and  C10_16
REMARK    5  A    between atoms: C10_16  and  C11_18
REMARK    6  A    between atoms: C12_19  and  C13_20
REMARK       I    between atoms: C13_20  and  N3_22
REMARK    7  A    between atoms: N3_22  and  C14_24
REMARK       I    between atoms: N4_30  and  C20_31
REMARK    8  A    between atoms: C23_37  and  C24_38
REMARK       I    between atoms: C24_38  and  N5_40
REMARK    9  A    between atoms: N5_40  and  C25_41
REMARK   10  A    between atoms: N5_40  and  C29_45
REMARK   11  A    between atoms: C25_41  and  C26_42
REMARK   12  A    between atoms: C29_45  and  C30_46
ROOT
HETATM    1  C3  UNL     1      23.721  12.904  22.991  1.00  0.00     0.018 C
HETATM    2  C4  UNL     1      22.939  12.827  21.724  1.00  0.00     0.019 C
HETATM    3  C5  UNL     1      23.645  12.168  20.607  1.00  0.00     0.078 C
HETATM    4  C6  UNL     1      23.021  10.814  20.348  1.00  0.00     0.018 C
HETATM    5  C7  UNL     1      25.126  12.090  20.725  1.00  0.00     0.330 C
HETATM    6  F1  UNL     1      25.664  12.574  19.491  1.00  0.00    -0.182 F
HETATM    7  F2  UNL     1      25.490  10.781  20.742  1.00  0.00    -0.182 F
HETATM    8  N1  UNL     1      25.767  12.861  21.731  1.00  0.00    -0.273 N
HETATM    9  C8  UNL     1      27.168  12.907  21.774  1.00  0.00     0.258 C
HETATM   10  O1  UNL     1      27.732  13.705  22.568  1.00  0.00    -0.270 OA
HETATM   11  C23 UNL     1      25.008  13.626  22.699  1.00  0.00     0.190 C
ENDROOT
BRANCH   9  12
HETATM   12  C9  UNL     1      28.128  12.109  20.976  1.00  0.00     0.279 C
BRANCH  12  13
HETATM   13  N2  UNL     1      29.310  12.958  20.756  1.00  0.00    -0.337 N
HETATM   14  C10 UNL     1      29.354  14.030  19.861  1.00  0.00     0.242 C
HETATM   15  O2  UNL     1      28.294  14.270  19.205  1.00  0.00    -0.271 OA
ATOM     16  H2  UNL     1      30.152  12.750  21.293  1.00  0.00     0.163 HD
BRANCH  14  17
HETATM   17  C11 UNL     1      30.519  14.893  19.625  1.00  0.00     0.192 C
HETATM   18  C12 UNL     1      30.713  15.202  18.147  1.00  0.00     0.111 C
HETATM   19  C18 UNL     1      29.752  16.381  17.970  1.00  0.00     0.036 C
HETATM   20  C19 UNL     1      29.810  17.125  19.261  1.00  0.00     0.127 C
HETATM   21  N4  UNL     1      30.304  16.196  20.237  1.00  0.00    -0.338 N
HETATM   22  C20 UNL     1      30.550  16.480  21.600  1.00  0.00     0.216 C
HETATM   23  C21 UNL     1      31.061  15.447  22.531  1.00  0.00     0.117 C
HETATM   24  O4  UNL     1      30.340  17.633  22.067  1.00  0.00    -0.274 OA
BRANCH  18  25
HETATM   25  C13 UNL     1      32.095  15.664  17.850  1.00  0.00     0.225 C
HETATM   26  O3  UNL     1      32.268  16.580  16.973  1.00  0.00    -0.273 OA
HETATM   27  N3  UNL     1      33.213  15.115  18.517  1.00  0.00    -0.353 N
ATOM     28  H3  UNL     1      33.087  14.386  19.219  1.00  0.00     0.163 HD
BRANCH  27  29
HETATM   29  C14 UNL     1      34.552  15.604  18.192  1.00  0.00     0.022 C
HETATM   30  C15 UNL     1      34.619  17.051  18.646  1.00  0.00     0.037 C
HETATM   31  C16 UNL     1      34.854  15.473  16.723  1.00  0.00     0.037 C
HETATM   32  C17 UNL     1      35.544  14.755  18.959  1.00  0.00     0.037 C
ENDBRANCH  27  29
ENDBRANCH  18  25
ENDBRANCH  14  17
ENDBRANCH  12  13
BRANCH  12  33
HETATM   33  C22 UNL     1      28.654  10.954  21.792  1.00  0.00     0.206 C
HETATM   34  O5  UNL     1      28.477   9.774  21.438  1.00  0.00    -0.646 OA
HETATM   35  O6  UNL     1      29.338  11.205  22.940  1.00  0.00    -0.646 OA
ENDBRANCH  12  33
ENDBRANCH   9  12
BRANCH  11  36
HETATM   36  C24 UNL     1      25.709  14.022  23.914  1.00  0.00     0.250 C
HETATM   37  O7  UNL     1      26.269  13.081  24.585  1.00  0.00    -0.270 OA
HETATM   38  N5  UNL     1      25.844  15.364  24.439  1.00  0.00    -0.308 N
BRANCH  38  39
HETATM   39  C25 UNL     1      26.608  15.446  25.647  1.00  0.00     0.076 C
BRANCH  39  40
HETATM   40  C26 UNL     1      27.991  15.880  25.656  1.00  0.00     0.016 C
HETATM   41  C27 UNL     1      28.224  16.887  26.815  1.00  0.00     0.015 C
HETATM   42  C28 UNL     1      29.136  14.979  25.653  1.00  0.00     0.015 C
ENDBRANCH  39  40
ENDBRANCH  38  39
BRANCH  38  43
HETATM   43  C29 UNL     1      25.368  16.484  23.718  1.00  0.00     0.080 C
BRANCH  43  44
HETATM   44  C30 UNL     1      25.579  17.886  24.020  1.00  0.00    -0.019 C
HETATM   45  C31 UNL     1      25.150  18.469  25.312  1.00  0.00     0.020 C
HETATM   46  C32 UNL     1      24.543  18.609  23.018  1.00  0.00     0.020 C
HETATM   47  C33 UNL     1      26.904  18.449  23.547  1.00  0.00     0.020 C
ENDBRANCH  43  44
ENDBRANCH  38  43
ENDBRANCH  11  36
BRANCH   1  48
HETATM   48  C2  UNL     1      23.791  11.640  23.756  1.00  0.00     0.002 C
HETATM   49  C1  UNL     1      22.318  11.237  24.023  1.00  0.00     0.005 C
ENDBRANCH   1  48
TORSDOF 12
ENDMDL