MODEL 2
REMARK VINA RESULT: -8.275442862      6.553     10.395
REMARK  13 active torsions:
REMARK  status: ('A' for Active; 'I' for Inactive)
REMARK    1  A    between atoms: C2_2  and  C3_3
REMARK    2  A    between atoms: C3_3  and  C4_4
REMARK    3  A    between atoms: C4_4  and  N1_5
REMARK    4  A    between atoms: C4_4  and  C27_38
REMARK    5  A    between atoms: N1_5  and  C5_7
REMARK    6  A    between atoms: C5_7  and  C6_8
REMARK    7  A    between atoms: C5_7  and  C14_20
REMARK    8  A    between atoms: N3_25  and  C17_26
REMARK    9  A    between atoms: C17_26  and  O4_27
REMARK   10  A    between atoms: C17_26  and  C18_29
REMARK   11  A    between atoms: C21_32  and  C22_33
REMARK   12  A    between atoms: C22_33  and  C23_34
REMARK   13  A    between atoms: C27_38  and  C28_40
ROOT
HETATM    1  C5  UNL     1      18.057  13.010  26.211  1.00  0.00     0.141 C
ENDROOT
BRANCH   1   2
HETATM    2  N1  UNL     1      19.153  13.615  26.844  1.00  0.00    -0.401 N
ATOM      3  H1  UNL     1      19.574  14.383  26.322  1.00  0.00     0.154 HD
BRANCH   2   4
HETATM    4  C4  UNL     1      19.752  13.347  28.043  1.00  0.00     0.157 C
BRANCH   4   5
HETATM    5  C3  UNL     1      19.081  12.298  28.911  1.00  0.00     0.033 C
BRANCH   5   6
HETATM    6  C2  UNL     1      18.742  12.779  30.293  1.00  0.00    -0.002 C
HETATM    7  C1  UNL     1      20.007  12.720  31.162  1.00  0.00     0.005 C
ENDBRANCH   5   6
ENDBRANCH   4   5
BRANCH   4   8
HETATM    8  C27 UNL     1      21.136  12.790  27.797  1.00  0.00     0.235 C
HETATM    9  O5  UNL     1      21.277  11.544  28.048  1.00  0.00    -0.285 OA
BRANCH   8  10
HETATM   10  C28 UNL     1      22.264  13.495  27.326  1.00  0.00     0.302 C
HETATM   11  N4  UNL     1      23.499  13.467  28.028  1.00  0.00    -0.054 NA
HETATM   12  O6  UNL     1      22.241  14.173  26.279  1.00  0.00    -0.268 OA
ENDBRANCH   8  10
ENDBRANCH   4   8
ENDBRANCH   2   4
ENDBRANCH   1   2
BRANCH   1  13
HETATM   13  C6  UNL     1      16.813  13.865  26.206  1.00  0.00     0.152 C
HETATM   14  O1  UNL     1      15.752  13.274  26.933  1.00  0.00    -0.371 OA
HETATM   15  C7  UNL     1      14.522  13.636  26.398  1.00  0.00     0.188 C
HETATM   16  C8  UNL     1      13.401  13.239  27.329  1.00  0.00     0.048 C
HETATM   17  C9  UNL     1      14.363  15.026  25.997  1.00  0.00     0.170 C
HETATM   18  O2  UNL     1      13.238  15.474  26.224  1.00  0.00    -0.294 OA
HETATM   19  C10 UNL     1      15.246  16.046  25.374  1.00  0.00     0.144 C
HETATM   20 BR1  UNL     1      14.274  17.689  25.071  1.00  0.00    -0.082 Br
HETATM   21  C11 UNL     1      16.440  16.366  26.211  1.00  0.00     0.086 C
HETATM   22 BR2  UNL     1      15.934  17.805  27.413  1.00  0.00    -0.089 Br
HETATM   23  C12 UNL     1      16.979  15.180  26.971  1.00  0.00     0.029 C
HETATM   24  C13 UNL     1      16.326  15.048  28.338  1.00  0.00     0.014 C
ENDBRANCH   1  13
BRANCH   1  25
HETATM   25  C14 UNL     1      18.514  12.642  24.810  1.00  0.00     0.229 C
HETATM   26  C15 UNL     1      17.628  11.865  23.961  1.00  0.00     0.265 C
HETATM   27  O3  UNL     1      16.845  11.902  22.984  1.00  0.00    -0.269 OA
HETATM   28  N2  UNL     1      18.033  10.740  24.806  1.00  0.00    -0.259 N
HETATM   29  C16 UNL     1      17.292   9.606  25.281  1.00  0.00     0.181 C
HETATM   30  N3  UNL     1      19.268  11.346  24.810  1.00  0.00    -0.250 N
BRANCH  30  31
HETATM   31  C17 UNL     1      20.605  11.019  24.800  1.00  0.00     0.164 C
BRANCH  31  32
HETATM   32  O4  UNL     1      20.899  10.003  25.578  1.00  0.00    -0.345 OA
ATOM     33  H4  UNL     1      21.807   9.728  25.513  1.00  0.00     0.219 HD
ENDBRANCH  31  32
BRANCH  31  34
HETATM   34  C18 UNL     1      21.730  11.558  24.117  1.00  0.00    -0.009 C
HETATM   35  C19 UNL     1      23.009  11.336  24.283  1.00  0.00    -0.015 C
HETATM   36  C20 UNL     1      23.846  12.137  23.326  1.00  0.00     0.033 C
HETATM   37  C21 UNL     1      22.836  12.286  22.134  1.00  0.00    -0.006 C
HETATM   38  C26 UNL     1      21.620  12.557  22.966  1.00  0.00     0.047 C
BRANCH  37  39
HETATM   39  C22 UNL     1      22.874  11.022  21.368  1.00  0.00     0.009 C
BRANCH  39  40
HETATM   40  C23 UNL     1      22.840  11.049  19.896  1.00  0.00    -0.022 C
HETATM   41  C24 UNL     1      22.766  12.358  19.204  1.00  0.00     0.009 C
HETATM   42  C25 UNL     1      23.982  10.251  19.268  1.00  0.00     0.009 C
ENDBRANCH  39  40
ENDBRANCH  37  39
ENDBRANCH  31  34
ENDBRANCH  30  31
ENDBRANCH   1  25
TORSDOF 13
ENDMDL