MODEL 5
REMARK VINA RESULT: -7.679407731      3.864     10.056
REMARK  11 active torsions:
REMARK  status: ('A' for Active; 'I' for Inactive)
REMARK    1  A    between atoms: C2_2  and  C3_3
REMARK    2  A    between atoms: C3_3  and  C4_4
REMARK       I    between atoms: C4_4  and  N1_6
REMARK    3  A    between atoms: N1_6  and  C5_8
REMARK    4  A    between atoms: C7_10  and  C8_11
REMARK    5  A    between atoms: C8_11  and  N2_12
REMARK       I    between atoms: N2_12  and  C10_14
REMARK    6  A    between atoms: C10_14  and  C11_16
REMARK    7  A    between atoms: C16_22  and  N3_23
REMARK       I    between atoms: N3_23  and  C17_25
REMARK    8  A    between atoms: C17_25  and  C18_27
REMARK    9  A    between atoms: C18_27  and  C19_28
REMARK   10  A    between atoms: C19_28  and  N4_29
REMARK   11  A    between atoms: C26_40  and  O5_41
ROOT
HETATM    1  N2  UNL     1      20.789  11.181  25.709  1.00  0.00    -0.350 N
HETATM    2  C9  UNL     1      21.463  10.044  25.136  1.00  0.00     0.153 C
HETATM    3  C10 UNL     1      20.162  11.058  26.981  1.00  0.00     0.243 C
HETATM    4  O2  UNL     1      20.217   9.924  27.502  1.00  0.00    -0.271 OA
ENDROOT
BRANCH   3   5
HETATM    5  C11 UNL     1      19.532  12.222  27.543  1.00  0.00     0.190 C
HETATM    6  C12 UNL     1      19.111  11.972  29.030  1.00  0.00     0.111 C
HETATM    7  S1  UNL     1      18.408  13.654  29.321  1.00  0.00    -0.141 SA
HETATM    8  C13 UNL     1      18.309  14.124  27.538  1.00  0.00     0.150 C
HETATM    9  C14 UNL     1      17.137  14.930  27.201  1.00  0.00     0.039 C
HETATM   10  N5  UNL     1      18.325  12.749  27.011  1.00  0.00    -0.323 N
HETATM   11  C15 UNL     1      16.615  14.610  25.830  1.00  0.00     0.038 C
HETATM   12  C16 UNL     1      16.064  13.179  25.916  1.00  0.00     0.176 C
HETATM   13  C23 UNL     1      17.272  12.325  26.210  1.00  0.00     0.244 C
HETATM   14  O4  UNL     1      17.211  11.188  25.645  1.00  0.00    -0.271 OA
BRANCH  12  15
HETATM   15  N3  UNL     1      15.096  13.055  26.986  1.00  0.00    -0.348 N
HETATM   16  C17 UNL     1      13.731  13.412  26.750  1.00  0.00     0.219 C
HETATM   17  O3  UNL     1      13.376  13.826  25.629  1.00  0.00    -0.274 OA
ATOM     18  H3  UNL     1      15.386  12.716  27.903  1.00  0.00     0.163 HD
BRANCH  16  19
HETATM   19  C18 UNL     1      12.752  13.289  27.839  1.00  0.00     0.130 C
BRANCH  19  20
HETATM   20  C19 UNL     1      12.007  12.009  27.894  1.00  0.00     0.245 C
BRANCH  20  21
HETATM   21  N4  UNL     1      11.400  11.644  29.126  1.00  0.00    -0.078 N
HETATM   22  C20 UNL     1      12.318  11.929  30.219  1.00  0.00     0.271 C
HETATM   23  C21 UNL     1      10.981  10.286  29.264  1.00  0.00     0.271 C
HETATM   24  C22 UNL     1      10.196  12.490  29.318  1.00  0.00     0.271 C
ENDBRANCH  20  21
ENDBRANCH  19  20
ENDBRANCH  16  19
ENDBRANCH  12  15
ENDBRANCH   3   5
BRANCH   1  25
HETATM   25  C8  UNL     1      20.765  12.418  24.970  1.00  0.00     0.165 C
BRANCH  25  26
HETATM   26  C7  UNL     1      22.025  12.627  24.204  1.00  0.00    -0.019 A
HETATM   27  C6  UNL     1      22.197  12.097  22.912  1.00  0.00     0.042 A
HETATM   28  C5  UNL     1      23.339  12.264  22.176  1.00  0.00     0.070 A
HETATM   29  C26 UNL     1      24.359  13.012  22.785  1.00  0.00     0.111 A
HETATM   30  C25 UNL     1      24.180  13.536  24.073  1.00  0.00     0.064 A
HETATM   31  C24 UNL     1      23.025  13.353  24.791  1.00  0.00     0.039 A
HETATM   32 BR2  UNL     1      25.590  14.554  24.879  1.00  0.00    -0.047 Br
HETATM   33 BR1  UNL     1      22.852  14.099  26.535  1.00  0.00    -0.049 Br
BRANCH  28  34
HETATM   34  N1  UNL     1      23.533  11.744  20.880  1.00  0.00    -0.325 N
HETATM   35  C4  UNL     1      23.728  10.413  20.533  1.00  0.00     0.222 C
HETATM   36  O1  UNL     1      23.761   9.463  21.315  1.00  0.00    -0.273 OA
ATOM     37  H1  UNL     1      23.530  12.417  20.114  1.00  0.00     0.169 HD
BRANCH  35  38
HETATM   38  C3  UNL     1      23.920  10.062  19.078  1.00  0.00     0.103 C
BRANCH  38  39
HETATM   39  C2  UNL     1      24.711  11.118  18.368  1.00  0.00     0.005 C
HETATM   40  C1  UNL     1      26.172  11.029  18.721  1.00  0.00     0.005 C
ENDBRANCH  38  39
ENDBRANCH  35  38
ENDBRANCH  28  34
BRANCH  29  41
HETATM   41  O5  UNL     1      25.530  13.240  22.147  1.00  0.00    -0.357 OA
ATOM     42  H5  UNL     1      25.891  12.598  21.547  1.00  0.00     0.217 HD
ENDBRANCH  29  41
ENDBRANCH  25  26
ENDBRANCH   1  25
TORSDOF 11
ENDMDL