MODEL 2
REMARK VINA RESULT: -7.857445415      5.286     11.581
REMARK  10 active torsions:
REMARK  status: ('A' for Active; 'I' for Inactive)
REMARK    1  A    between atoms: C3_3  and  N1_4
REMARK       I    between atoms: N1_4  and  C4_6
REMARK    2  A    between atoms: C4_6  and  C5_8
REMARK    3  A    between atoms: N2_15  and  C12_16
REMARK    4  A    between atoms: C12_16  and  C13_17
REMARK       I    between atoms: C13_17  and  N3_19
REMARK    5  A    between atoms: C17_25  and  C19_27
REMARK       I    between atoms: C19_27  and  N4_29
REMARK    6  A    between atoms: N4_29  and  C20_31
REMARK    7  A    between atoms: C20_31  and  C21_32
REMARK       I    between atoms: C21_32  and  N5_34
REMARK    8  A    between atoms: N5_34  and  C22_35
REMARK    9  A    between atoms: C22_35  and  C23_36
REMARK   10  A    between atoms: C23_36  and  N6_37
ROOT
HETATM    1  C1  UNL     1      25.040  16.765  23.740  1.00  0.00     0.014 C
HETATM    2  C2  UNL     1      26.194  16.404  23.778  1.00  0.00    -0.098 C
HETATM    3  C3  UNL     1      27.600  15.934  23.867  1.00  0.00     0.216 C
ENDROOT
BRANCH   3   4
HETATM    4  N1  UNL     1      28.291  16.302  22.638  1.00  0.00    -0.348 N
HETATM    5  C4  UNL     1      29.646  15.903  22.410  1.00  0.00     0.257 C
HETATM    6  O1  UNL     1      30.151  15.197  23.340  1.00  0.00    -0.271 OA
ATOM      7  H1  UNL     1      27.802  16.850  21.930  1.00  0.00     0.163 HD
BRANCH   5   8
HETATM    8  C5  UNL     1      30.400  16.277  21.227  1.00  0.00     0.237 C
HETATM    9  C6  UNL     1      30.483  17.828  21.313  1.00  0.00     0.060 C
HETATM   10  C7  UNL     1      31.817  15.801  21.197  1.00  0.00     0.054 C
HETATM   11  C8  UNL     1      32.237  16.262  19.820  1.00  0.00     0.044 C
HETATM   12  C9  UNL     1      30.938  16.248  19.045  1.00  0.00     0.155 C
HETATM   13  C10 UNL     1      31.194  15.349  17.861  1.00  0.00     0.049 C
HETATM   14  C11 UNL     1      30.630  17.579  18.486  1.00  0.00     0.049 C
HETATM   15  N2  UNL     1      29.855  15.843  19.954  1.00  0.00     0.124 N
BRANCH  15  16
HETATM   16  C12 UNL     1      29.770  14.377  19.948  1.00  0.00     0.377 C
BRANCH  16  17
HETATM   17  C13 UNL     1      28.458  13.869  19.515  1.00  0.00     0.251 C
HETATM   18  O2  UNL     1      27.852  14.560  18.666  1.00  0.00    -0.271 OA
HETATM   19  N3  UNL     1      27.857  12.667  19.989  1.00  0.00    -0.304 N
HETATM   20  C14 UNL     1      28.265  11.794  21.060  1.00  0.00     0.152 C
HETATM   21  C17 UNL     1      26.700  12.082  19.345  1.00  0.00     0.115 C
HETATM   22 BR1  UNL     1      30.159  11.295  20.977  1.00  0.00    -0.049 Br
HETATM   23 BR2  UNL     1      27.956  12.423  22.810  1.00  0.00    -0.049 Br
HETATM   24  C15 UNL     1      27.541  10.475  20.761  1.00  0.00     0.058 C
HETATM   25  C16 UNL     1      27.258  10.611  19.260  1.00  0.00     0.045 C
HETATM   26  C18 UNL     1      26.439  12.552  17.962  1.00  0.00     0.049 C
BRANCH  21  27
HETATM   27  C19 UNL     1      25.482  12.000  20.127  1.00  0.00     0.246 C
HETATM   28  O3  UNL     1      25.325  12.618  21.187  1.00  0.00    -0.271 OA
HETATM   29  N4  UNL     1      24.375  11.169  19.724  1.00  0.00    -0.349 N
ATOM     30  H4  UNL     1      24.398  10.687  18.825  1.00  0.00     0.163 HD
BRANCH  29  31
HETATM   31  C20 UNL     1      23.257  11.023  20.579  1.00  0.00     0.241 C
BRANCH  31  32
HETATM   32  C21 UNL     1      23.211   9.973  21.586  1.00  0.00     0.308 C
HETATM   33  O4  UNL     1      23.904   8.942  21.348  1.00  0.00    -0.255 OA
HETATM   34  N5  UNL     1      22.410  10.072  22.819  1.00  0.00    -0.381 NA
BRANCH  34  35
HETATM   35  C22 UNL     1      21.731  10.151  23.867  1.00  0.00     0.197 C
BRANCH  35  36
HETATM   36  C23 UNL     1      21.524  11.406  24.631  1.00  0.00     0.091 C
BRANCH  36  37
HETATM   37  N6  UNL     1      21.330  11.553  25.993  1.00  0.00    -0.290 NA
HETATM   38  C24 UNL     1      21.896  12.918  26.333  1.00  0.00     0.095 C
HETATM   39  C25 UNL     1      22.225  13.000  27.786  1.00  0.00     0.015 C
HETATM   40  C26 UNL     1      20.952  12.752  28.576  1.00  0.00     0.002 C
HETATM   41  C27 UNL     1      20.235  11.523  28.121  1.00  0.00     0.015 C
HETATM   42  C28 UNL     1      20.049  11.573  26.573  1.00  0.00     0.095 C
ENDBRANCH  36  37
ENDBRANCH  35  36
ENDBRANCH  34  35
ENDBRANCH  31  32
ENDBRANCH  29  31
ENDBRANCH  21  27
ENDBRANCH  16  17
ENDBRANCH  15  16
ENDBRANCH   5   8
ENDBRANCH   3   4
TORSDOF 10
ENDMDL