MODEL 3
REMARK VINA RESULT: -6.392377210      2.161      2.384
REMARK  7 active torsions:
REMARK  status: ('A' for Active; 'I' for Inactive)
REMARK    1  A    between atoms: N2_3  and  N3_4
REMARK    2  A    between atoms: N2_3  and  C3_8
REMARK    3  A    between atoms: N3_4  and  C2_6
REMARK    4  A    between atoms: C4_11  and  N5_12
REMARK    5  A    between atoms: C5_17  and  N7_18
REMARK    6  A    between atoms: C6_21  and  N8_22
REMARK    7  A    between atoms: N8_22  and  O2_24
ROOT
HETATM    1  N1  UNL     1      17.153 -62.667  -1.390  1.00  0.00    -0.170 NA
HETATM    2  C1  UNL     1      17.197 -63.607  -0.682  1.00  0.00     0.207 C
HETATM    3  N2  UNL     1      17.222 -64.731   0.150  1.00  0.00    -0.168 N
ENDROOT
BRANCH   3   4
HETATM    4  N3  UNL     1      17.470 -64.552   1.504  1.00  0.00    -0.260 N
ATOM      5  H3  UNL     1      18.180 -65.114   1.973  1.00  0.00     0.190 HD
BRANCH   4   6
HETATM    6  C2  UNL     1      16.739 -63.592   2.227  1.00  0.00     0.369 C
HETATM    7  O1  UNL     1      15.578 -63.916   2.638  1.00  0.00    -0.282 OA
ENDBRANCH   4   6
ENDBRANCH   3   4
BRANCH   3   8
HETATM    8  C3  UNL     1      17.001 -66.042  -0.321  1.00  0.00     0.185 A
HETATM    9  N4  UNL     1      17.989 -66.710  -0.944  1.00  0.00    -0.172 N
HETATM   10  C4  UNL     1      17.748 -67.980  -1.386  1.00  0.00     0.679 A
ATOM     11  H4  UNL     1      18.901 -66.276  -1.084  1.00  0.00     0.186 HD
HETATM   12  N6  UNL     1      16.551 -68.529  -1.197  1.00  0.00    -0.175 N
HETATM   13  C5  UNL     1      15.540 -67.891  -0.580  1.00  0.00     0.147 A
ATOM     14  H6  UNL     1      16.392 -69.477  -1.536  1.00  0.00     0.186 HD
HETATM   15  C6  UNL     1      15.760 -66.611  -0.125  1.00  0.00     0.145 A
BRANCH  10  16
HETATM   16  N5  UNL     1      18.717 -68.610  -1.984  1.00  0.00    -0.234 N
ATOM     17  H52 UNL     1      19.698 -68.433  -1.770  1.00  0.00     0.174 HD
ATOM     18  H51 UNL     1      18.470 -69.303  -2.690  1.00  0.00     0.174 HD
ENDBRANCH  10  16
BRANCH  13  19
HETATM   19  N7  UNL     1      14.415 -68.476  -0.432  1.00  0.00    -0.383 N
ATOM     20  H72 UNL     1      14.342 -69.490  -0.343  1.00  0.00     0.157 HD
ATOM     21  H71 UNL     1      13.557 -67.926  -0.400  1.00  0.00     0.157 HD
ENDBRANCH  13  19
BRANCH  15  22
HETATM   22  N8  UNL     1      14.699 -65.917   0.534  1.00  0.00    -0.262 N
ATOM     23  H8  UNL     1      14.279 -65.116   0.061  1.00  0.00     0.194 HD
BRANCH  22  24
HETATM   24  O2  UNL     1      14.258 -66.239   1.661  1.00  0.00    -0.289 OA
ATOM     25  H2  UNL     1      14.202 -65.637   2.394  1.00  0.00     0.244 HD
ENDBRANCH  22  24
ENDBRANCH  15  22
ENDBRANCH   3   8
TORSDOF 7
ENDMDL