MODEL 5
REMARK VINA RESULT: -6.334338070      1.651      2.522
REMARK  4 active torsions:
REMARK  status: ('A' for Active; 'I' for Inactive)
REMARK    1  A    between atoms: C1_4  and  C2_6
REMARK    2  A    between atoms: C5_9  and  N3_10
REMARK    3  A    between atoms: N3_10  and  N4_12
REMARK    4  A    between atoms: C6_17  and  N8_18
ROOT
HETATM    1  C2  UNL     1      17.128 -64.832   1.365  1.00  0.00     0.020 A
HETATM    2  C3  UNL     1      17.304 -63.841   0.413  1.00  0.00     0.020 A
HETATM    3  C4  UNL     1      18.563 -63.588  -0.104  1.00  0.00     0.051 A
HETATM    4  C5  UNL     1      19.673 -64.306   0.308  1.00  0.00     0.121 A
HETATM    5  N9  UNL     1      19.461 -65.257   1.233  1.00  0.00    -0.350 N
ATOM      6  H9  UNL     1      20.260 -65.802   1.556  1.00  0.00     0.166 HD
HETATM    7  C7  UNL     1      18.253 -65.528   1.753  1.00  0.00     0.104 A
ENDROOT
BRANCH   4   8
HETATM    8  N3  UNL     1      20.975 -64.043  -0.246  1.00  0.00    -0.251 N
ATOM      9  H3  UNL     1      21.146 -64.167  -1.244  1.00  0.00     0.191 HD
BRANCH   8  10
HETATM   10  N4  UNL     1      22.007 -63.613   0.604  1.00  0.00    -0.004 N
HETATM   11  N5  UNL     1      22.176 -64.066   1.860  1.00  0.00     0.031 NA
HETATM   12  N6  UNL     1      23.238 -63.444   2.389  1.00  0.00     0.008 NA
HETATM   13  N7  UNL     1      23.737 -62.614   1.492  1.00  0.00    -0.115 N
HETATM   14  C6  UNL     1      22.965 -62.729   0.389  1.00  0.00     0.723 A
ATOM     15  H7  UNL     1      24.547 -62.005   1.609  1.00  0.00     0.202 HD
BRANCH  14  16
HETATM   16  N8  UNL     1      23.131 -62.080  -0.710  1.00  0.00    -0.231 N
ATOM     17  H82 UNL     1      23.632 -61.198  -0.807  1.00  0.00     0.174 HD
ATOM     18  H81 UNL     1      22.777 -62.377  -1.619  1.00  0.00     0.174 HD
ENDBRANCH  14  16
ENDBRANCH   8  10
ENDBRANCH   4   8
BRANCH   1  19
HETATM   19  C1  UNL     1      15.809 -65.101   1.929  1.00  0.00     0.121 C
HETATM   20  N1  UNL     1      15.270 -66.262   1.805  1.00  0.00    -0.387 N
ATOM     21  H12 UNL     1      14.349 -66.451   2.199  1.00  0.00     0.157 HD
ATOM     22  H11 UNL     1      15.724 -67.029   1.308  1.00  0.00     0.157 HD
HETATM   23  N2  UNL     1      15.174 -64.031   2.625  1.00  0.00    -0.082 NA
ENDBRANCH   1  19
TORSDOF 4
ENDMDL