MODEL 1
REMARK VINA RESULT: -5.711883614      0.000      0.000
REMARK  4 active torsions:
REMARK  status: ('A' for Active; 'I' for Inactive)
REMARK    1  A    between atoms: N1_1  and  C1_4
REMARK    2  A    between atoms: C4_9  and  N3_10
REMARK    3  A    between atoms: N3_10  and  C5_12
REMARK    4  A    between atoms: C7_16  and  C8_17
ROOT
HETATM    1  C1  UNL     1      15.468 -67.695  -0.310  1.00  0.00     0.116 A
HETATM    2  C2  UNL     1      16.356 -68.497  -0.983  1.00  0.00     0.136 A
HETATM    3  N2  UNL     1      17.673 -68.286  -0.909  1.00  0.00    -0.368 N
ATOM      4  H2  UNL     1      18.331 -68.883  -1.410  1.00  0.00     0.164 HD
HETATM    5  C3  UNL     1      18.109 -67.246  -0.143  1.00  0.00     0.136 A
HETATM    6  C4  UNL     1      17.280 -66.413   0.548  1.00  0.00     0.119 A
HETATM    7  N6  UNL     1      15.945 -66.688   0.427  1.00  0.00    -0.327 N
ATOM      8  H6  UNL     1      15.281 -66.095   0.925  1.00  0.00     0.169 HD
ENDROOT
BRANCH   6   9
HETATM    9  N3  UNL     1      17.709 -65.329   1.341  1.00  0.00    -0.355 N
ATOM     10  H3  UNL     1      18.020 -65.488   2.299  1.00  0.00     0.163 HD
BRANCH   9  11
HETATM   11  C5  UNL     1      17.707 -64.010   0.801  1.00  0.00     0.205 C
HETATM   12  N4  UNL     1      16.980 -63.947  -0.455  1.00  0.00    -0.122 NA
HETATM   13  N5  UNL     1      16.788 -62.592  -0.676  1.00  0.00    -0.146 NA
HETATM   14  C6  UNL     1      16.610 -61.966   0.600  1.00  0.00     0.145 C
HETATM   15  C7  UNL     1      16.887 -63.040   1.632  1.00  0.00     0.103 C
BRANCH  15  16
HETATM   16  C8  UNL     1      15.619 -63.691   1.982  1.00  0.00     0.240 C
HETATM   17  O1  UNL     1      15.561 -64.446   2.959  1.00  0.00    -0.306 OA
ENDBRANCH  15  16
ENDBRANCH   9  11
ENDBRANCH   6   9
BRANCH   1  18
HETATM   18  N1  UNL     1      14.217 -67.962  -0.432  1.00  0.00    -0.384 N
ATOM     19  H12 UNL     1      13.704 -67.892  -1.311  1.00  0.00     0.157 HD
ATOM     20  H11 UNL     1      13.716 -68.263   0.405  1.00  0.00     0.157 HD
ENDBRANCH   1  18
TORSDOF 4
ENDMDL