MODEL 5
REMARK VINA RESULT: -6.583537615      1.552      2.065
REMARK  6 active torsions:
REMARK  status: ('A' for Active; 'I' for Inactive)
REMARK    1  A    between atoms: N1_1  and  C1_4
REMARK    2  A    between atoms: C2_10  and  C3_11
REMARK    3  A    between atoms: C3_11  and  N4_12
REMARK    4  A    between atoms: C3_11  and  N5_16
REMARK    5  A    between atoms: N5_16  and  N6_18
REMARK    6  A    between atoms: C4_20  and  C5_21
ROOT
HETATM    1  C3  UNL     1      16.811 -65.132  -0.376  1.00  0.00     0.352 C
ENDROOT
BRANCH   1   2
HETATM    2  C2  UNL     1      16.189 -64.739   0.899  1.00  0.00     0.130 A
HETATM    3  C1  UNL     1      15.611 -65.590   1.793  1.00  0.00     0.150 A
HETATM    4  N2  UNL     1      15.165 -64.852   2.817  1.00  0.00    -0.224 N
HETATM    5  O1  UNL     1      15.458 -63.615   2.559  1.00  0.00    -0.155 OA
ATOM      6  H2  UNL     1      14.683 -65.199   3.647  1.00  0.00     0.198 HD
HETATM    7  N3  UNL     1      16.064 -63.500   1.436  1.00  0.00    -0.238 N
ATOM      8  H3  UNL     1      16.394 -62.630   1.018  1.00  0.00     0.196 HD
BRANCH   3   9
HETATM    9  N1  UNL     1      15.479 -66.873   1.731  1.00  0.00    -0.382 N
ATOM     10  H12 UNL     1      16.141 -67.574   1.397  1.00  0.00     0.157 HD
ATOM     11  H11 UNL     1      14.637 -67.366   2.030  1.00  0.00     0.157 HD
ENDBRANCH   3   9
ENDBRANCH   1   2
BRANCH   1  12
HETATM   12  N4  UNL     1      15.828 -65.844  -1.154  1.00  0.00    -0.051 N
ATOM     13  H43 UNL     1      16.009 -66.847  -1.195  1.00  0.00     0.277 HD
ATOM     14  H42 UNL     1      14.918 -65.888  -0.694  1.00  0.00     0.277 HD
ATOM     15  H41 UNL     1      15.781 -65.414  -2.078  1.00  0.00     0.277 HD
ENDBRANCH   1  12
BRANCH   1  16
HETATM   16  N5  UNL     1      18.022 -65.867  -0.164  1.00  0.00    -0.301 N
ATOM     17  H5  UNL     1      17.945 -66.848   0.105  1.00  0.00     0.183 HD
BRANCH  16  18
HETATM   18  N6  UNL     1      19.297 -65.327  -0.301  1.00  0.00    -0.311 N
HETATM   19  C4  UNL     1      19.766 -64.601   0.640  1.00  0.00     0.143 C
ATOM     20  H6  UNL     1      19.849 -65.508  -1.140  1.00  0.00     0.185 HD
BRANCH  19  21
HETATM   21  C5  UNL     1      21.115 -64.014   0.522  1.00  0.00     0.091 A
HETATM   22  C6  UNL     1      22.069 -63.857   1.502  1.00  0.00     0.040 A
HETATM   23  C7  UNL     1      23.182 -63.261   0.940  1.00  0.00     0.027 A
HETATM   24  C8  UNL     1      22.847 -63.078  -0.386  1.00  0.00     0.142 A
HETATM   25  O2  UNL     1      21.637 -63.531  -0.586  1.00  0.00    -0.321 OA
ENDBRANCH  19  21
ENDBRANCH  16  18
ENDBRANCH   1  16
TORSDOF 6
ENDMDL