MODEL 5
REMARK VINA RESULT: -6.628010033      1.390      1.592
REMARK  4 active torsions:
REMARK  status: ('A' for Active; 'I' for Inactive)
REMARK    1  A    between atoms: C2_5  and  C3_6
REMARK    2  A    between atoms: C3_6  and  N3_7
REMARK    3  A    between atoms: N3_7  and  N4_9
REMARK       I    between atoms: N4_9  and  C4_11
REMARK       I    between atoms: C4_11  and  N5_12
REMARK       I    between atoms: C4_11  and  N6_16
REMARK    4  A    between atoms: C5_22  and  N8_23
ROOT
HETATM    1  N3  UNL     1      21.396 -64.724   1.232  1.00  0.00    -0.309 N
ATOM      2  H3  UNL     1      21.283 -65.563   1.802  1.00  0.00     0.185 HD
ENDROOT
BRANCH   1   3
HETATM    3  C3  UNL     1      20.367 -64.098   0.793  1.00  0.00     0.155 C
BRANCH   3   4
HETATM    4  C2  UNL     1      19.129 -64.830   0.447  1.00  0.00     0.125 A
HETATM    5  N2  UNL     1      18.775 -66.060   0.822  1.00  0.00    -0.326 N
HETATM    6  C1  UNL     1      17.577 -66.409   0.319  1.00  0.00     0.168 A
ATOM      7  H2  UNL     1      19.343 -66.663   1.417  1.00  0.00     0.168 HD
HETATM    8  N1  UNL     1      16.859 -67.622   0.485  1.00  0.00    -0.078 NA
HETATM    9  C5  UNL     1      17.171 -65.292  -0.424  1.00  0.00     0.216 A
HETATM   10  N7  UNL     1      18.133 -64.362  -0.323  1.00  0.00    -0.320 N
ATOM     11  H7  UNL     1      18.112 -63.442  -0.763  1.00  0.00     0.169 HD
BRANCH   9  12
HETATM   12  N8  UNL     1      15.946 -65.186  -1.152  1.00  0.00    -0.094 N
HETATM   13  O1  UNL     1      15.986 -64.891  -2.353  1.00  0.00    -0.530 OA
HETATM   14  O2  UNL     1      14.732 -65.397  -0.573  1.00  0.00    -0.530 OA
ENDBRANCH   9  12
ENDBRANCH   3   4
ENDBRANCH   1   3
BRANCH   1  15
HETATM   15  N4  UNL     1      22.662 -64.253   0.929  1.00  0.00    -0.284 N
HETATM   16  C4  UNL     1      23.375 -63.290   1.745  1.00  0.00     0.494 C
HETATM   17  N5  UNL     1      23.609 -63.738   3.084  1.00  0.00    -0.032 N
HETATM   18  N6  UNL     1      24.616 -62.899   1.155  1.00  0.00    -0.032 N
ATOM     19  H53 UNL     1      22.734 -64.013   3.531  1.00  0.00     0.279 HD
ATOM     20  H52 UNL     1      24.090 -64.639   3.085  1.00  0.00     0.279 HD
ATOM     21  H51 UNL     1      24.111 -63.060   3.658  1.00  0.00     0.279 HD
ATOM     22  H63 UNL     1      25.198 -63.711   0.948  1.00  0.00     0.279 HD
ATOM     23  H62 UNL     1      24.480 -62.551   0.206  1.00  0.00     0.279 HD
ATOM     24  H61 UNL     1      25.118 -62.221   1.729  1.00  0.00     0.279 HD
ATOM     25  H4  UNL     1      23.117 -64.603   0.087  1.00  0.00     0.184 HD
ENDBRANCH   1  15
TORSDOF 4
ENDMDL