MODEL 2
REMARK VINA RESULT: -7.223095910      8.367      9.556
REMARK  4 active torsions:
REMARK  status: ('A' for Active; 'I' for Inactive)
REMARK       I    between atoms: N1_1  and  C1_4
REMARK       I    between atoms: C1_4  and  N3_6
REMARK    1  A    between atoms: N3_6  and  N4_8
REMARK    2  A    between atoms: N4_8  and  N5_10
REMARK    3  A    between atoms: N5_10  and  C2_12
REMARK    4  A    between atoms: C3_15  and  N7_16
ROOT
HETATM    1  C2  UNL     1      16.525 -65.768   0.837  1.00  0.00     0.166 A
HETATM    2  N6  UNL     1      15.325 -65.190   0.688  1.00  0.00    -0.305 N
ATOM      3  H6  UNL     1      15.063 -64.278   1.060  1.00  0.00     0.170 HD
HETATM    4  C3  UNL     1      14.509 -66.005  -0.036  1.00  0.00     0.253 A
HETATM    5  N8  UNL     1      15.244 -67.094  -0.321  1.00  0.00    -0.308 N
ATOM      6  H8  UNL     1      14.910 -67.895  -0.857  1.00  0.00     0.170 HD
HETATM    7  C4  UNL     1      16.472 -66.982   0.193  1.00  0.00     0.165 A
HETATM    8  N9  UNL     1      17.552 -67.939   0.102  1.00  0.00    -0.078 NA
ENDROOT
BRANCH   1   9
HETATM    9  N5  UNL     1      17.653 -65.246   1.526  1.00  0.00    -0.268 N
ATOM     10  H5  UNL     1      17.507 -64.742   2.401  1.00  0.00     0.190 HD
BRANCH   9  11
HETATM   11  N4  UNL     1      18.836 -65.387   1.087  1.00  0.00    -0.239 N
ATOM     12  H4  UNL     1      19.252 -66.317   1.102  1.00  0.00     0.208 HD
BRANCH  11  13
HETATM   13  N3  UNL     1      19.589 -64.331   0.588  1.00  0.00    -0.259 N
HETATM   14  C1  UNL     1      20.999 -64.315   0.637  1.00  0.00     0.201 C
HETATM   15  N1  UNL     1      21.594 -64.712   1.697  1.00  0.00    -0.372 N
HETATM   16  N2  UNL     1      21.763 -63.868  -0.463  1.00  0.00    -0.062 NA
ATOM     17  H12 UNL     1      22.613 -64.700   1.732  1.00  0.00     0.158 HD
ATOM     18  H11 UNL     1      21.041 -65.035   2.491  1.00  0.00     0.158 HD
ATOM     19  H3  UNL     1      19.104 -63.537   0.170  1.00  0.00     0.191 HD
ENDBRANCH  11  13
ENDBRANCH   9  11
ENDBRANCH   1   9
BRANCH   4  20
HETATM   20  N7  UNL     1      13.163 -65.727  -0.393  1.00  0.00    -0.079 N
HETATM   21  O1  UNL     1      12.650 -64.666  -0.026  1.00  0.00    -0.529 OA
HETATM   22  O2  UNL     1      12.432 -66.607  -1.132  1.00  0.00    -0.529 OA
ENDBRANCH   4  20
TORSDOF 4
ENDMDL