MODEL 5
REMARK VINA RESULT: -6.749945710      1.274      1.683
REMARK  5 active torsions:
REMARK  status: ('A' for Active; 'I' for Inactive)
REMARK    1  A    between atoms: N1_1  and  C1_4
REMARK    2  A    between atoms: C2_7  and  N3_8
REMARK    3  A    between atoms: N3_8  and  N4_10
REMARK    4  A    between atoms: N5_12  and  N6_14
REMARK    5  A    between atoms: C3_16  and  C4_17
ROOT
HETATM    1  N4  UNL     1      19.148 -64.063   0.720  1.00  0.00    -0.214 N
ATOM      2  H4  UNL     1      18.854 -63.142   1.044  1.00  0.00     0.210 HD
HETATM    3  N5  UNL     1      18.402 -65.070   0.939  1.00  0.00    -0.228 N
ATOM      4  H5  UNL     1      17.524 -64.917   1.436  1.00  0.00     0.210 HD
ENDROOT
BRANCH   1   5
HETATM    5  N3  UNL     1      20.356 -64.195   0.050  1.00  0.00    -0.115 N
ATOM      6  H3  UNL     1      20.359 -64.431  -0.942  1.00  0.00     0.207 HD
BRANCH   5   7
HETATM    7  C2  UNL     1      21.588 -64.007   0.730  1.00  0.00     0.727 A
HETATM    8  N2  UNL     1      22.650 -63.297   0.312  1.00  0.00    -0.019 N
HETATM    9  C1  UNL     1      23.595 -63.372   1.238  1.00  0.00     0.705 A
ATOM     10  H2  UNL     1      22.717 -62.787  -0.569  1.00  0.00     0.203 HD
HETATM   11  N11 UNL     1      23.123 -64.129   2.235  1.00  0.00    -0.117 N
HETATM   12  N10 UNL     1      21.901 -64.520   1.933  1.00  0.00    -0.116 N
ATOM     13  H11 UNL     1      23.627 -64.365   3.090  1.00  0.00     0.206 HD
ATOM     14  H10 UNL     1      21.299 -65.108   2.509  1.00  0.00     0.206 HD
BRANCH   9  15
HETATM   15  N1  UNL     1      24.784 -62.822   1.218  1.00  0.00    -0.233 N
ATOM     16  H12 UNL     1      24.960 -61.818   1.270  1.00  0.00     0.174 HD
ATOM     17  H11 UNL     1      25.688 -63.289   1.149  1.00  0.00     0.174 HD
ENDBRANCH   9  15
ENDBRANCH   5   7
ENDBRANCH   1   5
BRANCH   3  18
HETATM   18  N6  UNL     1      18.710 -66.360   0.542  1.00  0.00    -0.293 N
HETATM   19  C3  UNL     1      17.854 -67.294   0.338  1.00  0.00     0.158 C
ATOM     20  H6  UNL     1      19.695 -66.586   0.401  1.00  0.00     0.187 HD
BRANCH  19  21
HETATM   21  C4  UNL     1      16.411 -67.072   0.513  1.00  0.00     0.138 A
HETATM   22  N7  UNL     1      15.574 -66.762  -0.476  1.00  0.00    -0.335 N
HETATM   23  C5  UNL     1      14.337 -66.638   0.079  1.00  0.00     0.199 A
ATOM     24  H7  UNL     1      15.814 -66.641  -1.460  1.00  0.00     0.168 HD
HETATM   25  N8  UNL     1      14.425 -66.874   1.405  1.00  0.00    -0.295 N
HETATM   26  N9  UNL     1      15.697 -67.134   1.640  1.00  0.00    -0.283 N
ATOM     27  H8  UNL     1      13.665 -66.854   2.086  1.00  0.00     0.187 HD
ATOM     28  H9  UNL     1      16.083 -67.353   2.558  1.00  0.00     0.188 HD
ENDBRANCH  19  21
ENDBRANCH   3  18
TORSDOF 5
ENDMDL