MODEL 2
REMARK VINA RESULT: -6.268458954      6.359      8.444
REMARK  4 active torsions:
REMARK  status: ('A' for Active; 'I' for Inactive)
REMARK       I    between atoms: C1_4  and  N2_5
REMARK       I    between atoms: C1_4  and  N7_20
REMARK    1  A    between atoms: N2_5  and  C2_7
REMARK    2  A    between atoms: C5_14  and  N5_15
REMARK    3  A    between atoms: N5_15  and  N6_17
REMARK    4  A    between atoms: N7_20  and  N8_22
ROOT
HETATM    1  C2  UNL     1      17.517 -67.106  -0.054  1.00  0.00     0.110 A
HETATM    2  C3  UNL     1      18.482 -67.659  -0.873  1.00  0.00     0.122 A
HETATM    3  N3  UNL     1      18.156 -68.621  -1.738  1.00  0.00    -0.360 N
ATOM      4  H3  UNL     1      18.880 -69.019  -2.337  1.00  0.00     0.166 HD
HETATM    5  C4  UNL     1      16.898 -69.077  -1.839  1.00  0.00     0.182 A
HETATM    6  N4  UNL     1      15.946 -68.555  -1.054  1.00  0.00    -0.336 N
ATOM      7  H4  UNL     1      14.990 -68.901  -1.130  1.00  0.00     0.168 HD
HETATM    8  C5  UNL     1      16.230 -67.582  -0.165  1.00  0.00     0.149 A
ENDROOT
BRANCH   1   9
HETATM    9  N2  UNL     1      17.809 -66.081   0.880  1.00  0.00    -0.186 N
HETATM   10  C1  UNL     1      18.033 -64.735   0.495  1.00  0.00     0.695 C
HETATM   11  N1  UNL     1      19.235 -64.322   0.338  1.00  0.00    -0.233 N
HETATM   12  N7  UNL     1      16.971 -63.829   0.279  1.00  0.00    -0.072 N
ATOM     13  H12 UNL     1      20.003 -64.976   0.494  1.00  0.00     0.174 HD
ATOM     14  H11 UNL     1      19.397 -63.353   0.061  1.00  0.00     0.174 HD
ATOM     15  H7  UNL     1      16.962 -63.254  -0.564  1.00  0.00     0.212 HD
ATOM     16  H2  UNL     1      17.860 -66.321   1.870  1.00  0.00     0.184 HD
BRANCH  12  17
HETATM   17  N8  UNL     1      15.932 -63.713   1.207  1.00  0.00    -0.024 N
HETATM   18  O1  UNL     1      14.866 -64.296   1.051  1.00  0.00    -0.516 OA
HETATM   19  O2  UNL     1      16.130 -62.919   2.319  1.00  0.00    -0.516 OA
ENDBRANCH  12  17
ENDBRANCH   1   9
BRANCH   8  20
HETATM   20  N5  UNL     1      15.182 -67.053   0.657  1.00  0.00    -0.290 N
ATOM     21  H5  UNL     1      14.572 -66.338   0.261  1.00  0.00     0.188 HD
BRANCH  20  22
HETATM   22  N6  UNL     1      14.955 -67.463   1.959  1.00  0.00    -0.344 N
ATOM     23  H62 UNL     1      15.335 -68.368   2.237  1.00  0.00     0.176 HD
ATOM     24  H61 UNL     1      14.434 -66.910   2.639  1.00  0.00     0.176 HD
ENDBRANCH  20  22
ENDBRANCH   8  20
TORSDOF 4
ENDMDL