MODEL 1
REMARK VINA RESULT: -6.785555160      0.000      0.000
REMARK  4 active torsions:
REMARK  status: ('A' for Active; 'I' for Inactive)
REMARK    1  A    between atoms: N1_1  and  C1_4
REMARK    2  A    between atoms: C2_7  and  N3_8
REMARK    3  A    between atoms: N3_8  and  N4_10
REMARK    4  A    between atoms: N4_10  and  C3_12
ROOT
HETATM    1  C1  UNL     1      22.830 -63.927   0.485  1.00  0.00     0.694 A
HETATM    2  N2  UNL     1      23.317 -62.669   0.589  1.00  0.00    -0.021 N
ATOM      3  H2  UNL     1      23.070 -62.107   1.403  1.00  0.00     0.203 HD
HETATM    4  C2  UNL     1      24.118 -62.138  -0.350  1.00  0.00     0.715 A
HETATM    5  N6  UNL     1      24.418 -62.910  -1.403  1.00  0.00    -0.139 N
ATOM      6  H6  UNL     1      25.024 -62.530  -2.129  1.00  0.00     0.189 HD
HETATM    7  C6  UNL     1      23.954 -64.164  -1.543  1.00  0.00     0.352 A
HETATM    8  O2  UNL     1      24.274 -64.838  -2.559  1.00  0.00    -0.246 OA
HETATM    9  N7  UNL     1      23.140 -64.688  -0.578  1.00  0.00    -0.141 N
ATOM     10  H7  UNL     1      22.776 -65.637  -0.662  1.00  0.00     0.189 HD
ENDROOT
BRANCH   4  11
HETATM   11  N3  UNL     1      24.647 -60.828  -0.277  1.00  0.00    -0.130 N
ATOM     12  H3  UNL     1      25.344 -60.546  -0.966  1.00  0.00     0.205 HD
BRANCH  11  13
HETATM   13  N4  UNL     1      24.259 -59.902   0.697  1.00  0.00    -0.270 N
ATOM     14  H4  UNL     1      23.626 -60.224   1.429  1.00  0.00     0.189 HD
BRANCH  13  15
HETATM   15  C3  UNL     1      24.676 -58.556   0.741  1.00  0.00     0.144 A
HETATM   16  C4  UNL     1      24.501 -57.599  -0.230  1.00  0.00     0.193 A
HETATM   17  O1  UNL     1      25.040 -56.492   0.226  1.00  0.00    -0.314 OA
HETATM   18  C5  UNL     1      25.537 -56.710   1.422  1.00  0.00     0.234 A
HETATM   19  N5  UNL     1      25.324 -57.986   1.765  1.00  0.00    -0.330 N
ATOM     20  H5  UNL     1      25.601 -58.437   2.638  1.00  0.00     0.168 HD
ENDBRANCH  13  15
ENDBRANCH  11  13
ENDBRANCH   4  11
BRANCH   1  21
HETATM   21  N1  UNL     1      22.078 -64.362   1.419  1.00  0.00    -0.234 N
ATOM     22  H12 UNL     1      21.600 -63.726   2.058  1.00  0.00     0.174 HD
ATOM     23  H11 UNL     1      21.961 -65.371   1.514  1.00  0.00     0.174 HD
ENDBRANCH   1  21
TORSDOF 4
ENDMDL