MODEL 3
REMARK VINA RESULT: -6.244348060      2.539      5.949
REMARK  10 active torsions:
REMARK  status: ('A' for Active; 'I' for Inactive)
REMARK       I    between atoms: C1_4  and  N3_6
REMARK    1  A    between atoms: N3_6  and  C2_8
REMARK    2  A    between atoms: C2_8  and  C3_9
REMARK    3  A    between atoms: C3_9  and  O1_10
REMARK    4  A    between atoms: O1_10  and  C4_11
REMARK    5  A    between atoms: C4_11  and  C5_12
REMARK    6  A    between atoms: C5_12  and  O2_13
REMARK    7  A    between atoms: O2_13  and  C6_14
REMARK    8  A    between atoms: C6_14  and  C7_15
REMARK    9  A    between atoms: C7_15  and  N4_16
REMARK   10  A    between atoms: C11_21  and  N6_22
ROOT
HETATM    1  C6  UNL     1      -1.098  31.440 -18.140  1.00  0.00     0.212 C
ENDROOT
BRANCH   1   2
HETATM    2  O2  UNL     1      -0.651  30.171 -18.330  1.00  0.00    -0.384 OA
BRANCH   2   3
HETATM    3  C5  UNL     1       0.040  29.553 -17.341  1.00  0.00     0.194 C
BRANCH   3   4
HETATM    4  C4  UNL     1      -0.313  28.151 -16.998  1.00  0.00     0.193 C
BRANCH   4   5
HETATM    5  O1  UNL     1      -1.546  27.716 -17.384  1.00  0.00    -0.387 OA
BRANCH   5   6
HETATM    6  C3  UNL     1      -2.610  28.067 -16.609  1.00  0.00     0.187 C
BRANCH   6   7
HETATM    7  C2  UNL     1      -3.958  27.903 -17.241  1.00  0.00     0.148 C
BRANCH   7   8
HETATM    8  N3  UNL     1      -4.029  28.451 -18.565  1.00  0.00    -0.363 N
HETATM    9  C1  UNL     1      -4.398  29.803 -18.773  1.00  0.00     0.181 C
HETATM   10  N1  UNL     1      -5.080  30.461 -17.901  1.00  0.00    -0.374 N
HETATM   11  N2  UNL     1      -4.010  30.457 -19.968  1.00  0.00    -0.064 NA
ATOM     12  H12 UNL     1      -5.346  31.435 -18.051  1.00  0.00     0.158 HD
ATOM     13  H11 UNL     1      -5.360  29.990 -17.040  1.00  0.00     0.158 HD
ATOM     14  H3  UNL     1      -3.811  27.860 -19.367  1.00  0.00     0.162 HD
ENDBRANCH   7   8
ENDBRANCH   6   7
ENDBRANCH   5   6
ENDBRANCH   4   5
ENDBRANCH   3   4
ENDBRANCH   2   3
ENDBRANCH   1   2
BRANCH   1  15
HETATM   15  C7  UNL     1       0.044  32.364 -17.856  1.00  0.00     0.100 C
BRANCH  15  16
HETATM   16  N4  UNL     1       0.223  33.485 -18.689  1.00  0.00    -0.287 N
HETATM   17  C8  UNL     1      -0.373  33.526 -19.907  1.00  0.00     0.103 C
HETATM   18  C9  UNL     1      -0.076  34.315 -21.008  1.00  0.00     0.048 C
HETATM   19  C10 UNL     1       0.743  35.432 -21.093  1.00  0.00     0.091 C
HETATM   20  N5  UNL     1       0.879  36.029 -22.374  1.00  0.00    -0.098 NA
HETATM   21  C11 UNL     1       1.423  35.989 -20.018  1.00  0.00     0.127 C
HETATM   22  N7  UNL     1       1.347  35.667 -18.711  1.00  0.00    -0.293 N
HETATM   23  C12 UNL     1       1.001  34.458 -18.178  1.00  0.00     0.331 C
ATOM     24  H7  UNL     1       1.573  36.408 -18.046  1.00  0.00     0.172 HD
HETATM   25  O3  UNL     1       1.504  34.256 -17.036  1.00  0.00    -0.246 OA
BRANCH  21  26
HETATM   26  N6  UNL     1       2.233  36.942 -20.340  1.00  0.00    -0.384 N
ATOM     27  H62 UNL     1       2.387  37.101 -21.335  1.00  0.00     0.157 HD
ATOM     28  H61 UNL     1       2.633  37.438 -19.544  1.00  0.00     0.157 HD
ENDBRANCH  21  26
ENDBRANCH  15  16
ENDBRANCH   1  15
TORSDOF 10
ENDMDL