MODEL 3
REMARK VINA RESULT: -5.932361911      1.969      2.749
REMARK  11 active torsions:
REMARK  status: ('A' for Active; 'I' for Inactive)
REMARK    1  A    between atoms: C1_4  and  C2_5
REMARK    2  A    between atoms: C2_5  and  C3_6
REMARK    3  A    between atoms: C3_6  and  N2_7
REMARK    4  A    between atoms: N2_7  and  C4_10
REMARK    5  A    between atoms: C4_10  and  C5_11
REMARK    6  A    between atoms: C5_11  and  N3_12
REMARK    7  A    between atoms: C8_15  and  N4_16
REMARK    8  A    between atoms: C10_24  and  C11_25
REMARK    9  A    between atoms: C11_25  and  C12_26
REMARK   10  A    between atoms: C12_26  and  C13_27
REMARK   11  A    between atoms: C13_27  and  N6_28
ROOT
HETATM    1  N3  UNL     1      -2.954  30.782 -17.194  1.00  0.00    -0.349 N
HETATM    2  C6  UNL     1      -4.201  31.355 -16.814  1.00  0.00     0.128 C
HETATM    3  C7  UNL     1      -5.333  30.623 -17.500  1.00  0.00     0.062 C
HETATM    4  C8  UNL     1      -5.255  29.137 -17.437  1.00  0.00     0.276 C
HETATM    5  C9  UNL     1      -4.973  28.574 -16.105  1.00  0.00     0.249 C
HETATM    6  O1  UNL     1      -5.994  28.333 -15.436  1.00  0.00    -0.271 OA
HETATM    7  N5  UNL     1      -3.790  28.247 -15.420  1.00  0.00    -0.346 N
ATOM      8  H5  UNL     1      -3.934  27.606 -14.639  1.00  0.00     0.163 HD
HETATM    9  C10 UNL     1      -2.367  28.648 -15.608  1.00  0.00     0.176 C
HETATM   10  C14 UNL     1      -2.317  29.535 -16.831  1.00  0.00     0.242 C
HETATM   11  O2  UNL     1      -1.567  29.125 -17.758  1.00  0.00    -0.271 OA
ENDROOT
BRANCH   1  12
HETATM   12  C5  UNL     1      -2.099  31.485 -18.111  1.00  0.00     0.153 C
BRANCH  12  13
HETATM   13  C4  UNL     1      -2.509  32.862 -18.483  1.00  0.00     0.252 C
BRANCH  13  14
HETATM   14  N2  UNL     1      -1.378  33.734 -18.115  1.00  0.00    -0.073 N
ATOM     15  H22 UNL     1      -0.650  33.214 -17.625  1.00  0.00     0.277 HD
ATOM     16  H21 UNL     1      -1.635  34.385 -17.373  1.00  0.00     0.277 HD
BRANCH  14  17
HETATM   17  C3  UNL     1      -0.846  34.432 -19.279  1.00  0.00     0.237 C
BRANCH  17  18
HETATM   18  C2  UNL     1       0.604  34.747 -19.011  1.00  0.00     0.071 C
BRANCH  18  19
HETATM   19  C1  UNL     1       1.114  34.227 -17.733  1.00  0.00     0.054 C
HETATM   20  N1  UNL     1       1.769  35.003 -16.942  1.00  0.00    -0.411 N
ATOM     21  H12 UNL     1       1.925  35.973 -17.215  1.00  0.00     0.155 HD
ATOM     22  H11 UNL     1       2.122  34.643 -16.055  1.00  0.00     0.155 HD
ENDBRANCH  18  19
ENDBRANCH  17  18
ENDBRANCH  14  17
ENDBRANCH  13  14
ENDBRANCH  12  13
ENDBRANCH   1  12
BRANCH   9  23
HETATM   23  C11 UNL     1      -2.053  29.420 -14.363  1.00  0.00     0.036 C
BRANCH  23  24
HETATM   24  C12 UNL     1      -2.863  29.184 -13.162  1.00  0.00     0.030 C
BRANCH  24  25
HETATM   25  C13 UNL     1      -3.720  30.271 -12.643  1.00  0.00     0.230 C
BRANCH  25  26
HETATM   26  N6  UNL     1      -3.512  31.528 -13.267  1.00  0.00    -0.079 N
ATOM     27  H63 UNL     1      -2.768  31.462 -13.961  1.00  0.00     0.274 HD
ATOM     28  H62 UNL     1      -4.299  31.758 -13.874  1.00  0.00     0.274 HD
ATOM     29  H61 UNL     1      -3.327  32.293 -12.619  1.00  0.00     0.274 HD
ENDBRANCH  25  26
ENDBRANCH  24  25
ENDBRANCH  23  24
ENDBRANCH   9  23
BRANCH   4  30
HETATM   30  N4  UNL     1      -6.497  28.597 -17.993  1.00  0.00    -0.066 N
ATOM     31  H43 UNL     1      -6.474  28.520 -19.010  1.00  0.00     0.275 HD
ATOM     32  H42 UNL     1      -6.625  27.607 -17.783  1.00  0.00     0.275 HD
ATOM     33  H41 UNL     1      -7.269  29.175 -17.658  1.00  0.00     0.275 HD
ENDBRANCH   4  30
TORSDOF 11
ENDMDL