MODEL 4
REMARK VINA RESULT: -5.935809669      1.204      1.279
REMARK  12 active torsions:
REMARK  status: ('A' for Active; 'I' for Inactive)
REMARK    1  A    between atoms: N3_4  and  C2_6
REMARK    2  A    between atoms: C3_7  and  O1_8
REMARK    3  A    between atoms: C4_10  and  C5_11
REMARK    4  A    between atoms: C5_11  and  O2_12
REMARK    5  A    between atoms: N4_14  and  C6_15
REMARK    6  A    between atoms: C6_15  and  C7_16
REMARK    7  A    between atoms: C7_16  and  C8_17
REMARK    8  A    between atoms: C8_17  and  C9_18
REMARK    9  A    between atoms: C9_18  and  C10_19
REMARK   10  A    between atoms: C10_19  and  C11_20
REMARK   11  A    between atoms: C11_20  and  O3_21
REMARK   12  A    between atoms: C12_23  and  C13_24
ROOT
HETATM    1  C2  UNL     1      -2.110  31.770 -18.101  1.00  0.00     0.144 C
HETATM    2  C3  UNL     1      -3.482  32.337 -18.278  1.00  0.00     0.168 C
HETATM    3  C4  UNL     1      -4.436  31.285 -17.784  1.00  0.00     0.138 C
HETATM    4  N4  UNL     1      -3.695  30.552 -16.797  1.00  0.00    -0.371 N
HETATM    5  C12 UNL     1      -2.317  30.709 -17.014  1.00  0.00     0.170 C
ENDROOT
BRANCH   4   6
HETATM    6  C6  UNL     1      -4.235  29.303 -16.463  1.00  0.00     0.060 C
BRANCH   6   7
HETATM    7  C7  UNL     1      -5.257  29.318 -15.411  1.00  0.00     0.044 C
BRANCH   7   8
HETATM    8  C8  UNL     1      -5.087  28.555 -14.161  1.00  0.00     0.005 C
BRANCH   8   9
HETATM    9  C9  UNL     1      -3.755  28.324 -13.565  1.00  0.00     0.002 C
BRANCH   9  10
HETATM   10  C10 UNL     1      -3.295  29.320 -12.550  1.00  0.00     0.026 C
BRANCH  10  11
HETATM   11  C11 UNL     1      -2.575  30.490 -13.262  1.00  0.00     0.164 C
BRANCH  11  12
HETATM   12  O3  UNL     1      -3.380  31.617 -13.238  1.00  0.00    -0.401 OA
ATOM     13  H3  UNL     1      -4.259  31.388 -13.518  1.00  0.00     0.209 HD
ENDBRANCH  11  12
ENDBRANCH  10  11
ENDBRANCH   9  10
ENDBRANCH   8   9
ENDBRANCH   7   8
ENDBRANCH   6   7
ENDBRANCH   4   6
BRANCH   3  14
HETATM   14  C5  UNL     1      -5.053  30.556 -18.893  1.00  0.00     0.192 C
BRANCH  14  15
HETATM   15  O2  UNL     1      -6.073  31.385 -19.433  1.00  0.00    -0.399 OA
ATOM     16  H2  UNL     1      -5.867  32.281 -19.195  1.00  0.00     0.209 HD
ENDBRANCH  14  15
ENDBRANCH   3  14
BRANCH   5  17
HETATM   17  C13 UNL     1      -1.507  29.530 -17.340  1.00  0.00     0.258 C
HETATM   18  O4  UNL     1      -0.443  29.678 -17.951  1.00  0.00    -0.305 OA
ENDBRANCH   5  17
BRANCH   2  19
HETATM   19  O1  UNL     1      -3.647  32.619 -19.641  1.00  0.00    -0.391 OA
ATOM     20  H1  UNL     1      -3.549  33.558 -19.751  1.00  0.00     0.210 HD
ENDBRANCH   2  19
BRANCH   1  21
HETATM   21  N3  UNL     1      -1.112  32.723 -17.719  1.00  0.00    -0.357 N
HETATM   22  C1  UNL     1      -0.308  33.240 -18.604  1.00  0.00     0.197 C
HETATM   23  N1  UNL     1      -0.428  32.850 -19.956  1.00  0.00    -0.067 NA
HETATM   24  N2  UNL     1       0.677  34.185 -18.240  1.00  0.00    -0.067 NA
ATOM     25  H3  UNL     1      -1.030  33.002 -16.741  1.00  0.00     0.162 HD
ENDBRANCH   1  21
TORSDOF 12
ENDMDL