MODEL 3
REMARK VINA RESULT: -6.022947303      2.312      4.291
REMARK  11 active torsions:
REMARK  status: ('A' for Active; 'I' for Inactive)
REMARK    1  A    between atoms: C3_3  and  C4_4
REMARK    2  A    between atoms: C3_3  and  N6_21
REMARK    3  A    between atoms: C4_4  and  N1_5
REMARK    4  A    between atoms: C7_9  and  N2_10
REMARK    5  A    between atoms: C9_15  and  C10_16
REMARK    6  A    between atoms: C10_16  and  N5_17
REMARK    7  A    between atoms: N6_21  and  C11_24
REMARK    8  A    between atoms: C11_24  and  C12_25
REMARK    9  A    between atoms: C12_25  and  C13_26
REMARK   10  A    between atoms: C13_26  and  C14_27
REMARK   11  A    between atoms: C14_27  and  N7_28
ROOT
HETATM    1  C1  UNL     1      -4.763  32.726 -16.897  1.00  0.00     0.014 C
HETATM    2  C2  UNL     1      -3.789  32.778 -17.607  1.00  0.00    -0.083 C
HETATM    3  C3  UNL     1      -2.609  32.843 -18.440  1.00  0.00     0.281 C
ENDROOT
BRANCH   3   4
HETATM    4  C4  UNL     1      -1.862  31.539 -18.574  1.00  0.00     0.172 C
BRANCH   4   5
HETATM    5  N1  UNL     1      -2.590  30.354 -18.328  1.00  0.00    -0.341 N
HETATM    6  C5  UNL     1      -3.793  29.974 -19.034  1.00  0.00     0.222 C
HETATM    7  O1  UNL     1      -4.258  30.413 -20.106  1.00  0.00    -0.273 OA
HETATM    8  C6  UNL     1      -4.497  28.881 -18.260  1.00  0.00     0.130 C
HETATM    9  C7  UNL     1      -3.832  29.068 -16.918  1.00  0.00     0.117 C
HETATM   10  C9  UNL     1      -2.393  29.279 -17.362  1.00  0.00     0.135 C
BRANCH   9  11
HETATM   11  N2  UNL     1      -4.044  27.915 -16.114  1.00  0.00    -0.360 N
HETATM   12  C8  UNL     1      -4.538  27.957 -14.917  1.00  0.00     0.197 C
HETATM   13  N3  UNL     1      -4.916  29.161 -14.287  1.00  0.00    -0.067 NA
HETATM   14  N4  UNL     1      -4.689  26.725 -14.231  1.00  0.00    -0.067 NA
ATOM     15  H2  UNL     1      -3.794  27.004 -16.501  1.00  0.00     0.162 HD
ENDBRANCH   9  11
BRANCH  10  16
HETATM   16  C10 UNL     1      -1.523  29.629 -16.209  1.00  0.00     0.256 C
BRANCH  16  17
HETATM   17  N5  UNL     1      -2.159  30.478 -15.235  1.00  0.00    -0.077 N
ATOM     18  H53 UNL     1      -3.097  30.735 -15.541  1.00  0.00     0.274 HD
ATOM     19  H52 UNL     1      -2.391  29.948 -14.395  1.00  0.00     0.274 HD
ATOM     20  H51 UNL     1      -1.619  31.310 -14.997  1.00  0.00     0.274 HD
ENDBRANCH  16  17
ENDBRANCH  10  16
ENDBRANCH   4   5
ENDBRANCH   3   4
BRANCH   3  21
HETATM   21  N6  UNL     1      -1.798  33.943 -18.082  1.00  0.00    -0.059 N
ATOM     22  H62 UNL     1      -2.137  34.807 -18.505  1.00  0.00     0.278 HD
ATOM     23  H61 UNL     1      -1.918  34.187 -17.098  1.00  0.00     0.278 HD
BRANCH  21  24
HETATM   24  C11 UNL     1      -0.418  33.714 -18.397  1.00  0.00     0.234 C
BRANCH  24  25
HETATM   25  C12 UNL     1       0.196  34.847 -19.134  1.00  0.00     0.029 C
BRANCH  25  26
HETATM   26  C13 UNL     1       0.784  34.445 -20.489  1.00  0.00     0.029 C
BRANCH  26  27
HETATM   27  C14 UNL     1      -0.274  33.891 -21.382  1.00  0.00     0.229 C
BRANCH  27  28
HETATM   28  N7  UNL     1      -0.531  34.833 -22.485  1.00  0.00    -0.079 N
ATOM     29  H73 UNL     1      -1.526  34.920 -22.694  1.00  0.00     0.274 HD
ATOM     30  H72 UNL     1      -0.354  35.801 -22.214  1.00  0.00     0.274 HD
ATOM     31  H71 UNL     1       0.013  34.557 -23.303  1.00  0.00     0.274 HD
ENDBRANCH  27  28
ENDBRANCH  26  27
ENDBRANCH  25  26
ENDBRANCH  24  25
ENDBRANCH  21  24
ENDBRANCH   3  21
TORSDOF 11
ENDMDL