MODEL 3
REMARK VINA RESULT: -6.335381359      2.249      2.986
REMARK  11 active torsions:
REMARK  status: ('A' for Active; 'I' for Inactive)
REMARK    1  A    between atoms: N1_1  and  C1_5
REMARK    2  A    between atoms: C1_5  and  C2_6
REMARK    3  A    between atoms: C2_6  and  C3_7
REMARK    4  A    between atoms: C3_7  and  N2_8
REMARK       I    between atoms: N2_8  and  C4_10
REMARK    5  A    between atoms: N4_12  and  C5_14
REMARK    6  A    between atoms: C5_14  and  C6_15
REMARK    7  A    between atoms: C6_15  and  C7_16
REMARK    8  A    between atoms: C7_16  and  C8_17
REMARK    9  A    between atoms: C9_18  and  C10_19
REMARK   10  A    between atoms: C10_19  and  C11_20
REMARK   11  A    between atoms: C11_20  and  N5_21
ROOT
HETATM    1  C8  UNL     1      -2.353  28.675 -16.185  1.00  0.00     0.033 A
HETATM    2  C9  UNL     1      -3.261  29.599 -15.780  1.00  0.00     0.027 A
HETATM    3  N6  UNL     1      -4.396  29.758 -16.519  1.00  0.00    -0.312 N
ATOM      4  H6  UNL     1      -5.083  30.450 -16.222  1.00  0.00     0.170 HD
HETATM    5  C12 UNL     1      -4.641  29.035 -17.623  1.00  0.00     0.327 A
HETATM    6  O1  UNL     1      -5.706  29.194 -18.304  1.00  0.00    -0.247 OA
HETATM    7  N7  UNL     1      -3.770  28.119 -18.050  1.00  0.00    -0.275 N
ATOM      8  H7  UNL     1      -3.956  27.570 -18.888  1.00  0.00     0.173 HD
HETATM    9  C13 UNL     1      -2.643  27.940 -17.343  1.00  0.00     0.257 A
HETATM   10  O2  UNL     1      -1.805  27.070 -17.739  1.00  0.00    -0.267 OA
ENDROOT
BRANCH   1  11
HETATM   11  C7  UNL     1      -1.075  28.433 -15.529  1.00  0.00     0.048 C
BRANCH  11  12
HETATM   12  C6  UNL     1      -0.138  29.586 -15.822  1.00  0.00     0.025 C
BRANCH  12  13
HETATM   13  C5  UNL     1      -0.175  30.028 -17.245  1.00  0.00     0.122 C
BRANCH  13  14
HETATM   14  N4  UNL     1      -0.350  31.451 -17.337  1.00  0.00    -0.365 N
HETATM   15  C4  UNL     1      -1.272  31.939 -18.069  1.00  0.00     0.183 C
HETATM   16  N2  UNL     1      -1.382  33.355 -18.110  1.00  0.00    -0.365 N
HETATM   17  N3  UNL     1      -2.125  31.087 -18.786  1.00  0.00    -0.064 NA
ATOM     18  H2  UNL     1      -2.208  33.828 -17.745  1.00  0.00     0.162 HD
ATOM     19  H4  UNL     1       0.266  32.073 -16.813  1.00  0.00     0.162 HD
BRANCH  16  20
HETATM   20  C3  UNL     1      -0.291  34.100 -18.683  1.00  0.00     0.124 C
BRANCH  20  21
HETATM   21  C2  UNL     1      -0.293  33.822 -20.170  1.00  0.00     0.047 C
BRANCH  21  22
HETATM   22  C1  UNL     1       1.013  34.266 -20.790  1.00  0.00     0.231 C
BRANCH  22  23
HETATM   23  N1  UNL     1       0.827  35.269 -21.814  1.00  0.00    -0.079 N
ATOM     24  H13 UNL     1       0.974  34.875 -22.744  1.00  0.00     0.274 HD
ATOM     25  H12 UNL     1      -0.156  35.528 -21.899  1.00  0.00     0.274 HD
ATOM     26  H11 UNL     1       1.412  36.091 -21.667  1.00  0.00     0.274 HD
ENDBRANCH  22  23
ENDBRANCH  21  22
ENDBRANCH  20  21
ENDBRANCH  16  20
ENDBRANCH  13  14
ENDBRANCH  12  13
ENDBRANCH  11  12
ENDBRANCH   1  11
BRANCH   2  27
HETATM   27  C10 UNL     1      -3.127  30.395 -14.580  1.00  0.00     0.085 C
BRANCH  27  28
HETATM   28  C11 UNL     1      -4.476  30.805 -13.980  1.00  0.00     0.235 C
BRANCH  28  29
HETATM   29  N5  UNL     1      -4.273  31.542 -12.741  1.00  0.00    -0.079 N
ATOM     30  H53 UNL     1      -4.037  30.923 -11.964  1.00  0.00     0.274 HD
ATOM     31  H52 UNL     1      -3.415  32.092 -12.761  1.00  0.00     0.274 HD
ATOM     32  H51 UNL     1      -5.090  32.117 -12.535  1.00  0.00     0.274 HD
ENDBRANCH  28  29
ENDBRANCH  27  28
ENDBRANCH   2  27
TORSDOF 11
ENDMDL