MODEL 2
REMARK VINA RESULT: -6.862709635      1.509      2.938
REMARK  12 active torsions:
REMARK  status: ('A' for Active; 'I' for Inactive)
REMARK    1  A    between atoms: N1_1  and  C1_5
REMARK    2  A    between atoms: C1_5  and  C2_6
REMARK    3  A    between atoms: C2_6  and  C3_7
REMARK    4  A    between atoms: C3_7  and  C4_8
REMARK    5  A    between atoms: C4_8  and  C5_9
REMARK    6  A    between atoms: C5_9  and  C6_10
REMARK    7  A    between atoms: C6_10  and  N2_11
REMARK    8  A    between atoms: N2_11  and  C7_13
REMARK    9  A    between atoms: C9_20  and  N5_21
REMARK   10  A    between atoms: N5_21  and  C10_23
REMARK   11  A    between atoms: C10_23  and  C11_24
REMARK   12  A    between atoms: C11_24  and  N6_25
ROOT
HETATM    1  C7  UNL     1      -2.668  30.799 -16.797  1.00  0.00     0.696 A
HETATM    2  N3  UNL     1      -3.611  30.591 -17.723  1.00  0.00    -0.140 N
ATOM      3  H3  UNL     1      -4.466  30.110 -17.442  1.00  0.00     0.189 HD
HETATM    4  C8  UNL     1      -3.493  30.982 -19.004  1.00  0.00     0.352 A
HETATM    5  O1  UNL     1      -4.367  30.796 -19.887  1.00  0.00    -0.246 OA
HETATM    6  N4  UNL     1      -2.345  31.615 -19.331  1.00  0.00    -0.140 N
ATOM      7  H4  UNL     1      -2.213  31.929 -20.292  1.00  0.00     0.189 HD
HETATM    8  C9  UNL     1      -1.373  31.845 -18.435  1.00  0.00     0.696 A
HETATM    9  N9  UNL     1      -1.528  31.438 -17.162  1.00  0.00    -0.022 N
ATOM     10  H9  UNL     1      -0.793  31.609 -16.475  1.00  0.00     0.203 HD
ENDROOT
BRANCH   1  11
HETATM   11  N2  UNL     1      -2.758  30.437 -15.576  1.00  0.00    -0.225 N
ATOM     12  H2  UNL     1      -3.623  30.645 -15.078  1.00  0.00     0.177 HD
BRANCH  11  13
HETATM   13  C6  UNL     1      -1.709  29.750 -14.856  1.00  0.00     0.138 C
BRANCH  13  14
HETATM   14  C5  UNL     1      -1.627  28.296 -15.208  1.00  0.00     0.020 C
BRANCH  14  15
HETATM   15  C4  UNL     1      -0.282  27.834 -15.627  1.00  0.00     0.002 C
BRANCH  15  16
HETATM   16  C3  UNL     1       0.108  28.202 -17.022  1.00  0.00     0.002 C
BRANCH  16  17
HETATM   17  C2  UNL     1       1.579  28.470 -17.079  1.00  0.00     0.027 C
BRANCH  17  18
HETATM   18  C1  UNL     1       2.054  29.314 -15.906  1.00  0.00     0.229 C
BRANCH  18  19
HETATM   19  N1  UNL     1       1.659  30.682 -16.110  1.00  0.00    -0.079 N
ATOM     20  H13 UNL     1       1.777  30.978 -17.079  1.00  0.00     0.274 HD
ATOM     21  H12 UNL     1       0.649  30.806 -16.043  1.00  0.00     0.274 HD
ATOM     22  H11 UNL     1       2.166  31.282 -15.459  1.00  0.00     0.274 HD
ENDBRANCH  18  19
ENDBRANCH  17  18
ENDBRANCH  16  17
ENDBRANCH  15  16
ENDBRANCH  14  15
ENDBRANCH  13  14
ENDBRANCH  11  13
ENDBRANCH   1  11
BRANCH   8  23
HETATM   23  N5  UNL     1      -0.289  32.453 -18.775  1.00  0.00    -0.224 N
ATOM     24  H5  UNL     1       0.415  31.942 -19.309  1.00  0.00     0.177 HD
BRANCH  23  25
HETATM   25  C10 UNL     1      -0.031  33.840 -18.424  1.00  0.00     0.157 C
BRANCH  25  26
HETATM   26  C11 UNL     1       0.443  34.600 -19.649  1.00  0.00     0.142 C
BRANCH  26  27
HETATM   27  N6  UNL     1      -0.459  34.304 -20.739  1.00  0.00    -0.365 N
HETATM   28  C12 UNL     1      -0.270  34.845 -21.886  1.00  0.00     0.197 C
HETATM   29  N7  UNL     1       0.827  35.728 -22.067  1.00  0.00    -0.067 NA
HETATM   30  N8  UNL     1      -1.148  34.567 -22.978  1.00  0.00    -0.067 NA
ATOM     31  H6  UNL     1      -1.243  33.666 -20.596  1.00  0.00     0.161 HD
ENDBRANCH  26  27
ENDBRANCH  25  26
ENDBRANCH  23  25
ENDBRANCH   8  23
TORSDOF 12
ENDMDL