MODEL 4
REMARK VINA RESULT: -6.352979009      1.260      1.719
REMARK  10 active torsions:
REMARK  status: ('A' for Active; 'I' for Inactive)
REMARK    1  A    between atoms: N1_2  and  C4_5
REMARK    2  A    between atoms: C4_5  and  C5_6
REMARK    3  A    between atoms: C5_6  and  N2_7
REMARK    4  A    between atoms: C5_6  and  O1_22
REMARK    5  A    between atoms: N2_7  and  C6_9
REMARK    6  A    between atoms: C8_11  and  N3_12
REMARK    7  A    between atoms: C10_17  and  N4_18
REMARK    8  A    between atoms: O1_22  and  C11_23
REMARK    9  A    between atoms: C11_23  and  C12_24
REMARK   10  A    between atoms: C12_24  and  N5_25
ROOT
HETATM    1  N2  UNL     1      -2.967  30.496 -18.476  1.00  0.00    -0.389 N
ATOM      2  H2  UNL     1      -2.769  30.028 -19.361  1.00  0.00     0.156 HD
ENDROOT
BRANCH   1   3
HETATM    3  C5  UNL     1      -1.917  31.089 -17.741  1.00  0.00     0.242 C
BRANCH   3   4
HETATM    4  C4  UNL     1      -0.649  30.388 -17.525  1.00  0.00     0.289 C
BRANCH   4   5
HETATM    5  N1  UNL     1      -0.398  29.509 -16.473  1.00  0.00    -0.074 N
HETATM    6  C1  UNL     1      -0.491  28.101 -16.883  1.00  0.00     0.271 C
HETATM    7  C2  UNL     1      -1.089  29.693 -15.248  1.00  0.00     0.271 C
HETATM    8  C3  UNL     1       1.044  29.671 -16.157  1.00  0.00     0.271 C
ENDBRANCH   4   5
ENDBRANCH   3   4
BRANCH   3   9
HETATM    9  O1  UNL     1      -1.582  32.305 -18.360  1.00  0.00    -0.364 OA
BRANCH   9  10
HETATM   10  C11 UNL     1      -0.274  32.649 -18.225  1.00  0.00     0.190 C
BRANCH  10  11
HETATM   11  C12 UNL     1      -0.134  34.069 -18.795  1.00  0.00     0.148 C
BRANCH  11  12
HETATM   12  N5  UNL     1      -0.881  34.121 -20.054  1.00  0.00    -0.365 N
HETATM   13  C13 UNL     1      -0.192  34.200 -21.133  1.00  0.00     0.197 C
HETATM   14  N6  UNL     1      -0.891  34.236 -22.355  1.00  0.00    -0.067 NA
HETATM   15  N7  UNL     1       1.213  34.301 -21.156  1.00  0.00    -0.067 NA
ATOM     16  H5  UNL     1      -1.901  34.095 -20.072  1.00  0.00     0.161 HD
ENDBRANCH  11  12
ENDBRANCH  10  11
ENDBRANCH   9  10
ENDBRANCH   3   9
ENDBRANCH   1   3
BRANCH   1  17
HETATM   17  C6  UNL     1      -4.292  30.551 -17.990  1.00  0.00     0.111 C
HETATM   18  C7  UNL     1      -5.155  31.448 -18.841  1.00  0.00     0.059 C
HETATM   19  C8  UNL     1      -5.478  32.642 -17.971  1.00  0.00     0.187 C
HETATM   20  C9  UNL     1      -5.549  32.019 -16.608  1.00  0.00     0.067 C
HETATM   21  C10 UNL     1      -4.344  31.133 -16.576  1.00  0.00     0.207 C
BRANCH  19  22
HETATM   22  N3  UNL     1      -6.714  33.306 -18.328  1.00  0.00    -0.075 N
ATOM     23  H33 UNL     1      -6.551  34.296 -18.509  1.00  0.00     0.274 HD
ATOM     24  H32 UNL     1      -7.026  33.012 -19.254  1.00  0.00     0.274 HD
ATOM     25  H31 UNL     1      -7.459  33.183 -17.642  1.00  0.00     0.274 HD
ENDBRANCH  19  22
BRANCH  21  26
HETATM   26  N4  UNL     1      -4.580  30.130 -15.563  1.00  0.00    -0.073 N
ATOM     27  H43 UNL     1      -4.772  29.222 -15.986  1.00  0.00     0.274 HD
ATOM     28  H42 UNL     1      -3.718  29.903 -15.068  1.00  0.00     0.274 HD
ATOM     29  H41 UNL     1      -5.318  30.393 -14.910  1.00  0.00     0.274 HD
ENDBRANCH  21  26
ENDBRANCH   1  17
TORSDOF 10
ENDMDL