MODEL 3
REMARK VINA RESULT: -6.397652510      3.052      5.162
REMARK  13 active torsions:
REMARK  status: ('A' for Active; 'I' for Inactive)
REMARK    1  A    between atoms: C1_2  and  C2_4
REMARK    2  A    between atoms: C2_4  and  N3_6
REMARK    3  A    between atoms: N3_6  and  C3_7
REMARK    4  A    between atoms: C3_7  and  C4_8
REMARK    5  A    between atoms: C4_8  and  C5_9
REMARK    6  A    between atoms: C5_9  and  C6_10
REMARK    7  A    between atoms: C6_10  and  C7_11
REMARK    8  A    between atoms: C7_11  and  C8_12
REMARK    9  A    between atoms: C8_12  and  N4_13
REMARK   10  A    between atoms: C10_20  and  N7_21
REMARK   11  A    between atoms: N7_21  and  C11_23
REMARK   12  A    between atoms: C11_23  and  C12_24
REMARK   13  A    between atoms: C12_24  and  O2_25
ROOT
HETATM    1  N4  UNL     1      -4.328  31.528 -14.934  1.00  0.00    -0.224 N
ATOM      2  H4  UNL     1      -3.424  31.900 -14.642  1.00  0.00     0.177 HD
HETATM    3  C9  UNL     1      -4.948  32.119 -15.906  1.00  0.00     0.707 A
HETATM    4  N5  UNL     1      -4.426  33.189 -16.516  1.00  0.00    -0.117 N
ATOM      5  H5  UNL     1      -3.535  33.635 -16.297  1.00  0.00     0.206 HD
HETATM    6  N6  UNL     1      -5.288  33.565 -17.462  1.00  0.00    -0.117 N
ATOM      7  H6  UNL     1      -5.150  34.357 -18.090  1.00  0.00     0.206 HD
HETATM    8  C10 UNL     1      -6.363  32.761 -17.478  1.00  0.00     0.711 A
HETATM    9  N8  UNL     1      -6.101  31.852 -16.467  1.00  0.00    -0.020 N
ATOM     10  H8  UNL     1      -6.717  31.085 -16.199  1.00  0.00     0.203 HD
ENDROOT
BRANCH   1  11
HETATM   11  C8  UNL     1      -4.845  30.374 -14.242  1.00  0.00     0.138 C
BRANCH  11  12
HETATM   12  C7  UNL     1      -3.692  29.762 -13.479  1.00  0.00     0.020 C
BRANCH  12  13
HETATM   13  C6  UNL     1      -2.411  30.053 -14.212  1.00  0.00     0.002 C
BRANCH  13  14
HETATM   14  C5  UNL     1      -1.872  28.902 -14.982  1.00  0.00     0.006 C
BRANCH  14  15
HETATM   15  C4  UNL     1      -2.103  28.946 -16.467  1.00  0.00     0.059 C
BRANCH  15  16
HETATM   16  C3  UNL     1      -1.535  30.290 -16.966  1.00  0.00     0.157 C
BRANCH  16  17
HETATM   17  N3  UNL     1      -2.177  30.914 -17.942  1.00  0.00    -0.402 NA
BRANCH  17  18
HETATM   18  C2  UNL     1      -2.916  31.272 -18.779  1.00  0.00     0.253 C
HETATM   19  N2  UNL     1      -2.760  32.622 -19.330  1.00  0.00    -0.062 NA
BRANCH  18  20
HETATM   20  C1  UNL     1      -4.016  30.509 -19.366  1.00  0.00     0.309 C
HETATM   21  N1  UNL     1      -5.280  31.078 -19.682  1.00  0.00    -0.054 NA
HETATM   22  O1  UNL     1      -3.850  29.260 -19.615  1.00  0.00    -0.267 OA
ENDBRANCH  18  20
ENDBRANCH  17  18
ENDBRANCH  16  17
ENDBRANCH  15  16
ENDBRANCH  14  15
ENDBRANCH  13  14
ENDBRANCH  12  13
ENDBRANCH  11  12
ENDBRANCH   1  11
BRANCH   8  23
HETATM   23  N7  UNL     1      -7.418  32.708 -18.167  1.00  0.00    -0.202 N
ATOM     24  H7  UNL     1      -7.404  33.375 -18.939  1.00  0.00     0.183 HD
BRANCH  23  25
HETATM   25  C11 UNL     1      -8.589  31.975 -18.140  1.00  0.00     0.105 C
BRANCH  25  26
HETATM   26  C12 UNL     1      -8.573  30.659 -18.848  1.00  0.00     0.209 C
BRANCH  26  27
HETATM   27  O2  UNL     1      -8.441  30.925 -20.236  1.00  0.00    -0.396 OA
ATOM     28  H2  UNL     1      -9.279  30.739 -20.642  1.00  0.00     0.209 HD
ENDBRANCH  26  27
ENDBRANCH  25  26
ENDBRANCH  23  25
ENDBRANCH   8  23
TORSDOF 13
ENDMDL