MODEL 4
REMARK VINA RESULT: -6.040370563      3.563      6.205
REMARK  12 active torsions:
REMARK  status: ('A' for Active; 'I' for Inactive)
REMARK    1  A    between atoms: N1_2  and  C2_3
REMARK    2  A    between atoms: N1_2  and  C4_9
REMARK    3  A    between atoms: N1_2  and  C8_17
REMARK    4  A    between atoms: C2_3  and  C3_4
REMARK    5  A    between atoms: C3_4  and  N2_5
REMARK    6  A    between atoms: C4_9  and  C5_10
REMARK    7  A    between atoms: C5_10  and  C6_11
REMARK    8  A    between atoms: C6_11  and  N3_12
REMARK    9  A    between atoms: C10_22  and  C11_23
REMARK   10  A    between atoms: C10_22  and  C12_26
REMARK   11  A    between atoms: C11_23  and  O1_24
REMARK   12  A    between atoms: C12_26  and  O2_27
ROOT
HETATM    1  C1  UNL     1      -3.907  31.157 -16.770  1.00  0.00     0.273 C
HETATM    2  N1  UNL     1      -3.872  31.062 -18.230  1.00  0.00    -0.063 N
ENDROOT
BRANCH   2   3
HETATM    3  C2  UNL     1      -4.910  31.851 -18.795  1.00  0.00     0.264 C
BRANCH   3   4
HETATM    4  C3  UNL     1      -5.867  32.456 -17.826  1.00  0.00     0.257 C
BRANCH   4   5
HETATM    5  N2  UNL     1      -6.805  33.375 -18.465  1.00  0.00    -0.078 N
ATOM      6  H23 UNL     1      -7.383  32.890 -19.152  1.00  0.00     0.274 HD
ATOM      7  H22 UNL     1      -7.534  33.667 -17.814  1.00  0.00     0.274 HD
ATOM      8  H21 UNL     1      -6.340  34.182 -18.882  1.00  0.00     0.274 HD
ENDBRANCH   4   5
ENDBRANCH   3   4
ENDBRANCH   2   3
BRANCH   2   9
HETATM    9  C4  UNL     1      -4.146  29.655 -18.522  1.00  0.00     0.239 C
BRANCH   9  10
HETATM   10  C5  UNL     1      -4.772  28.937 -17.360  1.00  0.00     0.048 C
BRANCH  10  11
HETATM   11  C6  UNL     1      -4.088  27.590 -17.246  1.00  0.00     0.123 C
BRANCH  11  12
HETATM   12  N3  UNL     1      -2.701  27.752 -17.614  1.00  0.00    -0.367 N
HETATM   13  C7  UNL     1      -1.736  27.867 -16.795  1.00  0.00     0.196 C
HETATM   14  N4  UNL     1      -1.914  27.847 -15.400  1.00  0.00    -0.067 NA
HETATM   15  N5  UNL     1      -0.422  28.020 -17.314  1.00  0.00    -0.067 NA
ATOM     16  H3  UNL     1      -2.478  27.777 -18.609  1.00  0.00     0.161 HD
ENDBRANCH  11  12
ENDBRANCH  10  11
ENDBRANCH   9  10
ENDBRANCH   2   9
BRANCH   2  17
HETATM   17  C8  UNL     1      -2.556  31.342 -18.682  1.00  0.00     0.218 C
HETATM   18  C9  UNL     1      -1.494  31.279 -17.621  1.00  0.00     0.266 C
HETATM   19  N6  UNL     1      -0.353  31.863 -18.329  1.00  0.00    -0.060 N
HETATM   20  C10 UNL     1      -0.858  32.875 -19.198  1.00  0.00     0.169 C
ATOM     21  H62 UNL     1       0.372  32.206 -17.699  1.00  0.00     0.278 HD
ATOM     22  H61 UNL     1       0.212  31.166 -18.816  1.00  0.00     0.278 HD
HETATM   23  C13 UNL     1      -2.383  32.795 -19.155  1.00  0.00     0.078 C
BRANCH  20  24
HETATM   24  C11 UNL     1      -0.352  32.583 -20.599  1.00  0.00     0.205 C
BRANCH  24  25
HETATM   25  O1  UNL     1      -0.855  33.585 -21.428  1.00  0.00    -0.398 OA
ATOM     26  H1  UNL     1      -0.596  33.364 -22.315  1.00  0.00     0.209 HD
ENDBRANCH  24  25
ENDBRANCH  20  24
BRANCH  20  27
HETATM   27  C12 UNL     1      -0.459  34.257 -18.799  1.00  0.00     0.205 C
BRANCH  27  28
HETATM   28  O2  UNL     1      -1.475  35.166 -19.046  1.00  0.00    -0.398 OA
ATOM     29  H2  UNL     1      -1.197  35.836 -19.660  1.00  0.00     0.209 HD
ENDBRANCH  27  28
ENDBRANCH  20  27
ENDBRANCH   2  17
TORSDOF 12
ENDMDL