MODEL 4
REMARK VINA RESULT: -6.454328555      0.882      1.157
REMARK  10 active torsions:
REMARK  status: ('A' for Active; 'I' for Inactive)
REMARK    1  A    between atoms: N3_4  and  C2_6
REMARK    2  A    between atoms: C2_6  and  C3_7
REMARK    3  A    between atoms: C3_7  and  C4_8
REMARK    4  A    between atoms: C4_8  and  C5_9
REMARK    5  A    between atoms: C5_9  and  N4_10
REMARK    6  A    between atoms: C5_9  and  C6_14
REMARK    7  A    between atoms: C5_9  and  C12_24
REMARK    8  A    between atoms: C6_14  and  C7_15
REMARK    9  A    between atoms: C7_15  and  N5_16
REMARK   10  A    between atoms: C12_24  and  N7_25
ROOT
HETATM    1  C5  UNL     1      -1.111  31.964 -18.399  1.00  0.00     0.141 C
ENDROOT
BRANCH   1   2
HETATM    2  C4  UNL     1      -0.607  30.616 -18.080  1.00  0.00     0.042 C
BRANCH   2   3
HETATM    3  C3  UNL     1       0.413  30.469 -17.017  1.00  0.00     0.022 C
BRANCH   3   4
HETATM    4  C2  UNL     1       0.098  29.536 -15.886  1.00  0.00     0.122 C
BRANCH   4   5
HETATM    5  N3  UNL     1      -1.051  30.076 -15.193  1.00  0.00    -0.367 N
HETATM    6  C1  UNL     1      -2.099  29.396 -14.911  1.00  0.00     0.196 C
HETATM    7  N1  UNL     1      -3.179  29.992 -14.233  1.00  0.00    -0.067 NA
HETATM    8  N2  UNL     1      -2.166  28.037 -15.287  1.00  0.00    -0.067 NA
ATOM      9  H3  UNL     1      -1.026  31.056 -14.912  1.00  0.00     0.161 HD
ENDBRANCH   4   5
ENDBRANCH   3   4
ENDBRANCH   2   3
ENDBRANCH   1   2
BRANCH   1  10
HETATM   10  N4  UNL     1      -0.271  32.968 -17.791  1.00  0.00    -0.069 N
ATOM     11  H43 UNL     1       0.713  32.829 -18.018  1.00  0.00     0.275 HD
ATOM     12  H42 UNL     1      -0.397  33.883 -18.225  1.00  0.00     0.275 HD
ATOM     13  H41 UNL     1      -0.430  32.999 -16.784  1.00  0.00     0.275 HD
ENDBRANCH   1  10
BRANCH   1  14
HETATM   14  C6  UNL     1      -2.557  32.190 -18.041  1.00  0.00     0.070 C
BRANCH  14  15
HETATM   15  C7  UNL     1      -3.499  31.800 -19.149  1.00  0.00     0.275 C
BRANCH  15  16
HETATM   16  N5  UNL     1      -4.518  30.902 -18.639  1.00  0.00     0.091 N
HETATM   17  C8  UNL     1      -4.908  31.210 -17.294  1.00  0.00     0.300 C
HETATM   18  C9  UNL     1      -5.799  30.104 -16.771  1.00  0.00     0.262 C
HETATM   19  N6  UNL     1      -4.962  28.918 -16.653  1.00  0.00    -0.072 N
HETATM   20  C10 UNL     1      -4.641  28.510 -17.992  1.00  0.00     0.262 C
ATOM     21  H62 UNL     1      -4.141  29.061 -16.066  1.00  0.00     0.277 HD
ATOM     22  H61 UNL     1      -5.388  28.177 -16.096  1.00  0.00     0.277 HD
HETATM   23  C11 UNL     1      -4.059  29.567 -18.856  1.00  0.00     0.300 C
ENDBRANCH  15  16
ENDBRANCH  14  15
ENDBRANCH   1  14
BRANCH   1  24
HETATM   24  C12 UNL     1      -1.027  32.259 -19.911  1.00  0.00     0.160 C
BRANCH  24  25
HETATM   25  N7  UNL     1      -0.049  33.312 -20.100  1.00  0.00    -0.364 N
HETATM   26  C13 UNL     1      -0.012  34.059 -21.134  1.00  0.00     0.197 C
HETATM   27  N8  UNL     1      -0.907  33.972 -22.228  1.00  0.00    -0.067 NA
HETATM   28  N9  UNL     1       0.999  35.075 -21.225  1.00  0.00    -0.067 NA
ATOM     29  H7  UNL     1       0.646  33.463 -19.369  1.00  0.00     0.161 HD
ENDBRANCH  24  25
ENDBRANCH   1  24
TORSDOF 10
ENDMDL