MODEL 5
REMARK VINA RESULT: -7.496248186      3.922      6.150
REMARK  3 active torsions:
REMARK  status: ('A' for Active; 'I' for Inactive)
REMARK    1  A    between atoms: C2_5  and  N2_6
REMARK    2  A    between atoms: C8_13  and  N3_14
REMARK    3  A    between atoms: N4_17  and  C11_18
ROOT
HETATM    1  O1  UNL     1     -12.695  33.558  43.996  1.00  0.00    -0.247 OA
HETATM    2  C1  UNL     1     -13.887  34.013  44.014  1.00  0.00     0.327 A
HETATM    3  N1  UNL     1     -14.571  34.258  42.886  1.00  0.00    -0.294 N
ATOM      4  H1  UNL     1     -14.127  34.077  41.986  1.00  0.00     0.172 HD
HETATM    5  C2  UNL     1     -15.846  34.743  42.919  1.00  0.00     0.110 A
HETATM    6  C7  UNL     1     -16.398  34.971  44.146  1.00  0.00     0.097 A
HETATM    7  C8  UNL     1     -15.686  34.716  45.316  1.00  0.00     0.110 A
HETATM    8  N7  UNL     1     -14.442  34.240  45.219  1.00  0.00    -0.294 N
ATOM      9  H7  UNL     1     -13.907  34.047  46.065  1.00  0.00     0.172 HD
ENDROOT
BRANCH   7  10
HETATM   10  N3  UNL     1     -16.293  34.968  46.598  1.00  0.00    -0.364 N
HETATM   11  C9  UNL     1     -15.617  34.540  47.805  1.00  0.00     0.145 C
HETATM   12  C10 UNL     1     -15.443  35.760  48.680  1.00  0.00     0.161 C
HETATM   13  N4  UNL     1     -16.718  36.447  48.741  1.00  0.00    -0.214 N
HETATM   14  C15 UNL     1     -17.892  35.907  48.086  1.00  0.00     0.161 C
HETATM   15  C16 UNL     1     -17.560  35.645  46.632  1.00  0.00     0.145 C
BRANCH  13  16
HETATM   16  C11 UNL     1     -16.801  37.658  49.454  1.00  0.00     0.679 A
HETATM   17  N5  UNL     1     -17.582  38.641  48.953  1.00  0.00    -0.202 N
HETATM   18  C12 UNL     1     -17.700  39.807  49.582  1.00  0.00     0.107 A
ATOM     19  H5  UNL     1     -18.088  38.487  48.081  1.00  0.00     0.183 HD
HETATM   20  C13 UNL     1     -17.012  40.002  50.762  1.00  0.00     0.035 A
HETATM   21  C14 UNL     1     -16.214  38.977  51.261  1.00  0.00     0.107 A
HETATM   22  N6  UNL     1     -16.114  37.817  50.606  1.00  0.00    -0.202 N
ATOM     23  H6  UNL     1     -15.529  37.064  50.969  1.00  0.00     0.183 HD
ENDBRANCH  13  16
ENDBRANCH   7  10
BRANCH   5  24
HETATM   24  N2  UNL     1     -16.565  34.992  41.731  1.00  0.00    -0.363 N
HETATM   25  C3  UNL     1     -17.615  35.956  41.687  1.00  0.00     0.150 C
HETATM   26  C4  UNL     1     -17.454  36.740  40.376  1.00  0.00     0.187 C
HETATM   27  O2  UNL     1     -17.382  35.929  39.274  1.00  0.00    -0.388 OA
HETATM   28  C5  UNL     1     -16.296  35.061  39.305  1.00  0.00     0.187 C
HETATM   29  C6  UNL     1     -16.233  34.243  40.548  1.00  0.00     0.150 C
ENDBRANCH   5  24
TORSDOF 3
ENDMDL