MODEL 4
REMARK VINA RESULT: -7.460573501      2.094      2.623
REMARK  3 active torsions:
REMARK  status: ('A' for Active; 'I' for Inactive)
REMARK    1  A    between atoms: C3_4  and  N1_5
REMARK    2  A    between atoms: N2_8  and  C6_9
REMARK    3  A    between atoms: C12_21  and  N6_22
ROOT
HETATM    1  O1  UNL     1     -17.070  33.452  41.034  1.00  0.00    -0.268 OA
HETATM    2  C1  UNL     1     -16.856  33.958  42.160  1.00  0.00     0.263 A
HETATM    3  C2  UNL     1     -17.891  34.200  43.061  1.00  0.00     0.123 A
HETATM    4  C3  UNL     1     -17.628  34.755  44.290  1.00  0.00     0.124 A
HETATM    5  N5  UNL     1     -16.354  35.055  44.594  1.00  0.00    -0.176 N
ATOM      6  H5  UNL     1     -16.134  35.468  45.501  1.00  0.00     0.186 HD
HETATM    7  C12 UNL     1     -15.362  34.815  43.708  1.00  0.00     0.684 A
HETATM    8  N7  UNL     1     -15.597  34.272  42.501  1.00  0.00    -0.156 N
ATOM      9  H7  UNL     1     -14.828  34.102  41.853  1.00  0.00     0.187 HD
ENDROOT
BRANCH   4  10
HETATM   10  N1  UNL     1     -18.661  35.024  45.220  1.00  0.00    -0.364 N
HETATM   11  C4  UNL     1     -18.523  34.823  46.625  1.00  0.00     0.144 C
HETATM   12  C5  UNL     1     -19.823  34.488  47.322  1.00  0.00     0.144 C
HETATM   13  N2  UNL     1     -20.922  35.281  46.794  1.00  0.00    -0.364 N
HETATM   14  C10 UNL     1     -20.714  36.241  45.750  1.00  0.00     0.144 C
HETATM   15  C11 UNL     1     -19.906  35.542  44.669  1.00  0.00     0.144 C
BRANCH  13  16
HETATM   16  C6  UNL     1     -22.208  35.072  47.332  1.00  0.00     0.105 A
HETATM   17  C7  UNL     1     -23.377  35.520  46.759  1.00  0.00     0.065 A
HETATM   18  C8  UNL     1     -24.619  35.269  47.334  1.00  0.00     0.092 A
HETATM   19  N3  UNL     1     -24.709  34.579  48.473  1.00  0.00    -0.362 N
HETATM   20  C9  UNL     1     -23.567  34.139  49.039  1.00  0.00     0.181 A
ATOM     21  H3  UNL     1     -25.614  34.390  48.903  1.00  0.00     0.165 HD
HETATM   22  N4  UNL     1     -22.384  34.373  48.496  1.00  0.00    -0.339 N
ATOM     23  H4  UNL     1     -21.556  34.013  48.972  1.00  0.00     0.168 HD
ENDBRANCH  13  16
ENDBRANCH   4  10
BRANCH   7  24
HETATM   24  N6  UNL     1     -14.021  35.163  44.066  1.00  0.00    -0.213 N
HETATM   25  C13 UNL     1     -12.875  34.480  43.504  1.00  0.00     0.167 C
HETATM   26  C14 UNL     1     -11.723  34.685  44.479  1.00  0.00     0.188 C
HETATM   27  O2  UNL     1     -11.386  36.000  44.621  1.00  0.00    -0.388 OA
HETATM   28  C15 UNL     1     -12.425  36.845  44.915  1.00  0.00     0.188 C
HETATM   29  C16 UNL     1     -13.775  36.226  45.008  1.00  0.00     0.167 C
ENDBRANCH   7  24
TORSDOF 3
ENDMDL