MODEL 4
REMARK VINA RESULT: -7.842850703      2.018      2.913
REMARK  4 active torsions:
REMARK  status: ('A' for Active; 'I' for Inactive)
REMARK    1  A    between atoms: C2_2  and  C3_3
REMARK    2  A    between atoms: C3_3  and  N1_4
REMARK    3  A    between atoms: C6_12  and  C7_13
REMARK    4  A    between atoms: C11_19  and  N5_20
ROOT
HETATM    1  N1  UNL     1     -18.697  35.373  46.549  1.00  0.00    -0.284 N
HETATM    2  C4  UNL     1     -17.817  34.539  47.125  1.00  0.00     0.196 A
HETATM    3  S1  UNL     1     -18.118  33.910  48.596  1.00  0.00    -0.039 SA
HETATM    4  N2  UNL     1     -16.684  34.226  46.480  1.00  0.00    -0.275 N
ATOM      5  H2  UNL     1     -16.009  33.593  46.910  1.00  0.00     0.189 HD
HETATM    6  N3  UNL     1     -16.450  34.727  45.315  1.00  0.00    -0.293 N
ATOM      7  H3  UNL     1     -15.580  34.471  44.849  1.00  0.00     0.187 HD
HETATM    8  C5  UNL     1     -17.285  35.568  44.677  1.00  0.00     0.117 A
HETATM    9  C6  UNL     1     -16.903  36.150  43.431  1.00  0.00     0.053 C
HETATM   10  C12 UNL     1     -18.471  35.902  45.340  1.00  0.00     0.278 A
HETATM   11  O3  UNL     1     -19.261  36.681  44.768  1.00  0.00    -0.265 OA
ENDROOT
BRANCH   9  12
HETATM   12  C7  UNL     1     -16.976  35.928  42.129  1.00  0.00     0.035 A
HETATM   13  C8  UNL     1     -17.801  36.842  41.417  1.00  0.00     0.026 A
HETATM   14  C9  UNL     1     -18.512  37.890  41.858  1.00  0.00     0.034 C
HETATM   15  S2  UNL     1     -17.706  36.324  39.816  1.00  0.00    -0.011 SA
HETATM   16  N4  UNL     1     -16.690  35.025  39.992  1.00  0.00    -0.302 N
HETATM   17  C10 UNL     1     -16.222  34.141  38.896  1.00  0.00     0.167 C
HETATM   18  C11 UNL     1     -16.403  34.974  41.326  1.00  0.00     0.193 A
BRANCH  18  19
HETATM   19  N5  UNL     1     -15.599  34.010  41.720  1.00  0.00    -0.096 N
HETATM   20  O1  UNL     1     -14.303  33.998  42.034  1.00  0.00    -0.530 OA
HETATM   21  O2  UNL     1     -16.111  32.690  41.870  1.00  0.00    -0.530 OA
ENDBRANCH  18  19
ENDBRANCH   9  12
BRANCH   1  22
HETATM   22  C3  UNL     1     -19.914  35.697  47.264  1.00  0.00     0.161 C
BRANCH  22  23
HETATM   23  C2  UNL     1     -21.060  34.869  46.853  1.00  0.00    -0.017 C
HETATM   24  C1  UNL     1     -22.159  35.424  46.375  1.00  0.00     0.008 C
ENDBRANCH  22  23
ENDBRANCH   1  22
TORSDOF 4
ENDMDL