MODEL 3
REMARK VINA RESULT: -7.438970566      3.479      4.645
REMARK  5 active torsions:
REMARK  status: ('A' for Active; 'I' for Inactive)
REMARK    1  A    between atoms: C3_4  and  S1_5
REMARK    2  A    between atoms: S1_5  and  C4_6
REMARK    3  A    between atoms: N3_13  and  O1_14
REMARK    4  A    between atoms: C11_19  and  N4_20
REMARK    5  A    between atoms: N5_25  and  O4_26
ROOT
HETATM    1  N1  UNL     1     -18.406  35.346  39.254  1.00  0.00    -0.190 NA
HETATM    2  C1  UNL     1     -17.809  35.479  40.233  1.00  0.00     0.123 C
HETATM    3  C2  UNL     1     -17.067  35.620  41.477  1.00  0.00     0.178 A
HETATM    4  C3  UNL     1     -17.456  36.488  42.474  1.00  0.00     0.140 A
HETATM    5  N3  UNL     1     -16.726  36.564  43.610  1.00  0.00    -0.213 N
HETATM    6  C8  UNL     1     -15.627  35.821  43.807  1.00  0.00     0.093 A
HETATM    7  C9  UNL     1     -14.872  35.884  44.951  1.00  0.00     0.037 A
HETATM    8  C10 UNL     1     -13.754  35.088  45.081  1.00  0.00     0.038 A
HETATM    9  C11 UNL     1     -13.364  34.214  44.074  1.00  0.00     0.105 A
HETATM   10  C12 UNL     1     -14.120  34.150  42.925  1.00  0.00     0.070 A
HETATM   11  C13 UNL     1     -15.237  34.954  42.811  1.00  0.00     0.095 A
HETATM   12  N5  UNL     1     -15.961  34.883  41.692  1.00  0.00    -0.209 N
ENDROOT
BRANCH   4  13
HETATM   13  S1  UNL     1     -18.893  37.502  42.259  1.00  0.00    -0.100 SA
BRANCH  13  14
HETATM   14  C4  UNL     1     -20.377  36.742  42.927  1.00  0.00     0.081 C
HETATM   15  C5  UNL     1     -21.498  37.737  42.985  1.00  0.00     0.044 C
HETATM   16  C6  UNL     1     -22.358  37.258  44.161  1.00  0.00     0.233 C
HETATM   17  N2  UNL     1     -21.642  36.133  44.742  1.00  0.00    -0.074 N
HETATM   18  C7  UNL     1     -20.251  36.330  44.376  1.00  0.00     0.247 C
ATOM     19  H22 UNL     1     -21.791  36.026  45.746  1.00  0.00     0.277 HD
ATOM     20  H21 UNL     1     -22.015  35.224  44.468  1.00  0.00     0.277 HD
ENDBRANCH  13  14
ENDBRANCH   4  13
BRANCH  12  21
HETATM   21  O4  UNL     1     -15.576  34.012  40.684  1.00  0.00    -0.281 OA
ATOM     22  H4  UNL     1     -15.498  33.093  40.912  1.00  0.00     0.245 HD
ENDBRANCH  12  21
BRANCH   5  23
HETATM   23  O1  UNL     1     -17.087  37.420  44.625  1.00  0.00    -0.281 OA
ATOM     24  H1  UNL     1     -17.387  38.301  44.436  1.00  0.00     0.245 HD
ENDBRANCH   5  23
BRANCH   9  25
HETATM   25  N4  UNL     1     -12.214  33.404  44.220  1.00  0.00    -0.116 N
HETATM   26  O2  UNL     1     -12.358  32.231  44.609  1.00  0.00    -0.532 OA
HETATM   27  O3  UNL     1     -10.958  33.848  43.954  1.00  0.00    -0.532 OA
ENDBRANCH   9  25
TORSDOF 5
ENDMDL