MODEL 1
REMARK VINA RESULT: -7.380164943      0.000      0.000
REMARK  3 active torsions:
REMARK  status: ('A' for Active; 'I' for Inactive)
REMARK    1  A    between atoms: C2_2  and  N1_3
REMARK    2  A    between atoms: C8_12  and  N3_13
REMARK    3  A    between atoms: C13_23  and  N6_24
ROOT
HETATM    1  C1  UNL     1     -15.691  35.168  43.024  1.00  0.00     0.097 A
HETATM    2  C2  UNL     1     -17.023  35.108  42.759  1.00  0.00     0.122 A
HETATM    3  N2  UNL     1     -17.874  35.021  43.818  1.00  0.00    -0.177 N
ATOM      4  H2  UNL     1     -18.875  34.975  43.625  1.00  0.00     0.186 HD
HETATM    5  C8  UNL     1     -17.477  34.991  45.100  1.00  0.00     0.683 A
HETATM    6  N5  UNL     1     -16.144  35.054  45.309  1.00  0.00    -0.177 N
ATOM      7  H5  UNL     1     -15.813  35.035  46.274  1.00  0.00     0.186 HD
HETATM    8  C13 UNL     1     -15.236  35.139  44.351  1.00  0.00     0.122 A
ENDROOT
BRANCH   5   9
HETATM    9  N3  UNL     1     -18.398  34.901  46.180  1.00  0.00    -0.214 N
HETATM   10  C9  UNL     1     -17.991  35.115  47.548  1.00  0.00     0.168 C
HETATM   11  C10 UNL     1     -18.794  34.295  48.501  1.00  0.00     0.252 C
HETATM   12  N4  UNL     1     -20.202  34.246  48.234  1.00  0.00    -0.072 N
HETATM   13  C11 UNL     1     -20.573  35.089  47.125  1.00  0.00     0.252 C
ATOM     14  H42 UNL     1     -20.518  33.287  48.092  1.00  0.00     0.277 HD
ATOM     15  H41 UNL     1     -20.744  34.473  49.067  1.00  0.00     0.277 HD
HETATM   16  C12 UNL     1     -19.781  34.588  45.908  1.00  0.00     0.168 C
ENDBRANCH   5   9
BRANCH   2  17
HETATM   17  N1  UNL     1     -17.519  35.141  41.434  1.00  0.00    -0.365 N
HETATM   18  C3  UNL     1     -18.378  36.232  41.045  1.00  0.00     0.126 C
HETATM   19  C4  UNL     1     -17.429  37.259  40.407  1.00  0.00     0.046 C
HETATM   20  C5  UNL     1     -16.774  36.521  39.240  1.00  0.00     0.169 C
HETATM   21  O1  UNL     1     -17.621  35.582  38.719  1.00  0.00    -0.389 OA
HETATM   22  C6  UNL     1     -17.488  34.298  39.142  1.00  0.00     0.187 C
HETATM   23  C7  UNL     1     -17.109  34.055  40.550  1.00  0.00     0.150 C
ENDBRANCH   2  17
BRANCH   8  24
HETATM   24  N6  UNL     1     -13.844  35.202  44.559  1.00  0.00    -0.363 N
HETATM   25  C14 UNL     1     -12.925  34.530  43.668  1.00  0.00     0.150 C
HETATM   26  C15 UNL     1     -11.562  34.554  44.352  1.00  0.00     0.187 C
HETATM   27  O2  UNL     1     -11.147  35.861  44.489  1.00  0.00    -0.388 OA
HETATM   28  C16 UNL     1     -12.059  36.682  45.097  1.00  0.00     0.187 C
HETATM   29  C17 UNL     1     -13.247  35.940  45.668  1.00  0.00     0.150 C
ENDBRANCH   8  24
TORSDOF 3
ENDMDL