MODEL 3
REMARK VINA RESULT: -7.630604644      2.074      6.337
REMARK  3 active torsions:
REMARK  status: ('A' for Active; 'I' for Inactive)
REMARK    1  A    between atoms: C2_2  and  N1_3
REMARK    2  A    between atoms: C7_11  and  N3_12
REMARK    3  A    between atoms: C12_22  and  N6_23
ROOT
HETATM    1  C1  UNL     1     -16.718  35.392  45.433  1.00  0.00     0.097 A
HETATM    2  C2  UNL     1     -17.985  35.568  44.915  1.00  0.00     0.122 A
HETATM    3  N2  UNL     1     -18.111  35.550  43.584  1.00  0.00    -0.177 N
ATOM      4  H2  UNL     1     -19.044  35.679  43.194  1.00  0.00     0.186 HD
HETATM    5  C7  UNL     1     -17.085  35.372  42.718  1.00  0.00     0.683 A
HETATM    6  N5  UNL     1     -15.874  35.207  43.280  1.00  0.00    -0.177 N
ATOM      7  H5  UNL     1     -15.078  35.072  42.657  1.00  0.00     0.186 HD
HETATM    8  C12 UNL     1     -15.638  35.207  44.599  1.00  0.00     0.122 A
ENDROOT
BRANCH   5   9
HETATM    9  N3  UNL     1     -17.280  35.362  41.313  1.00  0.00    -0.214 N
HETATM   10  C8  UNL     1     -17.026  34.166  40.568  1.00  0.00     0.168 C
HETATM   11  C9  UNL     1     -16.384  34.379  39.243  1.00  0.00     0.252 C
HETATM   12  N4  UNL     1     -16.322  35.765  38.887  1.00  0.00    -0.072 N
HETATM   13  C10 UNL     1     -17.641  36.354  39.162  1.00  0.00     0.252 C
ATOM     14  H42 UNL     1     -15.561  36.261  39.353  1.00  0.00     0.277 HD
ATOM     15  H41 UNL     1     -16.012  35.915  37.926  1.00  0.00     0.277 HD
HETATM   16  C11 UNL     1     -17.730  36.547  40.642  1.00  0.00     0.168 C
ENDBRANCH   5   9
BRANCH   2  17
HETATM   17  N1  UNL     1     -19.126  35.762  45.741  1.00  0.00    -0.363 N
HETATM   18  C3  UNL     1     -18.962  35.654  47.197  1.00  0.00     0.150 C
HETATM   19  C4  UNL     1     -19.958  34.626  47.688  1.00  0.00     0.187 C
HETATM   20  O1  UNL     1     -21.237  35.033  47.306  1.00  0.00    -0.388 OA
HETATM   21  C5  UNL     1     -21.393  35.048  45.933  1.00  0.00     0.187 C
HETATM   22  C6  UNL     1     -20.444  36.058  45.283  1.00  0.00     0.150 C
ENDBRANCH   2  17
BRANCH   8  23
HETATM   23  N6  UNL     1     -14.310  35.020  45.049  1.00  0.00    -0.363 N
HETATM   24  C13 UNL     1     -13.659  35.796  46.082  1.00  0.00     0.150 C
HETATM   25  C14 UNL     1     -12.368  36.312  45.428  1.00  0.00     0.187 C
HETATM   26  O2  UNL     1     -11.579  35.212  45.210  1.00  0.00    -0.388 OA
HETATM   27  C15 UNL     1     -12.077  34.333  44.272  1.00  0.00     0.187 C
HETATM   28  C16 UNL     1     -13.508  33.976  44.447  1.00  0.00     0.150 C
ENDBRANCH   8  23
TORSDOF 3
ENDMDL