MODEL 2
REMARK VINA RESULT: -7.041020362      3.701      5.876
REMARK  3 active torsions:
REMARK  status: ('A' for Active; 'I' for Inactive)
REMARK    1  A    between atoms: C4_9  and  N3_10
REMARK    2  A    between atoms: C12_22  and  N5_23
REMARK    3  A    between atoms: C15_26  and  N6_27
ROOT
HETATM    1  O1  UNL     1     -15.851  33.207  41.389  1.00  0.00    -0.266 OA
HETATM    2  C1  UNL     1     -16.133  34.142  42.180  1.00  0.00     0.275 C
HETATM    3  N1  UNL     1     -15.682  34.030  43.459  1.00  0.00    -0.320 N
ATOM      4  H1  UNL     1     -15.057  33.243  43.637  1.00  0.00     0.169 HD
HETATM    5  C2  UNL     1     -15.944  34.810  44.522  1.00  0.00     0.065 A
HETATM    6  C3  UNL     1     -15.333  34.336  45.668  1.00  0.00     0.120 A
HETATM    7  N2  UNL     1     -15.482  34.989  46.835  1.00  0.00    -0.350 N
ATOM      8  H2  UNL     1     -15.019  34.614  47.662  1.00  0.00     0.166 HD
HETATM    9  C4  UNL     1     -16.211  36.111  46.964  1.00  0.00     0.104 A
HETATM   10  C9  UNL     1     -16.846  36.626  45.839  1.00  0.00     0.066 A
HETATM   11  C10 UNL     1     -16.698  35.963  44.639  1.00  0.00     0.048 A
HETATM   12  C11 UNL     1     -17.386  36.586  43.595  1.00  0.00     0.213 C
HETATM   13  O2  UNL     1     -17.961  37.639  43.918  1.00  0.00    -0.285 OA
HETATM   14  C12 UNL     1     -17.513  36.196  42.264  1.00  0.00     0.114 C
HETATM   15  C15 UNL     1     -16.871  35.166  41.624  1.00  0.00     0.130 C
ENDROOT
BRANCH   9  16
HETATM   16  N3  UNL     1     -16.347  36.773  48.214  1.00  0.00    -0.364 N
HETATM   17  C5  UNL     1     -17.197  37.944  48.272  1.00  0.00     0.152 C
HETATM   18  C6  UNL     1     -17.996  37.873  49.550  1.00  0.00     0.252 C
HETATM   19  N4  UNL     1     -17.172  37.783  50.713  1.00  0.00    -0.072 N
HETATM   20  C7  UNL     1     -15.809  37.418  50.453  1.00  0.00     0.252 C
ATOM     21  H42 UNL     1     -17.211  38.653  51.244  1.00  0.00     0.277 HD
ATOM     22  H41 UNL     1     -17.586  37.145  51.392  1.00  0.00     0.277 HD
HETATM   23  C8  UNL     1     -15.689  36.340  49.405  1.00  0.00     0.152 C
ENDBRANCH   9  16
BRANCH  14  24
HETATM   24  N5  UNL     1     -18.395  36.921  41.444  1.00  0.00    -0.372 N
HETATM   25  C13 UNL     1     -18.944  37.741  40.401  1.00  0.00     0.143 A
HETATM   26  C14 UNL     1     -19.899  37.214  41.406  1.00  0.00     0.143 A
ENDBRANCH  14  24
BRANCH  15  27
HETATM   27  N6  UNL     1     -17.008  35.194  40.213  1.00  0.00    -0.371 N
HETATM   28  C16 UNL     1     -17.606  34.937  38.918  1.00  0.00     0.143 A
HETATM   29  C17 UNL     1     -16.326  35.704  38.962  1.00  0.00     0.143 A
ENDBRANCH  15  27
TORSDOF 3
ENDMDL