MODEL 5
REMARK VINA RESULT: -7.670545046      1.030      1.282
REMARK  3 active torsions:
REMARK  status: ('A' for Active; 'I' for Inactive)
REMARK    1  A    between atoms: C3_4  and  N1_5
REMARK    2  A    between atoms: N2_8  and  C6_9
REMARK    3  A    between atoms: C8_11  and  N3_12
ROOT
HETATM    1  N1  UNL     1     -16.074  35.147  43.892  1.00  0.00    -0.364 N
HETATM    2  C4  UNL     1     -16.981  34.726  44.932  1.00  0.00     0.144 C
HETATM    3  C5  UNL     1     -18.330  34.341  44.302  1.00  0.00     0.144 C
HETATM    4  N2  UNL     1     -18.775  35.569  43.638  1.00  0.00    -0.364 N
HETATM    5  C14 UNL     1     -17.953  36.118  42.604  1.00  0.00     0.144 C
HETATM    6  C15 UNL     1     -16.547  35.627  42.618  1.00  0.00     0.144 C
ENDROOT
BRANCH   4   7
HETATM    7  C6  UNL     1     -20.003  36.154  44.056  1.00  0.00     0.107 A
HETATM    8  C7  UNL     1     -20.651  35.736  45.196  1.00  0.00     0.096 A
HETATM    9  C8  UNL     1     -21.835  36.319  45.574  1.00  0.00     0.107 A
HETATM   10  N4  UNL     1     -22.337  37.287  44.823  1.00  0.00    -0.339 N
HETATM   11  C13 UNL     1     -21.717  37.718  43.694  1.00  0.00     0.183 A
ATOM     12  H4  UNL     1     -23.216  37.722  45.101  1.00  0.00     0.168 HD
HETATM   13  N5  UNL     1     -20.548  37.135  43.329  1.00  0.00    -0.339 N
ATOM     14  H5  UNL     1     -20.075  37.451  42.482  1.00  0.00     0.168 HD
BRANCH   9  15
HETATM   15  N3  UNL     1     -22.514  35.902  46.741  1.00  0.00    -0.363 N
HETATM   16  C9  UNL     1     -23.629  34.956  46.692  1.00  0.00     0.150 C
HETATM   17  C10 UNL     1     -23.829  34.440  48.085  1.00  0.00     0.187 C
HETATM   18  O2  UNL     1     -22.651  34.137  48.741  1.00  0.00    -0.388 OA
HETATM   19  C11 UNL     1     -21.878  35.257  49.015  1.00  0.00     0.187 C
HETATM   20  C12 UNL     1     -22.142  36.387  48.048  1.00  0.00     0.150 C
ENDBRANCH   9  15
ENDBRANCH   4   7
BRANCH   1  21
HETATM   21  C3  UNL     1     -14.679  35.084  44.141  1.00  0.00     0.109 A
HETATM   22  C2  UNL     1     -13.957  33.917  44.054  1.00  0.00     0.122 A
HETATM   23  C1  UNL     1     -12.599  33.918  44.305  1.00  0.00     0.249 A
HETATM   24  O1  UNL     1     -11.984  32.816  44.210  1.00  0.00    -0.268 OA
HETATM   25  N7  UNL     1     -11.986  35.068  44.636  1.00  0.00    -0.320 N
HETATM   26  C16 UNL     1     -12.674  36.210  44.726  1.00  0.00     0.184 A
ATOM     27  H7  UNL     1     -10.984  35.069  44.822  1.00  0.00     0.169 HD
HETATM   28  N6  UNL     1     -13.981  36.204  44.482  1.00  0.00    -0.339 N
ATOM     29  H6  UNL     1     -14.489  37.086  44.556  1.00  0.00     0.168 HD
ENDBRANCH   1  21
TORSDOF 3
ENDMDL