MODEL 5
REMARK VINA RESULT: -7.776040535      2.740      5.721
REMARK  3 active torsions:
REMARK  status: ('A' for Active; 'I' for Inactive)
REMARK    1  A    between atoms: N1_4  and  C3_5
REMARK    2  A    between atoms: C4_8  and  C5_9
REMARK    3  A    between atoms: C10_18  and  N5_19
ROOT
HETATM    1  C3  UNL     1     -17.337  34.966  44.987  1.00  0.00     0.697 A
HETATM    2  N2  UNL     1     -17.701  35.068  43.676  1.00  0.00    -0.175 N
ATOM      3  H2  UNL     1     -18.690  35.077  43.428  1.00  0.00     0.186 HD
HETATM    4  C4  UNL     1     -16.773  35.156  42.711  1.00  0.00     0.148 A
HETATM    5  N4  UNL     1     -15.476  35.143  43.060  1.00  0.00    -0.175 N
ATOM      6  H4  UNL     1     -14.772  35.211  42.325  1.00  0.00     0.186 HD
HETATM    7  C10 UNL     1     -15.065  35.043  44.336  1.00  0.00     0.696 A
HETATM    8  N6  UNL     1     -16.025  34.958  45.270  1.00  0.00    -0.022 N
ATOM      9  H6  UNL     1     -15.743  34.882  46.248  1.00  0.00     0.203 HD
ENDROOT
BRANCH   1  10
HETATM   10  N1  UNL     1     -18.353  34.876  45.949  1.00  0.00    -0.207 N
HETATM   11  C2  UNL     1     -18.095  35.036  47.365  1.00  0.00     0.244 C
HETATM   12  C1  UNL     1     -19.114  34.278  48.157  1.00  0.00     0.236 C
HETATM   13  O1  UNL     1     -18.813  33.450  49.033  1.00  0.00    -0.272 OA
HETATM   14  N7  UNL     1     -20.483  34.564  47.842  1.00  0.00    -0.358 N
HETATM   15  C16 UNL     1     -20.726  35.117  46.516  1.00  0.00     0.143 C
ATOM     16  H7  UNL     1     -21.238  34.391  48.504  1.00  0.00     0.162 HD
HETATM   17  C15 UNL     1     -19.707  34.614  45.515  1.00  0.00     0.161 C
ENDBRANCH   1  10
BRANCH   4  18
HETATM   18  C5  UNL     1     -17.233  35.264  41.333  1.00  0.00     0.024 A
HETATM   19  C6  UNL     1     -17.068  34.227  40.449  1.00  0.00     0.018 A
HETATM   20  C7  UNL     1     -17.518  34.376  39.159  1.00  0.00     0.018 A
HETATM   21  C8  UNL     1     -18.125  35.546  38.758  1.00  0.00     0.087 A
HETATM   22  N3  UNL     1     -18.286  36.559  39.627  1.00  0.00    -0.374 N
HETATM   23  C9  UNL     1     -17.855  36.434  40.884  1.00  0.00     0.102 A
ATOM     24  H3  UNL     1     -18.738  37.423  39.326  1.00  0.00     0.164 HD
ENDBRANCH   4  18
BRANCH   7  25
HETATM   25  N5  UNL     1     -13.685  35.035  44.629  1.00  0.00    -0.213 N
HETATM   26  C11 UNL     1     -13.166  35.822  45.731  1.00  0.00     0.167 C
HETATM   27  C12 UNL     1     -12.109  36.745  45.120  1.00  0.00     0.188 C
HETATM   28  O2  UNL     1     -11.160  36.029  44.446  1.00  0.00    -0.388 OA
HETATM   29  C13 UNL     1     -11.339  34.669  44.440  1.00  0.00     0.188 C
HETATM   30  C14 UNL     1     -12.711  34.269  43.880  1.00  0.00     0.167 C
ENDBRANCH   7  25
TORSDOF 3
ENDMDL