MODEL 3
REMARK VINA RESULT: -9.034514244      1.308      1.505
REMARK  4 active torsions:
REMARK  status: ('A' for Active; 'I' for Inactive)
REMARK    1  A    between atoms: C2_2  and  C3_4
REMARK    2  A    between atoms: C4_5  and  N1_6
REMARK    3  A    between atoms: N1_6  and  C5_8
REMARK    4  A    between atoms: N2_19  and  C14_20
ROOT
HETATM    1  C3  UNL     1     -15.417  34.863  45.974  1.00  0.00     0.122 A
HETATM    2  C4  UNL     1     -16.662  34.421  45.625  1.00  0.00     0.138 A
HETATM    3  N2  UNL     1     -17.680  34.573  46.477  1.00  0.00    -0.224 N
HETATM    4  C15 UNL     1     -17.492  35.153  47.666  1.00  0.00     0.337 A
HETATM    5  O5  UNL     1     -18.440  35.304  48.479  1.00  0.00    -0.246 OA
HETATM    6  N3  UNL     1     -16.276  35.587  48.008  1.00  0.00    -0.274 N
ATOM      7  H3  UNL     1     -16.146  36.029  48.919  1.00  0.00     0.173 HD
HETATM    8  C16 UNL     1     -15.215  35.458  47.186  1.00  0.00     0.267 A
HETATM    9  O6  UNL     1     -14.085  35.891  47.570  1.00  0.00    -0.267 OA
ENDROOT
BRANCH   2  10
HETATM   10  N1  UNL     1     -16.887  33.810  44.389  1.00  0.00    -0.334 N
ATOM     11  H1  UNL     1     -17.026  32.799  44.381  1.00  0.00     0.168 HD
BRANCH  10  12
HETATM   12  C5  UNL     1     -16.932  34.426  43.259  1.00  0.00     0.137 A
HETATM   13  C6  UNL     1     -17.367  35.700  42.976  1.00  0.00     0.213 A
HETATM   14  O2  UNL     1     -17.821  36.533  43.795  1.00  0.00    -0.285 OA
HETATM   15  C7  UNL     1     -17.224  35.920  41.622  1.00  0.00     0.031 A
HETATM   16  C8  UNL     1     -17.498  37.007  40.793  1.00  0.00     0.016 A
HETATM   17  C12 UNL     1     -16.693  34.782  41.031  1.00  0.00     0.031 A
HETATM   18  C9  UNL     1     -17.248  36.946  39.444  1.00  0.00     0.001 A
HETATM   19  C10 UNL     1     -16.720  35.809  38.869  1.00  0.00     0.001 A
HETATM   20  C11 UNL     1     -16.440  34.722  39.660  1.00  0.00     0.016 A
HETATM   21  C13 UNL     1     -16.523  33.880  42.062  1.00  0.00     0.213 A
HETATM   22  O3  UNL     1     -16.048  32.717  41.858  1.00  0.00    -0.285 OA
ENDBRANCH  10  12
ENDBRANCH   2  10
BRANCH   1  23
HETATM   23  C2  UNL     1     -14.303  34.703  45.058  1.00  0.00     0.165 C
HETATM   24  C1  UNL     1     -13.779  35.784  44.202  1.00  0.00     0.097 C
HETATM   25  O1  UNL     1     -13.761  33.568  45.001  1.00  0.00    -0.292 OA
ENDBRANCH   1  23
BRANCH   3  26
HETATM   26  C14 UNL     1     -18.998  34.109  46.122  1.00  0.00     0.365 C
HETATM   27  O4  UNL     1     -19.776  34.853  45.487  1.00  0.00    -0.283 OA
ENDBRANCH   3  26
TORSDOF 4
ENDMDL