MODEL 5
REMARK VINA RESULT: -4.360472569      2.007      4.954
REMARK  0 active torsions:
REMARK  status: ('A' for Active; 'I' for Inactive)
ROOT
HETATM    1  C1  UNL     1      40.964 -10.999 -29.154  1.00  0.00     0.018 C
HETATM    2  C2  UNL     1      39.838 -10.570 -29.248  1.00  0.00    -0.078 C
HETATM    3  C3  UNL     1      38.504 -10.042 -29.349  1.00  0.00     0.019 A
HETATM    4  C4  UNL     1      37.493 -10.425 -28.489  1.00  0.00     0.021 A
HETATM    5  C5  UNL     1      36.215  -9.912 -28.592  1.00  0.00     0.015 A
HETATM    6  C6  UNL     1      35.895  -8.990 -29.567  1.00  0.00    -0.009 A
HETATM    7  C7  UNL     1      34.620  -8.455 -29.699  1.00  0.00     0.015 A
HETATM    8  C8  UNL     1      34.322  -7.534 -30.681  1.00  0.00     0.018 A
HETATM    9  C9  UNL     1      35.341  -7.167 -31.526  1.00  0.00     0.088 A
HETATM   10  N1  UNL     1      36.570  -7.694 -31.385  1.00  0.00    -0.365 N
ATOM     11  H1  UNL     1      37.300  -7.396 -32.032  1.00  0.00     0.165 HD
HETATM   12  C10 UNL     1      36.892  -8.594 -30.437  1.00  0.00     0.043 A
HETATM   13  C11 UNL     1      38.171  -9.118 -30.320  1.00  0.00     0.051 A
ENDROOT
TORSDOF 0
ENDMDL