MODEL 3
REMARK VINA RESULT: -4.519314920      1.096      4.665
REMARK  0 active torsions:
REMARK  status: ('A' for Active; 'I' for Inactive)
ROOT
HETATM    1  C1  UNL     1      39.673 -13.618 -30.103  1.00  0.00     0.018 C
HETATM    2  C2  UNL     1      39.138 -12.523 -30.113  1.00  0.00    -0.076 C
HETATM    3  C3  UNL     1      38.492 -11.241 -30.139  1.00  0.00     0.033 A
HETATM    4  C4  UNL     1      38.864 -10.261 -29.240  1.00  0.00     0.109 A
HETATM    5  N1  UNL     1      38.270  -9.045 -29.244  1.00  0.00    -0.364 N
ATOM      6  H1  UNL     1      38.576  -8.352 -28.561  1.00  0.00     0.165 HD
HETATM    7  C5  UNL     1      37.295  -8.709 -30.108  1.00  0.00     0.042 A
HETATM    8  C6  UNL     1      36.697  -7.458 -30.097  1.00  0.00     0.030 A
HETATM    9  C7  UNL     1      35.695  -7.119 -30.987  1.00  0.00     0.002 A
HETATM   10  C8  UNL     1      35.297  -8.072 -31.902  1.00  0.00     0.001 A
HETATM   11  C9  UNL     1      35.891  -9.326 -31.917  1.00  0.00     0.014 A
HETATM   12  C10 UNL     1      36.891  -9.663 -31.029  1.00  0.00    -0.008 A
HETATM   13  C11 UNL     1      37.493 -10.911 -31.031  1.00  0.00     0.035 A
ENDROOT
TORSDOF 0
ENDMDL