MODEL 2
REMARK VINA RESULT: -7.493690421      1.464      3.038
REMARK  0 active torsions:
REMARK  status: ('A' for Active; 'I' for Inactive)
ROOT
HETATM    1  C1  UNL     1      35.273  -7.471 -31.392  1.00  0.00     0.018 C
HETATM    2  C2  UNL     1      35.745  -8.521 -31.030  1.00  0.00    -0.077 C
HETATM    3  C3  UNL     1      36.317  -9.767 -30.605  1.00  0.00     0.028 A
HETATM    4  C4  UNL     1      35.592 -10.940 -30.674  1.00  0.00     0.021 A
HETATM    5  C5  UNL     1      36.157 -12.141 -30.260  1.00  0.00     0.002 A
HETATM    6  C6  UNL     1      37.444 -12.166 -29.779  1.00  0.00     0.014 A
HETATM    7  C7  UNL     1      38.190 -11.013 -29.699  1.00  0.00    -0.009 A
HETATM    8  C8  UNL     1      39.483 -11.028 -29.217  1.00  0.00     0.100 A
HETATM    9  N1  UNL     1      40.167  -9.863 -29.161  1.00  0.00    -0.374 N
ATOM     10  H1  UNL     1      41.124  -9.860 -28.807  1.00  0.00     0.164 HD
HETATM   11  C9  UNL     1      39.616  -8.717 -29.561  1.00  0.00     0.088 A
HETATM   12  C10 UNL     1      38.323  -8.656 -30.051  1.00  0.00     0.030 A
HETATM   13  C11 UNL     1      37.595  -9.817 -30.123  1.00  0.00    -0.005 A
ENDROOT
TORSDOF 0
ENDMDL