MODEL 1
REMARK VINA RESULT: -6.808209575      0.000      0.000
REMARK  0 active torsions:
REMARK  status: ('A' for Active; 'I' for Inactive)
ROOT
HETATM    1  C1  UNL     1      35.149  -7.552 -31.265  1.00  0.00     0.051 C
HETATM    2  C2  UNL     1      36.118  -8.420 -31.024  1.00  0.00     0.066 A
HETATM    3  C3  UNL     1      37.515  -7.963 -31.009  1.00  0.00     0.037 A
HETATM    4  C4  UNL     1      38.512  -8.797 -30.772  1.00  0.00     0.017 A
HETATM    5  C5  UNL     1      38.251 -10.216 -30.515  1.00  0.00    -0.002 A
HETATM    6  C6  UNL     1      39.280 -11.102 -30.266  1.00  0.00     0.014 A
HETATM    7  C7  UNL     1      38.987 -12.433 -30.028  1.00  0.00     0.001 A
HETATM    8  C8  UNL     1      37.693 -12.860 -30.041  1.00  0.00     0.003 A
HETATM    9  C9  UNL     1      36.694 -11.959 -30.291  1.00  0.00     0.038 A
HETATM   10  C10 UNL     1      36.930 -10.608 -30.537  1.00  0.00     0.086 A
HETATM   11  O1  UNL     1      35.867  -9.753 -30.783  1.00  0.00    -0.311 OA
ENDROOT
TORSDOF 0
ENDMDL