MODEL 3
REMARK VINA RESULT: -4.807943854      1.134      1.792
REMARK  0 active torsions:
REMARK  status: ('A' for Active; 'I' for Inactive)
ROOT
HETATM    1  C1  UNL     1      34.863  -6.614 -31.708  1.00  0.00     0.019 C
HETATM    2  C2  UNL     1      35.393  -7.567 -31.192  1.00  0.00    -0.060 C
HETATM    3  C3  UNL     1      36.027  -8.728 -30.591  1.00  0.00     0.086 A
HETATM    4  C4  UNL     1      35.642  -9.208 -29.355  1.00  0.00     0.040 A
HETATM    5  C5  UNL     1      36.257 -10.314 -28.800  1.00  0.00     0.016 A
HETATM    6  C6  UNL     1      37.275 -10.969 -29.467  1.00  0.00    -0.009 A
HETATM    7  C7  UNL     1      37.907 -12.081 -28.931  1.00  0.00     0.013 A
HETATM    8  C8  UNL     1      38.920 -12.708 -29.627  1.00  0.00     0.001 A
HETATM    9  C9  UNL     1      39.301 -12.225 -30.861  1.00  0.00     0.002 A
HETATM   10  C10 UNL     1      38.655 -11.111 -31.378  1.00  0.00     0.030 A
HETATM   11  C11 UNL     1      37.635 -10.466 -30.697  1.00  0.00     0.043 A
HETATM   12  N1  UNL     1      37.017  -9.381 -31.219  1.00  0.00    -0.349 N
ATOM     13  H1  UNL     1      37.318  -9.044 -32.132  1.00  0.00     0.167 HD
ENDROOT
TORSDOF 0
ENDMDL