MODEL 5
REMARK VINA RESULT: -6.061311954      1.968      2.113
REMARK  1 active torsions:
REMARK  status: ('A' for Active; 'I' for Inactive)
REMARK    1  A    between atoms: O1_1  and  N1_3
ROOT
HETATM    1  N1  UNL     1      39.270 -10.166 -29.345  1.00  0.00    -0.228 N
HETATM    2  C1  UNL     1      39.327  -8.850 -29.131  1.00  0.00     0.173 A
HETATM    3  S1  UNL     1      37.695  -8.370 -29.288  1.00  0.00    -0.080 SA
HETATM    4  C2  UNL     1      37.012  -9.896 -29.625  1.00  0.00     0.035 A
HETATM    5  C3  UNL     1      35.707 -10.362 -29.885  1.00  0.00     0.021 A
HETATM    6  C4  UNL     1      35.501 -11.697 -30.124  1.00  0.00     0.002 A
HETATM    7  C5  UNL     1      36.601 -12.514 -30.094  1.00  0.00     0.002 A
HETATM    8  C6  UNL     1      37.862 -12.074 -29.846  1.00  0.00     0.033 A
HETATM    9  C7  UNL     1      38.105 -10.714 -29.597  1.00  0.00     0.079 A
ENDROOT
BRANCH   1  10
HETATM   10  O1  UNL     1      40.512 -10.850 -29.276  1.00  0.00    -0.282 OA
ATOM     11  H1  UNL     1      40.706 -11.261 -28.441  1.00  0.00     0.245 HD
ENDBRANCH   1  10
TORSDOF 1
ENDMDL