MODEL 1
REMARK VINA RESULT: -8.064756156      0.000      0.000
REMARK  0 active torsions:
REMARK  status: ('A' for Active; 'I' for Inactive)
ROOT
HETATM    1  N1  UNL     1      38.280  -7.421 -27.583  1.00  0.00    -0.191 NA
HETATM    2  C1  UNL     1      37.728  -7.906 -28.479  1.00  0.00     0.100 C
HETATM    3  C2  UNL     1      37.029  -8.531 -29.589  1.00  0.00     0.055 A
HETATM    4  C3  UNL     1      36.644  -7.817 -30.696  1.00  0.00     0.023 A
HETATM    5  C4  UNL     1      35.977  -8.423 -31.751  1.00  0.00     0.002 A
HETATM    6  C5  UNL     1      35.680  -9.769 -31.718  1.00  0.00     0.012 A
HETATM    7  C6  UNL     1      36.057 -10.505 -30.618  1.00  0.00    -0.025 A
HETATM    8  C7  UNL     1      35.760 -11.853 -30.583  1.00  0.00     0.012 A
HETATM    9  C8  UNL     1      36.150 -12.565 -29.468  1.00  0.00     0.001 A
HETATM   10  C9  UNL     1      36.819 -11.951 -28.410  1.00  0.00     0.001 A
HETATM   11  C10 UNL     1      37.104 -10.611 -28.467  1.00  0.00     0.014 A
HETATM   12  C11 UNL     1      36.726  -9.885 -29.566  1.00  0.00    -0.005 A
ENDROOT
TORSDOF 0
ENDMDL