MODEL 5
REMARK VINA RESULT: -6.554074087      1.451      3.873
REMARK  0 active torsions:
REMARK  status: ('A' for Active; 'I' for Inactive)
ROOT
HETATM    1  C1  UNL     1      35.793 -13.028 -30.187  1.00  0.00     0.018 C
HETATM    2  C2  UNL     1      36.041 -11.862 -30.363  1.00  0.00    -0.077 C
HETATM    3  C3  UNL     1      36.344 -10.459 -30.550  1.00  0.00     0.029 A
HETATM    4  C4  UNL     1      35.478  -9.566 -31.096  1.00  0.00     0.021 A
HETATM    5  C5  UNL     1      35.836  -8.243 -31.243  1.00  0.00     0.004 A
HETATM    6  C6  UNL     1      37.064  -7.780 -30.850  1.00  0.00     0.030 A
HETATM    7  C7  UNL     1      37.971  -8.687 -30.285  1.00  0.00     0.043 A
HETATM    8  N1  UNL     1      39.193  -8.244 -29.889  1.00  0.00    -0.365 N
ATOM      9  H1  UNL     1      39.448  -7.263 -30.002  1.00  0.00     0.165 HD
HETATM   10  C8  UNL     1      40.066  -9.120 -29.344  1.00  0.00     0.088 A
HETATM   11  C9  UNL     1      39.748 -10.451 -29.179  1.00  0.00     0.018 A
HETATM   12  C10 UNL     1      38.513 -10.903 -29.577  1.00  0.00     0.016 A
HETATM   13  C11 UNL     1      37.605 -10.007 -30.141  1.00  0.00     0.009 A
ENDROOT
TORSDOF 0
ENDMDL