MODEL 1
REMARK VINA RESULT: -7.369356230      0.000      0.000
REMARK  1 active torsions:
REMARK  status: ('A' for Active; 'I' for Inactive)
REMARK    1  A    between atoms: O1_1  and  N1_3
ROOT
HETATM    1  N1  UNL     1      37.394  -8.500 -29.108  1.00  0.00    -0.235 N
HETATM    2  C1  UNL     1      37.115  -7.520 -29.977  1.00  0.00     0.123 A
HETATM    3  C2  UNL     1      36.374  -7.777 -31.109  1.00  0.00     0.021 A
HETATM    4  C3  UNL     1      35.916  -9.056 -31.347  1.00  0.00     0.015 A
HETATM    5  C4  UNL     1      36.196 -10.084 -30.457  1.00  0.00    -0.007 A
HETATM    6  C5  UNL     1      35.744 -11.377 -30.679  1.00  0.00     0.014 A
HETATM    7  C6  UNL     1      36.029 -12.384 -29.790  1.00  0.00     0.001 A
HETATM    8  C7  UNL     1      36.776 -12.061 -28.677  1.00  0.00     0.002 A
HETATM    9  C8  UNL     1      37.227 -10.778 -28.450  1.00  0.00     0.033 A
HETATM   10  C9  UNL     1      36.943  -9.748 -29.348  1.00  0.00     0.072 A
ENDROOT
BRANCH   1  11
HETATM   11  O1  UNL     1      38.135  -8.189 -27.997  1.00  0.00    -0.283 OA
ATOM     12  H1  UNL     1      38.075  -8.763 -27.243  1.00  0.00     0.245 HD
ENDBRANCH   1  11
TORSDOF 1
ENDMDL