MODEL 3
REMARK VINA RESULT: -7.001970071      2.083      3.289
REMARK  0 active torsions:
REMARK  status: ('A' for Active; 'I' for Inactive)
ROOT
HETATM    1  C1  UNL     1      34.884 -11.991 -30.219  1.00  0.00     0.018 C
HETATM    2  C2  UNL     1      36.028 -11.632 -30.022  1.00  0.00    -0.077 C
HETATM    3  C3  UNL     1      37.380 -11.187 -29.798  1.00  0.00     0.029 A
HETATM    4  C4  UNL     1      38.458 -11.950 -30.211  1.00  0.00     0.022 A
HETATM    5  C5  UNL     1      39.757 -11.536 -30.002  1.00  0.00     0.004 A
HETATM    6  C6  UNL     1      39.968 -10.330 -29.366  1.00  0.00     0.038 A
HETATM    7  C7  UNL     1      38.923  -9.524 -28.931  1.00  0.00     0.086 A
HETATM    8  O1  UNL     1      38.837  -8.385 -28.328  1.00  0.00    -0.322 OA
HETATM    9  C8  UNL     1      37.593  -8.021 -28.126  1.00  0.00     0.143 A
HETATM   10  C9  UNL     1      36.793  -9.038 -28.656  1.00  0.00     0.040 A
HETATM   11  C10 UNL     1      37.637  -9.989 -29.166  1.00  0.00     0.018 A
ENDROOT
TORSDOF 0
ENDMDL