MODEL 5
REMARK VINA RESULT: -6.462054415      1.360      2.099
REMARK  4 active torsions:
REMARK  status: ('A' for Active; 'I' for Inactive)
REMARK    1  A    between atoms: C4_4  and  S1_5
REMARK    2  A    between atoms: S1_5  and  C5_8
REMARK    3  A    between atoms: C11_15  and  S3_16
REMARK    4  A    between atoms: S3_16  and  N1_17
ROOT
HETATM    1  C1  UNL     1      -4.450  18.569   1.948  1.00  0.00     0.050 C
HETATM    2  C2  UNL     1      -3.307  18.463   2.880  1.00  0.00    -0.037 A
HETATM    3  C3  UNL     1      -2.687  17.239   3.137  1.00  0.00     0.032 A
HETATM    4  C4  UNL     1      -1.628  17.127   3.997  1.00  0.00     0.064 A
HETATM    5  C9  UNL     1      -1.146  18.240   4.638  1.00  0.00     0.025 A
HETATM    6  C10 UNL     1      -1.751  19.454   4.393  1.00  0.00     0.027 A
HETATM    7  C11 UNL     1      -2.811  19.578   3.533  1.00  0.00     0.085 A
ENDROOT
BRANCH   4   8
HETATM    8  S1  UNL     1      -0.899  15.593   4.278  1.00  0.00     0.207 S
HETATM    9  O1  UNL     1       0.254  15.383   3.343  1.00  0.00    -0.217 OA
HETATM   10  O2  UNL     1      -1.867  14.458   4.005  1.00  0.00    -0.217 OA
BRANCH   8  11
HETATM   11  C5  UNL     1      -0.294  15.458   5.943  1.00  0.00     0.071 A
HETATM   12  C6  UNL     1      -1.057  15.774   7.008  1.00  0.00     0.031 A
HETATM   13  C7  UNL     1      -0.491  15.636   8.246  1.00  0.00     0.051 A
HETATM   14  S2  UNL     1       1.077  15.074   7.891  1.00  0.00    -0.112 SA
HETATM   15  C8  UNL     1       0.977  15.028   6.193  1.00  0.00     0.073 A
ENDBRANCH   8  11
ENDBRANCH   4   8
BRANCH   7  16
HETATM   16  S3  UNL     1      -3.574  21.145   3.230  1.00  0.00     0.257 S
HETATM   17  O3  UNL     1      -3.216  21.659   1.863  1.00  0.00    -0.201 OA
HETATM   18  O4  UNL     1      -5.038  21.025   3.442  1.00  0.00    -0.201 OA
BRANCH  16  19
HETATM   19  N1  UNL     1      -2.892  22.285   4.365  1.00  0.00    -0.324 N
ATOM     20  H12 UNL     1      -2.016  22.793   4.242  1.00  0.00     0.169 HD
ATOM     21  H11 UNL     1      -3.530  22.341   5.159  1.00  0.00     0.169 HD
ENDBRANCH  16  19
ENDBRANCH   7  16
TORSDOF 4
ENDMDL