MODEL 1
REMARK VINA RESULT: -8.191078472      0.000      0.000
REMARK  4 active torsions:
REMARK  status: ('A' for Active; 'I' for Inactive)
REMARK    1  A    between atoms: C6_9  and  S1_10
REMARK    2  A    between atoms: S1_10  and  N3_13
REMARK    3  A    between atoms: N3_13  and  C7_15
REMARK    4  A    between atoms: C8_19  and  C9_20
ROOT
HETATM    1  S1  UNL     1       1.810  17.726   6.526  1.00  0.00     0.268 S
HETATM    2  O1  UNL     1       1.250  19.035   6.982  1.00  0.00    -0.200 OA
HETATM    3  O2  UNL     1       1.016  16.658   7.265  1.00  0.00    -0.200 OA
ENDROOT
BRANCH   1   4
HETATM    4  C6  UNL     1       3.446  17.604   7.054  1.00  0.00     0.127 A
HETATM    5  C2  UNL     1       4.269  18.469   7.701  1.00  0.00     0.047 A
HETATM    6  C1  UNL     1       3.902  19.820   8.123  1.00  0.00     0.071 C
HETATM    7  N1  UNL     1       5.464  17.893   7.889  1.00  0.00    -0.302 N
HETATM    8  N2  UNL     1       5.437  16.659   7.372  1.00  0.00    -0.299 N
ATOM      9  H1  UNL     1       6.265  18.325   8.351  1.00  0.00     0.186 HD
HETATM   10  C3  UNL     1       6.590  15.769   7.414  1.00  0.00     0.177 C
HETATM   11  C4  UNL     1       4.209  16.448   6.850  1.00  0.00     0.049 A
HETATM   12  C5  UNL     1       3.833  15.188   6.197  1.00  0.00     0.071 C
ENDBRANCH   1   4
BRANCH   1  13
HETATM   13  N3  UNL     1       1.565  17.491   4.878  1.00  0.00    -0.264 N
ATOM     14  H3  UNL     1       2.143  17.995   4.206  1.00  0.00     0.180 HD
BRANCH  13  15
HETATM   15  C7  UNL     1       0.661  16.688   4.458  1.00  0.00     0.143 A
HETATM   16  N4  UNL     1       0.826  15.413   4.051  1.00  0.00    -0.244 N
HETATM   17  O3  UNL     1      -0.318  14.897   3.690  1.00  0.00    -0.240 OA
ATOM     18  H4  UNL     1       1.720  14.921   4.028  1.00  0.00     0.196 HD
HETATM   19  C8  UNL     1      -1.278  15.756   3.827  1.00  0.00     0.089 A
HETATM   20  C12 UNL     1      -0.702  16.905   4.311  1.00  0.00     0.017 A
HETATM   21  C13 UNL     1      -1.369  18.187   4.641  1.00  0.00     0.055 C
BRANCH  19  22
HETATM   22  C9  UNL     1      -2.702  15.536   3.521  1.00  0.00     0.038 C
HETATM   23  C10 UNL     1      -2.869  14.230   2.735  1.00  0.00     0.016 C
HETATM   24  C11 UNL     1      -3.190  16.629   2.558  1.00  0.00     0.016 C
ENDBRANCH  19  22
ENDBRANCH  13  15
ENDBRANCH   1  13
TORSDOF 4
ENDMDL