MODEL 1
REMARK VINA RESULT: -8.719156116      0.000      0.000
REMARK  4 active torsions:
REMARK  status: ('A' for Active; 'I' for Inactive)
REMARK    1  A    between atoms: C8_10  and  O3_11
REMARK    2  A    between atoms: C8_10  and  S1_13
REMARK    3  A    between atoms: S1_13  and  C9_16
REMARK    4  A    between atoms: C9_16  and  C10_17
ROOT
HETATM    1  O1  UNL     1       0.637  14.452   6.868  1.00  0.00    -0.285 OA
HETATM    2  C1  UNL     1       1.235  15.540   6.811  1.00  0.00     0.240 C
HETATM    3  C2  UNL     1       2.653  15.696   6.548  1.00  0.00     0.050 A
HETATM    4  C3  UNL     1       3.683  14.857   6.189  1.00  0.00     0.018 A
HETATM    5  C4  UNL     1       4.964  15.334   6.011  1.00  0.00     0.001 A
HETATM    6  C5  UNL     1       5.228  16.671   6.196  1.00  0.00     0.003 A
HETATM    7  C6  UNL     1       4.219  17.535   6.555  1.00  0.00     0.038 A
HETATM    8  C7  UNL     1       2.945  17.049   6.730  1.00  0.00     0.088 A
HETATM    9  O2  UNL     1       1.794  17.705   7.081  1.00  0.00    -0.293 OA
HETATM   10  C8  UNL     1       0.662  16.866   6.990  1.00  0.00     0.343 C
ENDROOT
BRANCH  10  11
HETATM   11  O3  UNL     1      -0.008  16.958   8.224  1.00  0.00    -0.347 OA
ATOM     12  H3  UNL     1       0.196  16.212   8.775  1.00  0.00     0.214 HD
ENDBRANCH  10  11
BRANCH  10  13
HETATM   13  S1  UNL     1      -0.401  17.365   5.665  1.00  0.00     0.216 S
HETATM   14  O4  UNL     1      -0.337  18.847   5.557  1.00  0.00    -0.221 OA
HETATM   15  O5  UNL     1      -1.808  16.985   6.030  1.00  0.00    -0.221 OA
BRANCH  13  16
HETATM   16  C9  UNL     1       0.013  16.559   4.146  1.00  0.00     0.185 C
BRANCH  16  17
HETATM   17  C10 UNL     1      -1.031  15.614   3.705  1.00  0.00    -0.044 A
HETATM   18  C11 UNL     1      -0.876  14.235   3.827  1.00  0.00     0.008 A
HETATM   19  C12 UNL     1      -1.854  13.359   3.413  1.00  0.00     0.001 A
HETATM   20  C13 UNL     1      -3.009  13.868   2.868  1.00  0.00     0.000 A
HETATM   21  C14 UNL     1      -3.169  15.237   2.745  1.00  0.00     0.001 A
HETATM   22  C15 UNL     1      -2.201  16.130   3.153  1.00  0.00     0.008 A
ENDBRANCH  16  17
ENDBRANCH  13  16
ENDBRANCH  10  13
TORSDOF 4
ENDMDL