MODEL 3
REMARK VINA RESULT: -8.622738528      2.474      3.813
REMARK  4 active torsions:
REMARK  status: ('A' for Active; 'I' for Inactive)
REMARK    1  A    between atoms: O1_2  and  C2_3
REMARK    2  A    between atoms: C8_9  and  N1_10
REMARK    3  A    between atoms: N1_10  and  N2_12
REMARK    4  A    between atoms: C9_14  and  C10_15
ROOT
HETATM    1  C2  UNL     1       1.955  18.905   6.579  1.00  0.00     0.069 A
HETATM    2  C3  UNL     1       3.229  19.426   6.601  1.00  0.00     0.038 A
HETATM    3  C4  UNL     1       4.297  18.554   6.544  1.00  0.00     0.029 A
HETATM    4  C5  UNL     1       4.087  17.206   6.466  1.00  0.00     0.094 A
HETATM    5  C6  UNL     1       2.850  16.674   6.443  1.00  0.00     0.036 A
HETATM    6  C7  UNL     1       1.770  17.545   6.500  1.00  0.00     0.053 A
HETATM    7  C8  UNL     1       2.828  15.233   6.358  1.00  0.00     0.141 A
HETATM    8  N3  UNL     1       4.089  14.623   6.315  1.00  0.00    -0.264 N
ATOM      9  H3  UNL     1       4.285  13.624   6.257  1.00  0.00     0.180 HD
HETATM   10  S1  UNL     1       5.242  15.902   6.382  1.00  0.00     0.265 S
HETATM   11  O2  UNL     1       6.102  15.828   7.598  1.00  0.00    -0.200 OA
HETATM   12  O3  UNL     1       6.023  16.025   5.115  1.00  0.00    -0.200 OA
ENDROOT
BRANCH   7  13
HETATM   13  N1  UNL     1       1.740  14.510   6.322  1.00  0.00    -0.285 N
ATOM     14  H1  UNL     1       1.759  13.593   6.768  1.00  0.00     0.188 HD
BRANCH  13  15
HETATM   15  N2  UNL     1       0.571  14.913   5.719  1.00  0.00    -0.309 N
HETATM   16  C9  UNL     1       0.329  14.737   4.453  1.00  0.00     0.118 C
ATOM     17  H2  UNL     1      -0.139  15.370   6.292  1.00  0.00     0.186 HD
BRANCH  16  18
HETATM   18  C10 UNL     1      -0.933  15.183   3.858  1.00  0.00    -0.019 A
HETATM   19  C11 UNL     1      -1.262  16.507   3.814  1.00  0.00     0.013 A
HETATM   20  C12 UNL     1      -2.439  16.953   3.263  1.00  0.00     0.001 A
HETATM   21  C13 UNL     1      -3.325  16.054   2.733  1.00  0.00     0.000 A
HETATM   22  C14 UNL     1      -3.021  14.710   2.762  1.00  0.00     0.001 A
HETATM   23  C15 UNL     1      -1.838  14.287   3.319  1.00  0.00     0.013 A
ENDBRANCH  16  18
ENDBRANCH  13  15
ENDBRANCH   7  13
BRANCH   1  24
HETATM   24  O1  UNL     1       0.857  19.786   6.638  1.00  0.00    -0.356 OA
HETATM   25  C1  UNL     1       1.026  21.136   6.244  1.00  0.00     0.210 C
ENDBRANCH   1  24
TORSDOF 4
ENDMDL