MODEL 1
REMARK VINA RESULT: -8.811059188      0.000      0.000
REMARK  6 active torsions:
REMARK  status: ('A' for Active; 'I' for Inactive)
REMARK    1  A    between atoms: N1_2  and  C1_4
REMARK    2  A    between atoms: C6_9  and  O3_10
REMARK    3  A    between atoms: C7_12  and  C8_13
REMARK    4  A    between atoms: C13_18  and  C14_19
REMARK    5  A    between atoms: C14_19  and  O4_20
REMARK    6  A    between atoms: N2_22  and  O5_23
ROOT
HETATM    1  C1  UNL     1      -2.778  17.111   3.033  1.00  0.00     0.105 A
HETATM    2  C2  UNL     1      -3.159  15.808   2.758  1.00  0.00     0.037 A
HETATM    3  C3  UNL     1      -2.375  14.738   3.108  1.00  0.00     0.016 A
HETATM    4  C4  UNL     1      -1.182  14.944   3.746  1.00  0.00    -0.004 A
HETATM    5  C5  UNL     1      -0.357  13.888   4.120  1.00  0.00     0.052 A
HETATM    6  C6  UNL     1       0.829  14.169   4.758  1.00  0.00     0.096 A
HETATM    7  C7  UNL     1       1.246  15.454   5.052  1.00  0.00     0.107 A
HETATM    8  N2  UNL     1       0.419  16.447   4.675  1.00  0.00    -0.221 N
HETATM    9  C15 UNL     1      -0.759  16.213   4.042  1.00  0.00     0.075 A
HETATM   10  C16 UNL     1      -1.572  17.275   3.676  1.00  0.00     0.069 A
ENDROOT
BRANCH   7  11
HETATM   11  C8  UNL     1       2.504  15.732   5.729  1.00  0.00     0.004 A
HETATM   12  C9  UNL     1       3.688  16.010   5.076  1.00  0.00     0.014 A
HETATM   13  C10 UNL     1       4.864  16.268   5.785  1.00  0.00     0.001 A
HETATM   14  C11 UNL     1       4.862  16.250   7.165  1.00  0.00     0.001 A
HETATM   15  C12 UNL     1       3.667  15.970   7.803  1.00  0.00     0.010 A
HETATM   16  C13 UNL     1       2.505  15.715   7.102  1.00  0.00    -0.022 A
BRANCH  16  17
HETATM   17  C14 UNL     1       1.237  15.418   7.809  1.00  0.00     0.203 C
BRANCH  17  18
HETATM   18  O4  UNL     1       0.517  16.606   8.033  1.00  0.00    -0.396 OA
ATOM     19  H4  UNL     1       1.094  17.279   8.374  1.00  0.00     0.209 HD
ENDBRANCH  17  18
ENDBRANCH  16  17
ENDBRANCH   7  11
BRANCH   6  20
HETATM   20  O3  UNL     1       1.636  13.103   5.121  1.00  0.00    -0.358 OA
ATOM     21  H3  UNL     1       2.562  13.161   4.921  1.00  0.00     0.217 HD
ENDBRANCH   6  20
BRANCH   8  22
HETATM   22  O5  UNL     1       0.762  17.732   4.930  1.00  0.00    -0.282 OA
ATOM     23  H5  UNL     1       0.475  18.141   5.738  1.00  0.00     0.245 HD
ENDBRANCH   8  22
BRANCH   1  24
HETATM   24  N1  UNL     1      -3.603  18.206   2.663  1.00  0.00    -0.116 N
HETATM   25  O1  UNL     1      -4.710  17.984   2.138  1.00  0.00    -0.532 OA
HETATM   26  O2  UNL     1      -3.173  19.479   2.887  1.00  0.00    -0.532 OA
ENDBRANCH   1  24
TORSDOF 6
ENDMDL