MODEL 2
REMARK VINA RESULT: -7.297540730      1.702      5.486
REMARK  4 active torsions:
REMARK  status: ('A' for Active; 'I' for Inactive)
REMARK    1  A    between atoms: C2_2  and  C3_3
REMARK    2  A    between atoms: C3_3  and  C4_4
REMARK    3  A    between atoms: C8_9  and  C9_10
REMARK    4  A    between atoms: C17_21  and  O5_22
ROOT
HETATM    1  C4  UNL     1       3.502  15.806   5.895  1.00  0.00     0.090 C
HETATM    2  C5  UNL     1       2.663  14.636   5.771  1.00  0.00     0.171 C
HETATM    3  O1  UNL     1       3.058  13.519   5.927  1.00  0.00    -0.294 OA
HETATM    4  C6  UNL     1       1.241  14.878   5.432  1.00  0.00     0.155 C
HETATM    5  C7  UNL     1       1.098  16.336   5.088  1.00  0.00     0.090 C
HETATM    6  C8  UNL     1       1.448  17.113   6.347  1.00  0.00     0.093 C
HETATM    7  O2  UNL     1       0.484  16.849   7.272  1.00  0.00    -0.374 OA
HETATM    8  C12 UNL     1       0.202  15.576   7.609  1.00  0.00     0.204 C
HETATM    9  C13 UNL     1       0.298  14.548   6.544  1.00  0.00     0.191 C
HETATM   10  O3  UNL     1      -0.899  14.430   5.839  1.00  0.00    -0.345 OA
HETATM   11  C14 UNL     1      -0.520  13.708   4.705  1.00  0.00     0.159 C
HETATM   12  C15 UNL     1      -1.429  14.023   3.527  1.00  0.00     0.078 C
HETATM   13  C16 UNL     1      -0.571  12.244   5.075  1.00  0.00     0.078 C
HETATM   14  O4  UNL     1       0.750  14.140   4.385  1.00  0.00    -0.334 OA
HETATM   15  C17 UNL     1       2.809  16.788   6.856  1.00  0.00     0.164 C
ENDROOT
BRANCH   1  16
HETATM   16  C3  UNL     1       4.918  15.605   6.280  1.00  0.00     0.014 C
BRANCH  16  17
HETATM   17  C2  UNL     1       5.925  15.692   5.196  1.00  0.00    -0.004 C
HETATM   18  C1  UNL     1       7.175  14.945   5.693  1.00  0.00     0.005 C
ENDBRANCH  16  17
ENDBRANCH   1  16
BRANCH  15  19
HETATM   19  O5  UNL     1       3.637  17.853   7.121  1.00  0.00    -0.392 OA
ATOM     20  H5  UNL     1       4.545  17.591   7.031  1.00  0.00     0.210 HD
ENDBRANCH  15  19
BRANCH   6  21
HETATM   21  C9  UNL     1       1.383  18.592   6.016  1.00  0.00     0.015 C
HETATM   22  C10 UNL     1       1.591  19.421   7.235  1.00  0.00     0.012 C
HETATM   23  C11 UNL     1       0.004  18.876   5.439  1.00  0.00     0.012 C
ENDBRANCH   6  21
TORSDOF 4
ENDMDL