MODEL 5
REMARK VINA RESULT: -7.340437516      1.768      2.652
REMARK  4 active torsions:
REMARK  status: ('A' for Active; 'I' for Inactive)
REMARK    1  A    between atoms: N1_1  and  S1_4
REMARK    2  A    between atoms: S1_4  and  C1_7
REMARK    3  A    between atoms: C4_10  and  N2_11
REMARK    4  A    between atoms: C5_13  and  C6_14
ROOT
HETATM    1  N2  UNL     1       4.154  17.736   8.532  1.00  0.00    -0.365 N
ATOM      2  H2  UNL     1       3.366  17.595   9.164  1.00  0.00     0.165 HD
HETATM    3  C5  UNL     1       4.181  17.172   7.377  1.00  0.00     0.100 C
ENDROOT
BRANCH   1   4
HETATM    4  C4  UNL     1       5.249  18.560   8.904  1.00  0.00     0.032 A
HETATM    5  C3  UNL     1       6.390  17.914   9.390  1.00  0.00     0.031 A
HETATM    6  C2  UNL     1       7.502  18.634   9.775  1.00  0.00     0.027 A
HETATM    7  C1  UNL     1       7.475  20.011   9.673  1.00  0.00     0.079 A
HETATM    8  C15 UNL     1       6.345  20.658   9.190  1.00  0.00     0.027 A
HETATM    9  C14 UNL     1       5.234  19.935   8.806  1.00  0.00     0.031 A
BRANCH   7  10
HETATM   10  S1  UNL     1       8.905  20.915  10.169  1.00  0.00     0.256 S
HETATM   11  O1  UNL     1       8.866  21.078  11.640  1.00  0.00    -0.201 OA
HETATM   12  O2  UNL     1      10.109  20.188   9.672  1.00  0.00    -0.201 OA
BRANCH  10  13
HETATM   13  N1  UNL     1       8.801  22.473   9.436  1.00  0.00    -0.324 N
ATOM     14  H12 UNL     1       9.322  22.763   8.609  1.00  0.00     0.169 HD
ATOM     15  H11 UNL     1       8.139  23.041   9.965  1.00  0.00     0.169 HD
ENDBRANCH  10  13
ENDBRANCH   7  10
ENDBRANCH   1   4
BRANCH   3  16
HETATM   16  C6  UNL     1       3.075  16.317   6.953  1.00  0.00    -0.018 A
HETATM   17  C7  UNL     1       2.540  15.393   7.823  1.00  0.00     0.016 A
HETATM   18  C8  UNL     1       1.490  14.577   7.428  1.00  0.00     0.040 A
HETATM   19  C9  UNL     1       0.972  14.689   6.146  1.00  0.00     0.102 A
HETATM   20  C10 UNL     1       1.494  15.608   5.258  1.00  0.00     0.102 A
HETATM   21  O4  UNL     1      -0.091  13.872   5.725  1.00  0.00    -0.346 OA
HETATM   22  C11 UNL     1       2.532  16.397   5.689  1.00  0.00     0.052 A
HETATM   23  O3  UNL     1       0.976  15.729   3.956  1.00  0.00    -0.346 OA
HETATM   24  C12 UNL     1      -0.349  15.203   3.790  1.00  0.00     0.202 C
HETATM   25  C13 UNL     1      -0.291  13.781   4.327  1.00  0.00     0.202 C
ENDBRANCH   3  16
TORSDOF 4
ENDMDL