MODEL 3
REMARK VINA RESULT: -8.131934597      1.573      2.164
REMARK  4 active torsions:
REMARK  status: ('A' for Active; 'I' for Inactive)
REMARK    1  A    between atoms: C2_4  and  O3_5
REMARK    2  A    between atoms: C2_4  and  C3_7
REMARK    3  A    between atoms: C3_7  and  S1_8
REMARK    4  A    between atoms: S1_8  and  C4_11
ROOT
HETATM    1  O1  UNL     1      -0.852  11.496   4.036  1.00  0.00    -0.259 OA
HETATM    2  C1  UNL     1      -0.694  12.684   4.416  1.00  0.00     0.297 A
HETATM    3  O2  UNL     1       0.202  13.163   5.356  1.00  0.00    -0.274 OA
HETATM    4  C2  UNL     1       0.049  14.550   5.484  1.00  0.00     0.214 A
HETATM    5  C10 UNL     1      -1.032  14.911   4.534  1.00  0.00     0.021 A
HETATM    6  C11 UNL     1      -1.552  16.182   4.291  1.00  0.00     0.013 A
HETATM    7  C12 UNL     1      -2.562  16.260   3.353  1.00  0.00     0.001 A
HETATM    8  C13 UNL     1      -3.038  15.153   2.687  1.00  0.00     0.001 A
HETATM    9  C14 UNL     1      -2.492  13.921   2.962  1.00  0.00     0.018 A
HETATM   10  C15 UNL     1      -1.471  13.792   3.901  1.00  0.00     0.051 A
ENDROOT
BRANCH   4  11
HETATM   11  O3  UNL     1      -0.255  14.919   6.783  1.00  0.00    -0.360 OA
ATOM     12  H3  UNL     1       0.116  15.764   7.007  1.00  0.00     0.213 HD
ENDBRANCH   4  11
BRANCH   4  13
HETATM   13  C3  UNL     1       1.310  15.239   4.989  1.00  0.00     0.220 C
BRANCH  13  14
HETATM   14  S1  UNL     1       2.427  15.386   6.360  1.00  0.00     0.180 S
HETATM   15  O4  UNL     1       1.838  14.639   7.521  1.00  0.00    -0.222 OA
HETATM   16  O5  UNL     1       3.763  14.837   5.967  1.00  0.00    -0.222 OA
BRANCH  14  17
HETATM   17  C4  UNL     1       2.547  17.107   6.735  1.00  0.00     0.059 A
HETATM   18  C5  UNL     1       1.502  17.964   6.550  1.00  0.00     0.023 A
HETATM   19  C6  UNL     1       1.676  19.296   6.868  1.00  0.00     0.002 A
HETATM   20  C7  UNL     1       2.889  19.734   7.362  1.00  0.00     0.000 A
HETATM   21  C8  UNL     1       3.920  18.850   7.536  1.00  0.00     0.002 A
HETATM   22  C9  UNL     1       3.770  17.530   7.229  1.00  0.00     0.023 A
ENDBRANCH  14  17
ENDBRANCH  13  14
ENDBRANCH   4  13
TORSDOF 4
ENDMDL