MODEL 3
REMARK VINA RESULT: -7.075697979      1.228      1.326
REMARK  3 active torsions:
REMARK  status: ('A' for Active; 'I' for Inactive)
REMARK    1  A    between atoms: C4_4  and  C5_5
REMARK    2  A    between atoms: N1_6  and  N2_8
REMARK       I    between atoms: N2_8  and  C6_10
REMARK    3  A    between atoms: C6_10  and  C7_12
ROOT
HETATM    1  C7  UNL     1      -1.093  15.000   4.131  1.00  0.00     0.121 C
HETATM    2  C8  UNL     1      -1.054  13.733   3.794  1.00  0.00     0.083 C
HETATM    3  S1  UNL     1       0.162  12.971   4.865  1.00  0.00    -0.111 SA
HETATM    4  C9  UNL     1       0.066  14.323   6.129  1.00  0.00     0.192 C
HETATM    5  N3  UNL     1      -0.201  15.380   5.156  1.00  0.00    -0.253 N
HETATM    6  S2  UNL     1       0.876  16.369   6.085  1.00  0.00     0.245 S
HETATM    7  O2  UNL     1       1.887  17.117   5.304  1.00  0.00    -0.204 OA
HETATM    8  O3  UNL     1       0.111  17.175   7.069  1.00  0.00    -0.204 OA
HETATM    9  C10 UNL     1       1.396  14.764   6.665  1.00  0.00     0.107 C
HETATM   10  C11 UNL     1       2.610  14.234   5.977  1.00  0.00     0.037 C
HETATM   11  C12 UNL     1       1.410  14.724   8.170  1.00  0.00     0.037 C
ENDROOT
BRANCH   1  12
HETATM   12  C6  UNL     1      -1.974  15.975   3.485  1.00  0.00     0.287 C
HETATM   13  N2  UNL     1      -1.834  17.378   3.632  1.00  0.00    -0.265 N
ATOM     14  H2  UNL     1      -1.078  17.730   4.220  1.00  0.00     0.190 HD
HETATM   15  O1  UNL     1      -2.908  15.562   2.760  1.00  0.00    -0.264 OA
BRANCH  13  16
HETATM   16  N1  UNL     1      -2.665  18.287   3.024  1.00  0.00    -0.309 N
HETATM   17  C5  UNL     1      -2.534  19.561   3.176  1.00  0.00     0.107 C
ATOM     18  H1  UNL     1      -3.416  17.939   2.427  1.00  0.00     0.186 HD
BRANCH  17  19
HETATM   19  C4  UNL     1      -3.448  20.465   2.504  1.00  0.00     0.020 C
HETATM   20  C2  UNL     1      -2.961  21.378   1.694  1.00  0.00    -0.086 C
HETATM   21  C1  UNL     1      -3.893  22.301   1.009  1.00  0.00     0.043 C
HETATM   22  C3  UNL     1      -1.509  21.489   1.466  1.00  0.00     0.043 C
ENDBRANCH  17  19
ENDBRANCH  13  16
ENDBRANCH   1  12
TORSDOF 3
ENDMDL