MODEL 1
REMARK VINA RESULT: -6.092916960      0.000      0.000
REMARK  4 active torsions:
REMARK  status: ('A' for Active; 'I' for Inactive)
REMARK    1  A    between atoms: C2_2  and  O1_3
REMARK    2  A    between atoms: C2_2  and  C3_5
REMARK    3  A    between atoms: C3_5  and  N1_6
REMARK    4  A    between atoms: N2_14  and  C9_15
ROOT
HETATM    1  N1  UNL     1      -1.041  15.266   4.761  1.00  0.00    -0.354 N
HETATM    2  C4  UNL     1      -1.794  16.291   4.172  1.00  0.00     0.137 C
HETATM    3  S1  UNL     1      -2.802  16.307   2.924  1.00  0.00    -0.053 SA
HETATM    4  S2  UNL     1      -1.428  17.789   5.123  1.00  0.00    -0.098 SA
HETATM    5  C5  UNL     1       0.008  17.035   5.985  1.00  0.00     0.113 C
HETATM    6  C6  UNL     1       0.223  15.730   5.280  1.00  0.00     0.046 C
HETATM    7  C7  UNL     1       0.893  14.808   6.240  1.00  0.00     0.062 C
HETATM    8  C8  UNL     1       2.403  14.764   5.994  1.00  0.00     0.275 C
HETATM    9  N2  UNL     1       2.833  16.131   5.795  1.00  0.00     0.094 N
HETATM   10  C12 UNL     1       2.418  16.585   4.480  1.00  0.00     0.275 C
HETATM   11  C13 UNL     1       1.152  15.859   4.078  1.00  0.00     0.062 C
ENDROOT
BRANCH   1  12
HETATM   12  C3  UNL     1      -1.469  13.901   4.830  1.00  0.00     0.156 C
BRANCH  12  13
HETATM   13  C2  UNL     1      -1.314  13.048   3.639  1.00  0.00     0.132 C
HETATM   14  C1  UNL     1      -0.709  11.722   4.099  1.00  0.00     0.041 C
BRANCH  13  15
HETATM   15  O1  UNL     1      -2.540  12.665   3.064  1.00  0.00    -0.394 OA
ATOM     16  H1  UNL     1      -2.533  13.102   2.220  1.00  0.00     0.210 HD
ENDBRANCH  13  15
ENDBRANCH  12  13
ENDBRANCH   1  12
BRANCH   9  17
HETATM   17  C9  UNL     1       4.262  16.287   5.874  1.00  0.00     0.241 C
HETATM   18  C10 UNL     1       4.610  17.711   6.237  1.00  0.00     0.110 C
HETATM   19  S3  UNL     1       4.168  17.300   7.969  1.00  0.00    -0.165 SA
HETATM   20  C11 UNL     1       4.897  15.853   7.168  1.00  0.00     0.110 C
ENDBRANCH   9  17
TORSDOF 4
ENDMDL