MODEL 5
REMARK VINA RESULT: -6.539592709      1.482      1.713
REMARK  5 active torsions:
REMARK  status: ('A' for Active; 'I' for Inactive)
REMARK    1  A    between atoms: C2_2  and  O1_3
REMARK    2  A    between atoms: C2_2  and  C3_5
REMARK    3  A    between atoms: C3_5  and  N1_6
REMARK    4  A    between atoms: C6_11  and  C7_12
REMARK    5  A    between atoms: N2_17  and  O2_18
ROOT
HETATM    1  N1  UNL     1      -5.395   5.749  18.538  1.00  0.00    -0.320 N
HETATM    2  C4  UNL     1      -4.774   4.820  17.681  1.00  0.00     0.147 C
HETATM    3  S1  UNL     1      -4.477   3.240  17.787  1.00  0.00    -0.052 SA
HETATM    4  S2  UNL     1      -4.313   5.823  16.242  1.00  0.00    -0.057 SA
HETATM    5  C5  UNL     1      -5.711   6.986  16.481  1.00  0.00     0.048 C
HETATM    6  C6  UNL     1      -6.276   7.665  15.521  1.00  0.00     0.054 C
HETATM    7  C12 UNL     1      -5.896   6.904  17.917  1.00  0.00     0.121 C
HETATM    8  S3  UNL     1      -6.628   8.138  18.763  1.00  0.00    -0.059 SA
ENDROOT
BRANCH   6   9
HETATM    9  C7  UNL     1      -7.364   8.592  15.566  1.00  0.00     0.063 A
HETATM   10  C8  UNL     1      -7.309   9.791  16.232  1.00  0.00     0.032 A
HETATM   11  C9  UNL     1      -8.335  10.697  16.245  1.00  0.00     0.004 A
HETATM   12  C10 UNL     1      -9.512  10.421  15.556  1.00  0.00     0.020 A
HETATM   13  C11 UNL     1      -9.562   9.209  14.887  1.00  0.00     0.123 A
HETATM   14  N2  UNL     1      -8.528   8.340  14.897  1.00  0.00    -0.236 N
BRANCH  14  15
HETATM   15  O2  UNL     1      -8.582   7.135  14.227  1.00  0.00    -0.283 OA
ATOM     16  H2  UNL     1      -8.759   6.374  14.767  1.00  0.00     0.245 HD
ENDBRANCH  14  15
ENDBRANCH   6   9
BRANCH   1  17
HETATM   17  C3  UNL     1      -5.484   5.499  19.991  1.00  0.00     0.163 C
BRANCH  17  18
HETATM   18  C2  UNL     1      -4.140   5.473  20.660  1.00  0.00     0.132 C
HETATM   19  C1  UNL     1      -3.463   6.800  20.428  1.00  0.00     0.041 C
BRANCH  18  20
HETATM   20  O1  UNL     1      -4.174   5.225  22.019  1.00  0.00    -0.394 OA
ATOM     21  H1  UNL     1      -3.284   5.236  22.353  1.00  0.00     0.210 HD
ENDBRANCH  18  20
ENDBRANCH  17  18
ENDBRANCH   1  17
TORSDOF 5
ENDMDL