MODEL 2
REMARK VINA RESULT: -9.865828055      2.364      4.134
REMARK  3 active torsions:
REMARK  status: ('A' for Active; 'I' for Inactive)
REMARK    1  A    between atoms: C4_8  and  C5_9
REMARK    2  A    between atoms: C9_13  and  C10_14
REMARK    3  A    between atoms: C10_14  and  C11_16
ROOT
HETATM    1  C5  UNL     1      -8.843  11.015  17.251  1.00  0.00    -0.033 A
HETATM    2  C6  UNL     1      -9.863  11.867  16.895  1.00  0.00     0.011 A
HETATM    3  C7  UNL     1     -10.602  11.660  15.741  1.00  0.00     0.002 A
HETATM    4  C8  UNL     1     -10.353  10.597  14.899  1.00  0.00     0.015 A
HETATM    5  C9  UNL     1      -9.338   9.733  15.236  1.00  0.00     0.016 A
HETATM    6  C17 UNL     1      -8.605   9.951  16.395  1.00  0.00     0.027 A
ENDROOT
BRANCH   1   7
HETATM    7  C4  UNL     1      -8.061  11.201  18.459  1.00  0.00     0.054 C
HETATM    8  C3  UNL     1      -7.348  10.257  18.985  1.00  0.00     0.148 A
HETATM    9  C2  UNL     1      -6.556  10.444  20.211  1.00  0.00     0.282 A
HETATM   10  O4  UNL     1      -7.294   9.004  18.411  1.00  0.00    -0.266 OA
HETATM   11  N1  UNL     1      -5.772   9.425  20.797  1.00  0.00    -0.283 N
HETATM   12  O2  UNL     1      -6.618  11.602  20.724  1.00  0.00    -0.265 OA
HETATM   13  C1  UNL     1      -5.775   8.157  20.135  1.00  0.00     0.324 A
ATOM     14  H1  UNL     1      -5.233   9.585  21.647  1.00  0.00     0.172 HD
HETATM   15  O1  UNL     1      -5.079   7.212  20.637  1.00  0.00    -0.261 OA
HETATM   16  C18 UNL     1      -6.559   7.973  18.923  1.00  0.00     0.357 A
HETATM   17  O5  UNL     1      -6.526   6.839  18.382  1.00  0.00    -0.253 OA
ENDBRANCH   1   7
BRANCH   5  18
HETATM   18  C10 UNL     1      -9.052   8.593  14.397  1.00  0.00     0.192 C
HETATM   19  O3  UNL     1      -9.341   8.738  13.154  1.00  0.00    -0.287 OA
BRANCH  18  20
HETATM   20  C11 UNL     1      -8.483   7.322  14.798  1.00  0.00     0.015 A
HETATM   21  C12 UNL     1      -7.266   6.893  14.336  1.00  0.00     0.015 A
HETATM   22  C13 UNL     1      -6.785   5.666  14.787  1.00  0.00     0.001 A
HETATM   23  C14 UNL     1      -7.479   4.873  15.669  1.00  0.00     0.000 A
HETATM   24  C15 UNL     1      -8.703   5.292  16.140  1.00  0.00     0.001 A
HETATM   25  C16 UNL     1      -9.185   6.505  15.699  1.00  0.00     0.015 A
ENDBRANCH  18  20
ENDBRANCH   5  18
TORSDOF 3
ENDMDL