MODEL 1
REMARK VINA RESULT: -8.147450429      0.000      0.000
REMARK  4 active torsions:
REMARK  status: ('A' for Active; 'I' for Inactive)
REMARK    1  A    between atoms: C2_2  and  C3_3
REMARK    2  A    between atoms: C8_9  and  C9_10
REMARK    3  A    between atoms: C11_12  and  O2_13
REMARK    4  A    between atoms: C15_19  and  O4_20
ROOT
HETATM    1  C3  UNL     1      -7.355   8.475  15.585  1.00  0.00    -0.004 C
HETATM    2  C4  UNL     1      -8.368   9.277  15.325  1.00  0.00    -0.051 C
HETATM    3  C5  UNL     1      -9.444   8.770  14.433  1.00  0.00     0.038 C
HETATM    4  C6  UNL     1     -10.315   9.908  13.909  1.00  0.00     0.030 C
HETATM    5  C7  UNL     1     -10.637  10.747  15.146  1.00  0.00     0.169 C
HETATM    6  O1  UNL     1      -9.479  11.415  15.450  1.00  0.00    -0.379 OA
HETATM    7  C8  UNL     1      -8.445  10.659  15.904  1.00  0.00     0.179 C
ENDROOT
BRANCH   1   8
HETATM    8  C2  UNL     1      -7.079   7.124  15.144  1.00  0.00     0.035 C
HETATM    9  C1  UNL     1      -7.751   6.853  13.804  1.00  0.00     0.027 C
HETATM   10  C13 UNL     1      -7.748   6.109  16.094  1.00  0.00     0.023 C
HETATM   11  C14 UNL     1      -6.858   4.928  16.365  1.00  0.00     0.033 C
HETATM   12  C15 UNL     1      -6.240   4.320  15.148  1.00  0.00     0.125 C
HETATM   13  C16 UNL     1      -5.434   5.394  14.402  1.00  0.00     0.111 C
HETATM   14  C17 UNL     1      -5.658   6.720  15.096  1.00  0.00     0.141 C
HETATM   15  O5  UNL     1      -4.707   7.294  15.525  1.00  0.00    -0.297 OA
BRANCH  12  16
HETATM   16  O4  UNL     1      -5.376   3.315  15.580  1.00  0.00    -0.395 OA
ATOM     17  H4  UNL     1      -5.912   2.578  15.849  1.00  0.00     0.210 HD
ENDBRANCH  12  16
ENDBRANCH   1   8
BRANCH   7  18
HETATM   18  C9  UNL     1      -8.409  10.667  17.390  1.00  0.00     0.157 C
HETATM   19  C10 UNL     1      -7.039  10.347  17.950  1.00  0.00     0.068 C
HETATM   20  C11 UNL     1      -7.308  10.628  19.427  1.00  0.00     0.144 C
HETATM   21  C12 UNL     1      -8.417  11.649  19.333  1.00  0.00     0.200 C
HETATM   22  O3  UNL     1      -8.658  11.873  17.989  1.00  0.00    -0.380 OA
BRANCH  20  23
HETATM   23  O2  UNL     1      -7.810   9.443  19.961  1.00  0.00    -0.393 OA
ATOM     24  H2  UNL     1      -8.701   9.631  20.229  1.00  0.00     0.210 HD
ENDBRANCH  20  23
ENDBRANCH   7  18
TORSDOF 4
ENDMDL