MODEL 4
REMARK VINA RESULT: -7.915522031      1.469      1.890
REMARK  3 active torsions:
REMARK  status: ('A' for Active; 'I' for Inactive)
REMARK    1  A    between atoms: C4_7  and  N2_8
REMARK    2  A    between atoms: C8_14  and  N3_15
REMARK    3  A    between atoms: C9_17  and  C10_18
ROOT
HETATM    1  O1  UNL     1      -9.209   9.194  14.543  1.00  0.00    -0.266 OA
HETATM    2  C1  UNL     1      -8.830   9.639  15.675  1.00  0.00     0.273 A
HETATM    3  N1  UNL     1      -9.148  10.862  16.298  1.00  0.00    -0.321 N
ATOM      4  H1  UNL     1      -9.749  11.591  15.913  1.00  0.00     0.169 HD
HETATM    5  C2  UNL     1      -8.546  10.901  17.441  1.00  0.00     0.050 A
HETATM    6  C3  UNL     1      -8.522  11.871  18.441  1.00  0.00     0.066 A
HETATM    7  C4  UNL     1      -7.806  11.707  19.594  1.00  0.00     0.105 A
HETATM    8  C5  UNL     1      -7.081  10.560  19.797  1.00  0.00     0.037 A
HETATM    9  C6  UNL     1      -7.093   9.601  18.829  1.00  0.00     0.018 A
HETATM   10  C7  UNL     1      -7.819   9.749  17.641  1.00  0.00     0.023 A
HETATM   11  C8  UNL     1      -7.951   8.939  16.602  1.00  0.00     0.113 A
ENDROOT
BRANCH  11  12
HETATM   12  N3  UNL     1      -7.337   7.685  16.493  1.00  0.00    -0.360 N
HETATM   13  C9  UNL     1      -6.314   7.414  15.792  1.00  0.00     0.100 C
ATOM     14  H3  UNL     1      -7.749   6.919  17.026  1.00  0.00     0.165 HD
BRANCH  13  15
HETATM   15  C10 UNL     1      -5.804   6.038  15.796  1.00  0.00    -0.021 A
HETATM   16  C11 UNL     1      -5.578   5.353  14.619  1.00  0.00     0.014 A
HETATM   17  C12 UNL     1      -5.100   4.059  14.609  1.00  0.00     0.020 A
HETATM   18  C13 UNL     1      -4.828   3.396  15.787  1.00  0.00     0.011 A
HETATM   19  S1  UNL     1      -4.208   1.724  15.841  1.00  0.00    -0.053 SA
HETATM   20  C14 UNL     1      -5.058   4.086  16.956  1.00  0.00     0.020 A
HETATM   21  C15 UNL     1      -5.534   5.378  16.986  1.00  0.00     0.014 A
ENDBRANCH  13  15
ENDBRANCH  11  12
BRANCH   7  22
HETATM   22  N2  UNL     1      -7.806  12.732  20.605  1.00  0.00    -0.116 N
HETATM   23  O2  UNL     1      -8.579  13.689  20.525  1.00  0.00    -0.532 OA
HETATM   24  O3  UNL     1      -6.940  12.635  21.658  1.00  0.00    -0.532 OA
ENDBRANCH   7  22
TORSDOF 3
ENDMDL