MODEL 4
REMARK VINA RESULT: -7.350131075      3.306      7.773
REMARK  4 active torsions:
REMARK  status: ('A' for Active; 'I' for Inactive)
REMARK    1  A    between atoms: C1_2  and  N1_3
REMARK    2  A    between atoms: N1_3  and  C2_5
REMARK    3  A    between atoms: C6_9  and  N2_10
REMARK       I    between atoms: N2_10  and  C7_12
REMARK    4  A    between atoms: C7_12  and  C8_14
ROOT
HETATM    1  C2  UNL     1      -7.293  13.535  21.587  1.00  0.00     0.147 A
HETATM    2  C3  UNL     1      -7.613  12.625  20.509  1.00  0.00     0.025 A
HETATM    3  C4  UNL     1      -8.515  12.472  19.445  1.00  0.00     0.018 A
HETATM    4  C5  UNL     1      -8.413  11.367  18.651  1.00  0.00     0.030 A
HETATM    5  C6  UNL     1      -7.447  10.362  18.838  1.00  0.00     0.036 A
HETATM    6  C12 UNL     1      -6.604  10.563  19.879  1.00  0.00     0.054 A
HETATM    7  C13 UNL     1      -6.669  11.679  20.721  1.00  0.00     0.081 A
HETATM    8  S2  UNL     1      -6.013  12.515  22.086  1.00  0.00     0.224 S
HETATM    9  O3  UNL     1      -6.205  11.815  23.398  1.00  0.00    -0.216 OA
HETATM   10  O4  UNL     1      -4.621  13.032  21.859  1.00  0.00    -0.216 OA
ENDROOT
BRANCH   5  11
HETATM   11  N2  UNL     1      -7.436   9.278  17.940  1.00  0.00    -0.322 N
HETATM   12  C7  UNL     1      -7.688   7.930  18.276  1.00  0.00     0.263 C
HETATM   13  O2  UNL     1      -7.961   7.517  19.422  1.00  0.00    -0.267 OA
ATOM     14  H2  UNL     1      -7.228   9.484  16.963  1.00  0.00     0.169 HD
BRANCH  12  15
HETATM   15  C8  UNL     1      -7.631   6.895  17.197  1.00  0.00     0.072 A
HETATM   16  C9  UNL     1      -8.670   6.197  16.647  1.00  0.00     0.025 A
HETATM   17  C10 UNL     1      -8.369   5.308  15.681  1.00  0.00     0.009 A
HETATM   18  C11 UNL     1      -7.052   5.183  15.334  1.00  0.00     0.050 A
HETATM   19  S1  UNL     1      -6.275   6.299  16.359  1.00  0.00    -0.097 SA
ENDBRANCH  12  15
ENDBRANCH   5  11
BRANCH   1  20
HETATM   20  N1  UNL     1      -7.727  14.668  22.058  1.00  0.00    -0.324 N
ATOM     21  H1  UNL     1      -8.713  14.913  21.974  1.00  0.00     0.169 HD
BRANCH  20  22
HETATM   22  C1  UNL     1      -6.821  15.562  22.691  1.00  0.00     0.353 C
HETATM   23  O1  UNL     1      -6.984  16.809  22.506  1.00  0.00    -0.283 OA
ENDBRANCH  20  22
ENDBRANCH   1  20
TORSDOF 4
ENDMDL