MODEL 5
REMARK VINA RESULT: -8.062370300      2.003      7.910
REMARK  4 active torsions:
REMARK  status: ('A' for Active; 'I' for Inactive)
REMARK    1  A    between atoms: C7_8  and  C8_9
REMARK    2  A    between atoms: N1_13  and  C10_14
REMARK    3  A    between atoms: C10_14  and  C11_15
REMARK    4  A    between atoms: C17_21  and  O3_22
ROOT
HETATM    1  C8  UNL     1      -6.326   6.600  17.575  1.00  0.00     0.133 A
HETATM    2  O1  UNL     1      -7.076   6.711  18.641  1.00  0.00    -0.257 OA
HETATM    3  C9  UNL     1      -7.378   7.969  18.834  1.00  0.00     0.374 A
HETATM    4  O2  UNL     1      -8.097   8.402  19.792  1.00  0.00    -0.237 OA
HETATM    5  N1  UNL     1      -6.813   8.715  17.870  1.00  0.00    -0.267 N
HETATM    6  C17 UNL     1      -6.150   7.866  17.072  1.00  0.00     0.182 A
ENDROOT
BRANCH   1   7
HETATM    7  C7  UNL     1      -5.758   5.388  16.985  1.00  0.00     0.061 C
HETATM    8  C6  UNL     1      -4.918   4.665  17.753  1.00  0.00     0.017 A
HETATM    9  C2  UNL     1      -4.258   3.506  17.450  1.00  0.00    -0.027 A
HETATM   10  S1  UNL     1      -4.429   4.989  19.353  1.00  0.00    -0.094 SA
HETATM   11  C1  UNL     1      -4.393   2.916  16.238  1.00  0.00     0.025 C
HETATM   12  C3  UNL     1      -3.467   2.981  18.416  1.00  0.00     0.026 A
HETATM   13  C4  UNL     1      -3.404   3.661  19.604  1.00  0.00    -0.020 A
HETATM   14  C5  UNL     1      -2.599   3.279  20.824  1.00  0.00     0.056 C
ENDBRANCH   1   7
BRANCH   6  15
HETATM   15  O3  UNL     1      -5.419   8.248  15.938  1.00  0.00    -0.344 OA
ATOM     16  H3  UNL     1      -4.831   7.714  15.415  1.00  0.00     0.219 HD
ENDBRANCH   6  15
BRANCH   5  17
HETATM   17  C10 UNL     1      -6.908  10.169  17.726  1.00  0.00     0.175 C
BRANCH  17  18
HETATM   18  C11 UNL     1      -8.168  10.524  16.981  1.00  0.00    -0.040 A
HETATM   19  C12 UNL     1      -9.071  11.406  17.531  1.00  0.00     0.009 A
HETATM   20  C13 UNL     1     -10.226  11.755  16.886  1.00  0.00     0.001 A
HETATM   21  C14 UNL     1     -10.502  11.212  15.648  1.00  0.00     0.000 A
HETATM   22  C15 UNL     1      -9.603  10.325  15.087  1.00  0.00     0.001 A
HETATM   23  C16 UNL     1      -8.442   9.985  15.752  1.00  0.00     0.009 A
ENDBRANCH  17  18
ENDBRANCH   5  17
TORSDOF 4
ENDMDL