MODEL 4
REMARK VINA RESULT: -7.856694636      1.532      1.684
REMARK  3 active torsions:
REMARK  status: ('A' for Active; 'I' for Inactive)
REMARK    1  A    between atoms: C1_2  and  C2_3
REMARK    2  A    between atoms: C2_3  and  N1_4
REMARK    3  A    between atoms: N1_4  and  C3_6
ROOT
HETATM    1  C3  UNL     1      -5.382   4.709  17.413  1.00  0.00     0.057 A
HETATM    2  C4  UNL     1      -4.964   4.085  16.222  1.00  0.00     0.031 A
HETATM    3  C5  UNL     1      -5.495   4.418  14.999  1.00  0.00     0.004 A
HETATM    4  C6  UNL     1      -6.472   5.397  14.931  1.00  0.00     0.026 A
HETATM    5  C7  UNL     1      -6.888   6.014  16.092  1.00  0.00     0.093 A
HETATM    6  C8  UNL     1      -6.353   5.674  17.304  1.00  0.00     0.083 A
HETATM    7  N2  UNL     1      -6.683   6.195  18.583  1.00  0.00    -0.320 N
ATOM      8  H2  UNL     1      -6.600   5.522  19.345  1.00  0.00     0.169 HD
HETATM    9  C9  UNL     1      -7.104   7.470  18.983  1.00  0.00     0.257 C
HETATM   10  O2  UNL     1      -7.086   7.760  20.206  1.00  0.00    -0.267 OA
HETATM   11  C10 UNL     1      -7.583   8.568  18.147  1.00  0.00     0.054 A
HETATM   12  C11 UNL     1      -7.582   9.775  18.852  1.00  0.00     0.018 A
HETATM   13  C12 UNL     1      -7.991  10.962  18.282  1.00  0.00     0.001 A
HETATM   14  C13 UNL     1      -8.412  10.932  16.970  1.00  0.00     0.002 A
HETATM   15  C14 UNL     1      -8.412   9.742  16.273  1.00  0.00     0.025 A
HETATM   16  C15 UNL     1      -8.002   8.540  16.836  1.00  0.00     0.080 A
HETATM   17  S1  UNL     1      -8.115   7.197  15.707  1.00  0.00     0.210 S
HETATM   18  O3  UNL     1      -9.496   6.605  15.723  1.00  0.00    -0.217 OA
HETATM   19  O4  UNL     1      -7.886   7.721  14.304  1.00  0.00    -0.217 OA
ENDROOT
BRANCH   1  20
HETATM   20  N1  UNL     1      -4.776   4.338  18.647  1.00  0.00    -0.382 N
ATOM     21  H1  UNL     1      -5.278   4.465  19.526  1.00  0.00     0.160 HD
BRANCH  20  22
HETATM   22  C2  UNL     1      -3.415   3.769  18.640  1.00  0.00     0.189 C
BRANCH  22  23
HETATM   23  C1  UNL     1      -2.424   4.781  19.080  1.00  0.00     0.250 C
HETATM   24  O1  UNL     1      -2.050   5.613  18.277  1.00  0.00    -0.305 OA
ENDBRANCH  22  23
ENDBRANCH  20  22
ENDBRANCH   1  20
TORSDOF 3
ENDMDL