MODEL 5
REMARK VINA RESULT: -7.366430561      4.174      6.613
REMARK  4 active torsions:
REMARK  status: ('A' for Active; 'I' for Inactive)
REMARK    1  A    between atoms: C5_5  and  C6_6
REMARK    2  A    between atoms: C7_7  and  C8_8
REMARK    3  A    between atoms: N1_13  and  O2_14
REMARK    4  A    between atoms: N4_21  and  O3_22
ROOT
HETATM    1  C6  UNL     1      -7.213   9.893  18.823  1.00  0.00     0.106 A
HETATM    2  C7  UNL     1      -8.067  10.928  18.486  1.00  0.00     0.128 A
HETATM    3  N1  UNL     1      -8.137  11.960  19.363  1.00  0.00    -0.203 N
HETATM    4  C12 UNL     1      -7.438  12.015  20.502  1.00  0.00     0.184 A
HETATM    5  N2  UNL     1      -7.567  13.134  21.370  1.00  0.00    -0.077 NA
HETATM    6  C13 UNL     1      -6.608  10.950  20.775  1.00  0.00     0.186 A
HETATM    7  C14 UNL     1      -5.845  10.979  21.987  1.00  0.00     0.123 C
HETATM    8  N3  UNL     1      -5.225  11.018  22.947  1.00  0.00    -0.190 NA
HETATM    9  N4  UNL     1      -6.484   9.893  19.956  1.00  0.00    -0.208 N
ENDROOT
BRANCH   9  10
HETATM   10  O3  UNL     1      -5.643   8.850  20.267  1.00  0.00    -0.281 OA
ATOM     11  H3  UNL     1      -4.961   8.942  20.923  1.00  0.00     0.245 HD
ENDBRANCH   9  10
BRANCH   3  12
HETATM   12  O2  UNL     1      -8.979  13.014  19.062  1.00  0.00    -0.281 OA
ATOM     13  H2  UNL     1      -9.861  12.815  18.772  1.00  0.00     0.245 HD
ENDBRANCH   3  12
BRANCH   1  14
HETATM   14  C5  UNL     1      -7.098   8.771  17.927  1.00  0.00    -0.004 A
HETATM   15  C4  UNL     1      -6.146   8.768  16.929  1.00  0.00     0.014 A
HETATM   16  C3  UNL     1      -6.028   7.694  16.067  1.00  0.00     0.007 A
HETATM   17  C2  UNL     1      -6.864   6.585  16.174  1.00  0.00    -0.062 A
HETATM   18  C1  UNL     1      -6.737   5.429  15.245  1.00  0.00     0.048 C
HETATM   19  C16 UNL     1      -7.804   6.618  17.181  1.00  0.00     0.007 A
HETATM   20  C15 UNL     1      -7.938   7.686  18.058  1.00  0.00     0.014 A
ENDBRANCH   1  14
BRANCH   2  21
HETATM   21  C8  UNL     1      -8.854  10.914  17.253  1.00  0.00     0.106 A
HETATM   22  C9  UNL     1      -8.476  10.607  15.963  1.00  0.00     0.041 A
HETATM   23  C10 UNL     1      -9.602  10.745  15.146  1.00  0.00     0.027 A
HETATM   24  C11 UNL     1     -10.600  11.134  16.014  1.00  0.00     0.142 A
HETATM   25  O1  UNL     1     -10.131  11.221  17.226  1.00  0.00    -0.320 OA
ENDBRANCH   2  21
TORSDOF 4
ENDMDL