MODEL 5
REMARK VINA RESULT: -8.113696225      6.040      9.501
REMARK  4 active torsions:
REMARK  status: ('A' for Active; 'I' for Inactive)
REMARK    1  A    between atoms: N1_1  and  S1_4
REMARK    2  A    between atoms: S1_4  and  C1_7
REMARK    3  A    between atoms: C4_10  and  N2_11
REMARK    4  A    between atoms: C6_13  and  C7_14
ROOT
HETATM    1  C1  UNL     1      -4.696   2.327  15.765  1.00  0.00     0.079 A
HETATM    2  C2  UNL     1      -5.085   3.251  14.815  1.00  0.00     0.027 A
HETATM    3  C3  UNL     1      -5.474   4.532  15.145  1.00  0.00     0.031 A
HETATM    4  C4  UNL     1      -5.490   4.951  16.458  1.00  0.00     0.044 A
HETATM    5  C14 UNL     1      -5.105   4.038  17.417  1.00  0.00     0.031 A
HETATM    6  C15 UNL     1      -4.717   2.757  17.079  1.00  0.00     0.027 A
ENDROOT
BRANCH   4   7
HETATM    7  N2  UNL     1      -5.894   6.283  16.811  1.00  0.00    -0.266 N
HETATM    8  C5  UNL     1      -6.910   7.006  16.265  1.00  0.00     0.141 A
HETATM    9  C6  UNL     1      -6.967   8.237  16.884  1.00  0.00     0.107 A
HETATM   10  O3  UNL     1      -6.012   8.239  17.766  1.00  0.00    -0.259 OA
HETATM   11  C13 UNL     1      -5.368   7.097  17.741  1.00  0.00     0.377 A
HETATM   12  O4  UNL     1      -4.398   6.832  18.492  1.00  0.00    -0.237 OA
BRANCH   9  13
HETATM   13  C7  UNL     1      -7.928   9.303  16.575  1.00  0.00    -0.001 A
HETATM   14  C8  UNL     1      -8.592   9.233  15.367  1.00  0.00     0.014 A
HETATM   15  C9  UNL     1      -9.512  10.215  15.026  1.00  0.00     0.001 A
HETATM   16  C10 UNL     1      -9.733  11.239  15.919  1.00  0.00     0.000 A
HETATM   17  C11 UNL     1      -9.073  11.314  17.128  1.00  0.00     0.001 A
HETATM   18  C12 UNL     1      -8.163  10.329  17.449  1.00  0.00     0.014 A
ENDBRANCH   9  13
ENDBRANCH   4   7
BRANCH   1  19
HETATM   19  S1  UNL     1      -4.205   0.703  15.333  1.00  0.00     0.256 S
HETATM   20  O1  UNL     1      -2.798   0.420  15.724  1.00  0.00    -0.201 OA
HETATM   21  O2  UNL     1      -5.076  -0.324  16.022  1.00  0.00    -0.201 OA
BRANCH  19  22
HETATM   22  N1  UNL     1      -4.363   0.437  13.629  1.00  0.00    -0.324 N
ATOM     23  H12 UNL     1      -4.244  -0.463  13.164  1.00  0.00     0.169 HD
ATOM     24  H11 UNL     1      -4.592   1.326  13.185  1.00  0.00     0.169 HD
ENDBRANCH  19  22
ENDBRANCH   1  19
TORSDOF 4
ENDMDL