MODEL 3
REMARK VINA RESULT: -7.896317966      1.088      1.655
REMARK  4 active torsions:
REMARK  status: ('A' for Active; 'I' for Inactive)
REMARK    1  A    between atoms: N1_1  and  S1_4
REMARK    2  A    between atoms: S1_4  and  C1_7
REMARK    3  A    between atoms: C5_13  and  C6_14
REMARK    4  A    between atoms: C6_14  and  C7_15
ROOT
HETATM    1  C1  UNL     1      -7.211  11.644  20.561  1.00  0.00     0.082 A
HETATM    2  C2  UNL     1      -6.692  10.402  20.864  1.00  0.00     0.028 A
HETATM    3  C3  UNL     1      -6.813   9.395  19.953  1.00  0.00     0.034 A
HETATM    4  C4  UNL     1      -7.454   9.623  18.732  1.00  0.00     0.067 A
HETATM    5  N2  UNL     1      -7.587   8.649  17.819  1.00  0.00    -0.352 N
ATOM      6  H2  UNL     1      -7.207   7.728  18.035  1.00  0.00     0.166 HD
HETATM    7  C5  UNL     1      -8.202   8.827  16.623  1.00  0.00     0.090 A
HETATM    8  C13 UNL     1      -8.697  10.088  16.383  1.00  0.00     0.311 A
HETATM    9  O3  UNL     1      -9.286  10.371  15.309  1.00  0.00    -0.258 OA
HETATM   10  O4  UNL     1      -8.580  11.070  17.268  1.00  0.00    -0.272 OA
HETATM   11  C14 UNL     1      -7.971  10.868  18.435  1.00  0.00     0.107 A
HETATM   12  C15 UNL     1      -7.854  11.903  19.358  1.00  0.00     0.065 A
ENDROOT
BRANCH   7  13
HETATM   13  C6  UNL     1      -8.292   7.706  15.691  1.00  0.00     0.102 C
BRANCH  13  14
HETATM   14  C7  UNL     1      -7.078   6.913  15.506  1.00  0.00    -0.052 A
HETATM   15  C8  UNL     1      -7.187   5.569  15.238  1.00  0.00     0.007 A
HETATM   16  C9  UNL     1      -6.068   4.747  15.041  1.00  0.00     0.001 A
HETATM   17  C10 UNL     1      -4.817   5.292  15.117  1.00  0.00     0.000 A
HETATM   18  C11 UNL     1      -4.703   6.637  15.386  1.00  0.00     0.001 A
HETATM   19  C12 UNL     1      -5.797   7.447  15.579  1.00  0.00     0.007 A
ENDBRANCH  13  14
ENDBRANCH   7  13
BRANCH   1  20
HETATM   20  S1  UNL     1      -7.027  12.900  21.766  1.00  0.00     0.256 S
HETATM   21  O1  UNL     1      -7.620  12.461  23.080  1.00  0.00    -0.201 OA
HETATM   22  O2  UNL     1      -5.589  13.306  21.916  1.00  0.00    -0.201 OA
BRANCH  20  23
HETATM   23  N1  UNL     1      -7.936  14.270  21.226  1.00  0.00    -0.324 N
ATOM     24  H12 UNL     1      -8.850  14.236  20.773  1.00  0.00     0.169 HD
ATOM     25  H11 UNL     1      -7.388  15.102  21.446  1.00  0.00     0.169 HD
ENDBRANCH  20  23
ENDBRANCH   1  20
TORSDOF 4
ENDMDL