MODEL 3
REMARK VINA RESULT: -7.662612536      2.106      2.844
REMARK  14 active torsions:
REMARK  status: ('A' for Active; 'I' for Inactive)
REMARK    1  A    between atoms: C2_2  and  O1_3
REMARK    2  A    between atoms: O1_3  and  C3_4
REMARK    3  A    between atoms: C3_4  and  C4_6
REMARK    4  A    between atoms: C4_6  and  N1_7
REMARK    5  A    between atoms: C4_6  and  C22_37
REMARK       I    between atoms: N1_7  and  C5_9
REMARK    6  A    between atoms: C5_9  and  C6_11
REMARK    7  A    between atoms: N2_14  and  C8_15
REMARK    8  A    between atoms: C8_15  and  C9_16
REMARK    9  A    between atoms: C8_15  and  C18_33
REMARK       I    between atoms: C9_16  and  N3_18
REMARK       I    between atoms: N3_18  and  C10_20
REMARK   10  A    between atoms: C10_20  and  C11_22
REMARK   11  A    between atoms: C11_22  and  N4_23
REMARK   12  A    between atoms: C11_22  and  C14_29
REMARK       I    between atoms: N4_23  and  C12_25
REMARK   13  A    between atoms: C12_25  and  O7_27
REMARK   14  A    between atoms: C22_37  and  C24_39
ROOT
HETATM    1  C8  UNL     1      -6.221  16.684  -1.567  1.00  0.00     0.192 C
ENDROOT
BRANCH   1   2
HETATM    2  N2  UNL     1      -7.603  16.572  -1.568  1.00  0.00    -0.327 N
HETATM    3  C6  UNL     1      -8.519  15.719  -1.070  1.00  0.00     0.195 C
HETATM    4  C7  UNL     1      -8.824  15.234  -2.493  1.00  0.00     0.133 C
HETATM    5  S1  UNL     1      -8.495  16.952  -3.072  1.00  0.00    -0.054 SA
BRANCH   3   6
HETATM    6  C5  UNL     1      -8.658  14.726  -0.084  1.00  0.00     0.242 C
HETATM    7  N1  UNL     1      -9.664  14.961   0.972  1.00  0.00    -0.345 N
ATOM      8  H1  UNL     1     -10.257  15.787   0.900  1.00  0.00     0.163 HD
HETATM    9  O3  UNL     1      -8.065  13.627   0.109  1.00  0.00    -0.271 OA
BRANCH   7  10
HETATM   10  C4  UNL     1      -9.845  14.093   2.081  1.00  0.00     0.188 C
BRANCH  10  11
HETATM   11  C3  UNL     1     -11.250  13.587   2.302  1.00  0.00     0.282 C
HETATM   12  O2  UNL     1     -11.933  13.721   3.306  1.00  0.00    -0.263 OA
BRANCH  11  13
HETATM   13  O1  UNL     1     -11.773  12.912   1.236  1.00  0.00    -0.320 OA
BRANCH  13  14
HETATM   14  C2  UNL     1     -12.708  13.192   0.291  1.00  0.00     0.174 C
HETATM   15  C1  UNL     1     -13.728  14.252   0.565  1.00  0.00     0.034 C
ENDBRANCH  13  14
ENDBRANCH  11  13
ENDBRANCH  10  11
BRANCH  10  16
HETATM   16  C22 UNL     1      -9.425  14.801   3.390  1.00  0.00     0.014 C
HETATM   17  C23 UNL     1      -8.958  16.200   3.177  1.00  0.00     0.012 C
BRANCH  16  18
HETATM   18  C24 UNL     1      -8.615  13.951   4.298  1.00  0.00     0.002 C
HETATM   19  C25 UNL     1      -8.960  14.119   5.752  1.00  0.00     0.005 C
ENDBRANCH  16  18
ENDBRANCH  10  16
ENDBRANCH   7  10
ENDBRANCH   3   6
ENDBRANCH   1   2
BRANCH   1  20
HETATM   20  C9  UNL     1      -5.831  17.614  -2.695  1.00  0.00     0.248 C
HETATM   21  O4  UNL     1      -5.523  18.817  -2.457  1.00  0.00    -0.271 OA
HETATM   22  N3  UNL     1      -5.780  17.224  -4.029  1.00  0.00    -0.294 N
HETATM   23  C10 UNL     1      -5.399  18.025  -5.109  1.00  0.00     0.247 C
ATOM     24  H3  UNL     1      -6.044  16.261  -4.240  1.00  0.00     0.171 HD
HETATM   25  O5  UNL     1      -5.139  19.274  -4.932  1.00  0.00    -0.271 OA
BRANCH  23  26
HETATM   26  C11 UNL     1      -5.279  17.581  -6.532  1.00  0.00     0.186 C
BRANCH  26  27
HETATM   27  N4  UNL     1      -6.328  16.580  -6.692  1.00  0.00    -0.323 N
HETATM   28  C12 UNL     1      -7.651  16.702  -7.095  1.00  0.00     0.360 C
HETATM   29  O6  UNL     1      -8.182  17.817  -7.410  1.00  0.00    -0.239 OA
ATOM     30  H4  UNL     1      -6.040  15.628  -6.469  1.00  0.00     0.165 HD
BRANCH  28  31
HETATM   31  O7  UNL     1      -8.448  15.580  -7.181  1.00  0.00    -0.309 OA
HETATM   32  C13 UNL     1      -9.512  15.210  -6.432  1.00  0.00     0.215 C
ENDBRANCH  28  31
ENDBRANCH  26  27
BRANCH  26  33
HETATM   33  C14 UNL     1      -3.982  17.046  -6.989  1.00  0.00    -0.022 C
HETATM   34  C15 UNL     1      -3.428  17.807  -8.183  1.00  0.00     0.017 C
HETATM   35  C16 UNL     1      -4.262  15.624  -7.638  1.00  0.00     0.017 C
HETATM   36  C17 UNL     1      -2.940  16.748  -5.996  1.00  0.00     0.017 C
ENDBRANCH  26  33
ENDBRANCH  23  26
ENDBRANCH   1  20
BRANCH   1  37
HETATM   37  C18 UNL     1      -5.785  17.329  -0.274  1.00  0.00    -0.021 C
HETATM   38  C19 UNL     1      -5.819  16.204   0.821  1.00  0.00     0.017 C
HETATM   39  C20 UNL     1      -4.263  17.608  -0.322  1.00  0.00     0.017 C
HETATM   40  C21 UNL     1      -6.610  18.437   0.196  1.00  0.00     0.017 C
ENDBRANCH   1  37
TORSDOF 14
ENDMDL