MODEL 5
REMARK VINA RESULT: -8.014639500      2.832      9.148
REMARK  12 active torsions:
REMARK  status: ('A' for Active; 'I' for Inactive)
REMARK    1  A    between atoms: O1_2  and  C2_3
REMARK    2  A    between atoms: C5_8  and  N2_9
REMARK    3  A    between atoms: N2_9  and  C6_11
REMARK    4  A    between atoms: C9_14  and  O2_15
REMARK    5  A    between atoms: O2_15  and  C10_16
REMARK    6  A    between atoms: C10_16  and  C11_17
REMARK    7  A    between atoms: C11_17  and  N3_18
REMARK    8  A    between atoms: C14_21  and  C15_22
REMARK    9  A    between atoms: C19_28  and  N5_29
REMARK   10  A    between atoms: C20_31  and  C21_32
REMARK   11  A    between atoms: C21_32  and  N6_33
REMARK   12  A    between atoms: C29_42  and  O3_43
ROOT
HETATM    1  C2  UNL     1      -9.463  15.231   5.414  1.00  0.00     0.103 A
HETATM    2  C3  UNL     1      -9.298  16.180   4.431  1.00  0.00     0.070 A
HETATM    3  C4  UNL     1     -10.002  16.084   3.222  1.00  0.00     0.066 A
HETATM    4  N1  UNL     1      -9.844  17.006   2.264  1.00  0.00    -0.191 N
ATOM      5  H1  UNL     1      -9.207  17.792   2.400  1.00  0.00     0.184 HD
HETATM    6  C5  UNL     1     -10.529  16.880   1.133  1.00  0.00     0.684 A
HETATM    7  N4  UNL     1     -11.364  15.838   0.968  1.00  0.00    -0.175 N
ATOM      8  H4  UNL     1     -11.874  15.776   0.087  1.00  0.00     0.186 HD
HETATM    9  C19 UNL     1     -11.576  14.875   1.879  1.00  0.00     0.133 A
HETATM   10  C27 UNL     1     -10.837  15.021   3.085  1.00  0.00     0.039 A
HETATM   11  C28 UNL     1     -11.004  14.056   4.085  1.00  0.00     0.057 A
HETATM   12  C29 UNL     1     -10.311  14.153   5.273  1.00  0.00     0.102 A
ENDROOT
BRANCH   6  13
HETATM   13  N2  UNL     1     -10.417  17.733   0.173  1.00  0.00    -0.192 N
ATOM     14  H2  UNL     1     -11.029  18.548   0.130  1.00  0.00     0.184 HD
BRANCH  13  15
HETATM   15  C6  UNL     1      -9.431  17.521  -0.821  1.00  0.00     0.050 A
HETATM   16  C7  UNL     1      -9.839  17.178  -2.091  1.00  0.00     0.033 A
HETATM   17  C8  UNL     1      -8.865  16.981  -3.033  1.00  0.00     0.039 A
HETATM   18  C9  UNL     1      -7.511  17.116  -2.737  1.00  0.00     0.075 A
HETATM   19  C14 UNL     1      -7.099  17.458  -1.475  1.00  0.00    -0.019 A
HETATM   20  C18 UNL     1      -8.093  17.657  -0.520  1.00  0.00     0.040 A
BRANCH  18  21
HETATM   21  O2  UNL     1      -6.565  16.896  -3.758  1.00  0.00    -0.349 OA
BRANCH  21  22
HETATM   22  C10 UNL     1      -6.565  17.750  -4.892  1.00  0.00     0.206 C
BRANCH  22  23
HETATM   23  C11 UNL     1      -5.234  18.246  -5.318  1.00  0.00     0.297 C
BRANCH  23  24
HETATM   24  N3  UNL     1      -4.115  17.408  -5.006  1.00  0.00     0.082 N
HETATM   25  C12 UNL     1      -3.226  17.151  -6.101  1.00  0.00     0.309 C
HETATM   26  C13 UNL     1      -3.339  18.068  -3.963  1.00  0.00     0.309 C
ENDBRANCH  23  24
ENDBRANCH  22  23
ENDBRANCH  21  22
ENDBRANCH  18  21
BRANCH  19  27
HETATM   27  C15 UNL     1      -5.702  17.634  -1.080  1.00  0.00     0.013 C
HETATM   28  C16 UNL     1      -5.389  16.764   0.112  1.00  0.00     0.015 C
HETATM   29  C17 UNL     1      -5.359  19.056  -0.724  1.00  0.00     0.015 C
ENDBRANCH  19  27
ENDBRANCH  13  15
ENDBRANCH   6  13
BRANCH   9  30
HETATM   30  N5  UNL     1     -12.318  13.894   1.804  1.00  0.00    -0.353 N
HETATM   31  C20 UNL     1     -13.536  13.359   2.103  1.00  0.00     0.082 C
ATOM     32  H5  UNL     1     -11.798  13.173   1.303  1.00  0.00     0.166 HD
BRANCH  31  33
HETATM   33  C21 UNL     1     -14.494  14.223   2.867  1.00  0.00     0.171 C
BRANCH  33  34
HETATM   34  N6  UNL     1     -14.914  13.609   4.113  1.00  0.00    -0.366 N
HETATM   35  C22 UNL     1     -16.234  13.831   4.516  1.00  0.00     0.093 C
HETATM   36  C23 UNL     1     -17.046  12.612   4.837  1.00  0.00     0.317 C
HETATM   37  N7  UNL     1     -16.260  11.531   5.381  1.00  0.00     0.093 N
HETATM   38  C24 UNL     1     -15.863  11.752   6.740  1.00  0.00     0.310 C
HETATM   39  C25 UNL     1     -15.133  11.210   4.524  1.00  0.00     0.317 C
HETATM   40  C26 UNL     1     -14.252  12.417   4.467  1.00  0.00     0.093 C
ENDBRANCH  33  34
ENDBRANCH  31  33
ENDBRANCH   9  30
BRANCH   1  41
HETATM   41  O1  UNL     1      -8.763  15.334   6.606  1.00  0.00    -0.353 OA
HETATM   42  C1  UNL     1      -9.244  15.945   7.769  1.00  0.00     0.210 C
ENDBRANCH   1  41
BRANCH  12  43
HETATM   43  O3  UNL     1     -10.446  13.215   6.296  1.00  0.00    -0.353 OA
HETATM   44  C30 UNL     1     -11.602  13.065   7.060  1.00  0.00     0.210 C
ENDBRANCH  12  43
TORSDOF 12
ENDMDL