MODEL 5
REMARK VINA RESULT: -9.232452040      2.504      9.939
REMARK  14 active torsions:
REMARK  status: ('A' for Active; 'I' for Inactive)
REMARK    1  A    between atoms: C2_2  and  C3_3
REMARK    2  A    between atoms: C3_3  and  O1_4
REMARK    3  A    between atoms: N1_8  and  C6_9
REMARK    4  A    between atoms: C6_9  and  C7_10
REMARK    5  A    between atoms: C7_10  and  O2_11
REMARK    6  A    between atoms: O2_11  and  C8_12
REMARK    7  A    between atoms: C12_16  and  N2_17
REMARK    8  A    between atoms: N2_17  and  C13_19
REMARK    9  A    between atoms: C14_22  and  N4_23
REMARK   10  A    between atoms: C19_31  and  N6_32
REMARK   11  A    between atoms: N6_32  and  C20_33
REMARK   12  A    between atoms: C20_33  and  C21_34
REMARK   13  A    between atoms: C21_34  and  C22_35
REMARK   14  A    between atoms: C22_35  and  N7_36
ROOT
HETATM    1  C13 UNL     1     -10.868  15.995  -0.760  1.00  0.00     0.700 A
HETATM    2  N3  UNL     1     -10.519  15.968  -2.046  1.00  0.00    -0.021 N
ATOM      3  H3  UNL     1     -11.266  15.902  -2.737  1.00  0.00     0.203 HD
HETATM    4  C14 UNL     1      -9.257  16.021  -2.499  1.00  0.00     0.705 A
HETATM    5  N5  UNL     1      -8.284  16.111  -1.603  1.00  0.00    -0.147 N
ATOM      6  H5  UNL     1      -7.319  16.154  -1.930  1.00  0.00     0.188 HD
HETATM    7  C19 UNL     1      -8.518  16.147  -0.283  1.00  0.00     0.287 A
HETATM    8  N8  UNL     1      -9.835  16.090   0.111  1.00  0.00    -0.148 N
ATOM      9  H8  UNL     1     -10.044  16.121   1.109  1.00  0.00     0.188 HD
ENDROOT
BRANCH   1  10
HETATM   10  N2  UNL     1     -12.093  15.789  -0.334  1.00  0.00    -0.191 N
ATOM     11  H2  UNL     1     -12.824  16.487  -0.464  1.00  0.00     0.184 HD
BRANCH  10  12
HETATM   12  C12 UNL     1     -12.358  14.553   0.314  1.00  0.00     0.051 A
HETATM   13  C11 UNL     1     -11.680  13.410  -0.179  1.00  0.00     0.030 A
HETATM   14  C10 UNL     1     -11.860  12.174   0.365  1.00  0.00     0.005 A
HETATM   15  C9  UNL     1     -12.730  12.022   1.427  1.00  0.00     0.037 A
HETATM   16  C8  UNL     1     -13.404  13.103   1.932  1.00  0.00     0.070 A
HETATM   17  C27 UNL     1     -13.205  14.365   1.361  1.00  0.00     0.066 A
BRANCH  16  18
HETATM   18  O2  UNL     1     -14.291  12.925   3.020  1.00  0.00    -0.349 OA
BRANCH  18  19
HETATM   19  C7  UNL     1     -13.761  12.566   4.269  1.00  0.00     0.206 C
BRANCH  19  20
HETATM   20  C6  UNL     1     -13.861  13.556   5.366  1.00  0.00     0.299 C
BRANCH  20  21
HETATM   21  N1  UNL     1     -12.605  13.957   5.983  1.00  0.00     0.090 N
HETATM   22  C5  UNL     1     -11.744  14.480   4.877  1.00  0.00     0.275 C
HETATM   23  C4  UNL     1     -10.774  15.413   5.512  1.00  0.00     0.068 C
HETATM   24  C3  UNL     1     -10.578  15.024   6.984  1.00  0.00     0.061 C
HETATM   25  C29 UNL     1     -10.498  13.523   7.038  1.00  0.00     0.068 C
HETATM   26  C28 UNL     1     -11.875  12.930   6.660  1.00  0.00     0.275 C
BRANCH  24  27
HETATM   27  C2  UNL     1      -9.288  15.680   7.467  1.00  0.00     0.033 C
HETATM   28  C1  UNL     1      -8.458  16.095   6.292  1.00  0.00     0.008 C
ENDBRANCH  24  27
BRANCH  24  29
HETATM   29  O1  UNL     1     -11.625  15.505   7.743  1.00  0.00    -0.390 OA
ATOM     30  H1  UNL     1     -12.419  15.058   7.478  1.00  0.00     0.210 HD
ENDBRANCH  24  29
ENDBRANCH  20  21
ENDBRANCH  19  20
ENDBRANCH  18  19
ENDBRANCH  16  18
ENDBRANCH  10  12
ENDBRANCH   1  10
BRANCH   4  31
HETATM   31  N4  UNL     1      -8.998  16.011  -3.920  1.00  0.00    -0.150 N
HETATM   32  C15 UNL     1      -7.745  16.409  -4.514  1.00  0.00     0.151 C
HETATM   33  C16 UNL     1      -7.622  15.382  -5.647  1.00  0.00     0.030 C
HETATM   34  C17 UNL     1      -9.026  15.462  -6.240  1.00  0.00     0.105 C
HETATM   35  C18 UNL     1      -9.850  15.644  -4.990  1.00  0.00     0.238 C
HETATM   36  O3  UNL     1     -11.076  15.495  -4.932  1.00  0.00    -0.273 OA
ENDBRANCH   4  31
BRANCH   7  37
HETATM   37  N6  UNL     1      -7.607  16.135   0.528  1.00  0.00    -0.387 NA
BRANCH  37  38
HETATM   38  C20 UNL     1      -6.593  16.131   1.389  1.00  0.00     0.164 C
BRANCH  38  39
HETATM   39  C21 UNL     1      -5.424  17.100   1.056  1.00  0.00     0.104 C
BRANCH  39  40
HETATM   40  C22 UNL     1      -4.623  16.481  -0.044  1.00  0.00     0.064 C
BRANCH  40  41
HETATM   41  N7  UNL     1      -4.404  17.256  -1.175  1.00  0.00    -0.393 N
HETATM   42  C23 UNL     1      -3.731  16.815  -2.308  1.00  0.00     0.122 C
HETATM   43  C24 UNL     1      -4.288  17.609  -3.491  1.00  0.00     0.021 C
HETATM   44  C25 UNL     1      -5.014  18.783  -2.858  1.00  0.00     0.021 C
HETATM   45  C26 UNL     1      -5.327  18.290  -1.461  1.00  0.00     0.122 C
ENDBRANCH  40  41
ENDBRANCH  39  40
ENDBRANCH  38  39
ENDBRANCH  37  38
ENDBRANCH   7  37
TORSDOF 14
ENDMDL