MODEL 3
REMARK VINA RESULT: -9.066179461      1.906     10.690
REMARK  14 active torsions:
REMARK  status: ('A' for Active; 'I' for Inactive)
REMARK    1  A    between atoms: O1_2  and  C2_3
REMARK    2  A    between atoms: C2_3  and  C3_4
REMARK       I    between atoms: C3_4  and  N1_6
REMARK    3  A    between atoms: N1_6  and  C4_8
REMARK    4  A    between atoms: C7_15  and  N4_16
REMARK    5  A    between atoms: N4_16  and  C8_18
REMARK    6  A    between atoms: C11_21  and  O3_22
REMARK    7  A    between atoms: O3_22  and  C12_23
REMARK    8  A    between atoms: C12_23  and  C13_24
REMARK    9  A    between atoms: C13_24  and  C14_25
REMARK   10  A    between atoms: C14_25  and  N5_26
REMARK   11  A    between atoms: N7_39  and  C24_40
REMARK   12  A    between atoms: C24_40  and  C25_41
REMARK   13  A    between atoms: C25_41  and  C26_42
REMARK   14  A    between atoms: C26_42  and  O5_45
ROOT
HETATM    1  C4  UNL     1     -10.571  13.985   2.899  1.00  0.00     0.689 A
HETATM    2  N2  UNL     1     -10.546  13.977   1.548  1.00  0.00    -0.186 N
ATOM      3  H2  UNL     1     -11.253  13.551   0.949  1.00  0.00     0.184 HD
HETATM    4  C5  UNL     1      -9.447  14.615   1.115  1.00  0.00     0.110 A
HETATM    5  C6  UNL     1      -8.945  14.886  -0.159  1.00  0.00     0.140 A
HETATM    6  N3  UNL     1      -7.779  15.569  -0.259  1.00  0.00    -0.199 N
ATOM      7  H3  UNL     1      -7.387  15.781  -1.177  1.00  0.00     0.183 HD
HETATM    8  C7  UNL     1      -7.141  15.964   0.853  1.00  0.00     0.684 A
HETATM    9  N6  UNL     1      -7.631  15.699   2.079  1.00  0.00    -0.173 N
ATOM     10  H6  UNL     1      -7.119  16.015   2.903  1.00  0.00     0.186 HD
HETATM   11  C23 UNL     1      -8.788  15.024   2.235  1.00  0.00     0.167 A
HETATM   12  N7  UNL     1      -9.503  14.624   3.354  1.00  0.00    -0.165 N
ENDROOT
BRANCH   8  13
HETATM   13  N4  UNL     1      -6.036  16.610   0.739  1.00  0.00    -0.191 N
ATOM     14  H4  UNL     1      -5.484  16.761   1.584  1.00  0.00     0.184 HD
BRANCH  13  15
HETATM   15  C8  UNL     1      -5.536  17.123  -0.471  1.00  0.00     0.055 A
HETATM   16  C9  UNL     1      -4.664  16.314  -1.206  1.00  0.00     0.033 A
HETATM   17  C10 UNL     1      -4.182  16.832  -2.386  1.00  0.00     0.039 A
HETATM   18  C11 UNL     1      -4.504  18.077  -2.874  1.00  0.00     0.069 A
HETATM   19  C20 UNL     1      -5.366  18.841  -2.118  1.00  0.00     0.045 A
HETATM   20  C21 UNL     1      -5.889  18.372  -0.911  1.00  0.00    -0.032 A
HETATM   21  C22 UNL     1      -6.813  19.240  -0.138  1.00  0.00     0.050 C
BRANCH  18  22
HETATM   22  O3  UNL     1      -4.001  18.581  -4.077  1.00  0.00    -0.351 OA
BRANCH  22  23
HETATM   23  C12 UNL     1      -4.144  17.747  -5.215  1.00  0.00     0.177 C
BRANCH  23  24
HETATM   24  C13 UNL     1      -5.291  18.141  -6.092  1.00  0.00     0.046 C
BRANCH  24  25
HETATM   25  C14 UNL     1      -6.584  18.275  -5.344  1.00  0.00     0.128 C
BRANCH  25  26
HETATM   26  N5  UNL     1      -7.311  17.039  -5.414  1.00  0.00    -0.352 N
HETATM   27  C15 UNL     1      -7.154  15.913  -4.522  1.00  0.00     0.125 C
HETATM   28  C16 UNL     1      -8.491  15.640  -3.865  1.00  0.00     0.020 C
HETATM   29  C17 UNL     1      -9.667  15.823  -4.762  1.00  0.00     0.011 C
HETATM   30  C18 UNL     1      -9.297  15.788  -6.229  1.00  0.00     0.103 C
HETATM   31  C19 UNL     1      -8.307  16.872  -6.450  1.00  0.00     0.219 C
HETATM   32  O4  UNL     1      -8.322  17.597  -7.457  1.00  0.00    -0.273 OA
ENDBRANCH  25  26
ENDBRANCH  24  25
ENDBRANCH  23  24
ENDBRANCH  22  23
ENDBRANCH  18  22
ENDBRANCH  13  15
ENDBRANCH   8  13
BRANCH  12  33
HETATM   33  C24 UNL     1      -9.056  14.984   4.664  1.00  0.00     0.152 C
BRANCH  33  34
HETATM   34  C25 UNL     1      -9.998  15.746   5.501  1.00  0.00     0.058 C
BRANCH  34  35
HETATM   35  C26 UNL     1     -10.240  15.216   6.860  1.00  0.00     0.052 C
HETATM   36  C27 UNL     1      -9.120  15.836   7.744  1.00  0.00     0.045 C
HETATM   37  C28 UNL     1     -10.068  13.712   6.926  1.00  0.00     0.045 C
BRANCH  35  38
HETATM   38  O5  UNL     1     -11.421  15.658   7.392  1.00  0.00    -0.391 OA
ATOM     39  H5  UNL     1     -11.317  16.457   7.895  1.00  0.00     0.210 HD
ENDBRANCH  35  38
ENDBRANCH  34  35
ENDBRANCH  33  34
ENDBRANCH  12  33
BRANCH   1  40
HETATM   40  N1  UNL     1     -11.459  13.389   3.659  1.00  0.00    -0.154 N
HETATM   41  C3  UNL     1     -12.769  13.899   3.656  1.00  0.00     0.281 C
HETATM   42  O2  UNL     1     -13.351  13.980   2.517  1.00  0.00    -0.266 OA
ATOM     43  H1  UNL     1     -11.207  12.585   4.232  1.00  0.00     0.187 HD
BRANCH  41  44
HETATM   44  C2  UNL     1     -13.536  14.343   4.801  1.00  0.00     0.208 C
BRANCH  44  45
HETATM   45  O1  UNL     1     -13.304  13.755   6.009  1.00  0.00    -0.362 OA
HETATM   46  C1  UNL     1     -13.925  12.552   6.221  1.00  0.00     0.209 C
ENDBRANCH  44  45
ENDBRANCH  41  44
ENDBRANCH   1  40
TORSDOF 14
ENDMDL