MODEL 1
REMARK VINA RESULT: -9.251185963      0.000      0.000
REMARK  13 active torsions:
REMARK  status: ('A' for Active; 'I' for Inactive)
REMARK    1  A    between atoms: C2_2  and  C3_3
REMARK    2  A    between atoms: C3_3  and  C4_4
REMARK    3  A    between atoms: C4_4  and  C5_5
REMARK    4  A    between atoms: C5_5  and  S1_6
REMARK    5  A    between atoms: S1_6  and  C6_9
REMARK    6  A    between atoms: C8_12  and  C9_13
REMARK    7  A    between atoms: C13_17  and  C14_18
REMARK    8  A    between atoms: C15_19  and  C16_20
REMARK    9  A    between atoms: C18_24  and  N2_25
REMARK   10  A    between atoms: C20_31  and  C21_32
REMARK   11  A    between atoms: C21_32  and  N4_33
REMARK   12  A    between atoms: N4_33  and  S3_35
REMARK   13  A    between atoms: S3_35  and  C23_38
ROOT
HETATM    1  C9  UNL     1     -11.954  14.119   2.366  1.00  0.00    -0.001 A
HETATM    2  C10 UNL     1     -12.091  13.185   1.379  1.00  0.00     0.022 A
HETATM    3  C11 UNL     1     -11.639  13.449   0.081  1.00  0.00    -0.042 A
HETATM    4  C12 UNL     1     -11.815  12.396  -0.951  1.00  0.00     0.049 C
HETATM    5  C13 UNL     1     -11.064  14.660  -0.150  1.00  0.00     0.035 A
HETATM    6  C20 UNL     1     -10.921  15.610   0.838  1.00  0.00    -0.000 A
HETATM    7  C25 UNL     1     -11.376  15.316   2.094  1.00  0.00     0.028 A
ENDROOT
BRANCH   1   8
HETATM    8  C8  UNL     1     -12.447  13.799   3.730  1.00  0.00     0.085 A
HETATM    9  S2  UNL     1     -14.054  13.646   4.285  1.00  0.00    -0.080 SA
HETATM   10  C7  UNL     1     -13.720  13.276   5.925  1.00  0.00     0.093 A
HETATM   11  C6  UNL     1     -12.350  13.295   5.933  1.00  0.00     0.136 A
HETATM   12  N5  UNL     1     -11.746  13.559   4.821  1.00  0.00    -0.340 N
ATOM     13  H5  UNL     1     -10.726  13.582   4.787  1.00  0.00     0.167 HD
BRANCH  11  14
HETATM   14  S1  UNL     1     -11.427  12.964   7.435  1.00  0.00     0.191 S
HETATM   15  O1  UNL     1     -10.933  11.555   7.389  1.00  0.00    -0.221 OA
HETATM   16  O2  UNL     1     -12.394  13.086   8.570  1.00  0.00    -0.221 OA
BRANCH  14  17
HETATM   17  C5  UNL     1     -10.139  14.128   7.613  1.00  0.00     0.147 C
BRANCH  17  18
HETATM   18  C4  UNL     1     -10.496  15.547   7.368  1.00  0.00     0.015 C
BRANCH  18  19
HETATM   19  C3  UNL     1      -9.458  16.287   6.582  1.00  0.00     0.001 C
BRANCH  19  20
HETATM   20  C2  UNL     1      -8.637  15.236   5.814  1.00  0.00    -0.005 C
HETATM   21  C1  UNL     1      -8.746  15.527   4.340  1.00  0.00     0.005 C
ENDBRANCH  19  20
ENDBRANCH  18  19
ENDBRANCH  17  18
ENDBRANCH  14  17
ENDBRANCH  11  14
ENDBRANCH   1   8
BRANCH   6  22
HETATM   22  C21 UNL     1     -10.284  16.884   0.471  1.00  0.00     0.109 C
BRANCH  22  23
HETATM   23  N4  UNL     1      -9.241  17.280   1.297  1.00  0.00    -0.327 N
ATOM     24  H4  UNL     1      -9.345  17.594   2.263  1.00  0.00     0.174 HD
BRANCH  23  25
HETATM   25  S3  UNL     1      -7.490  17.142   0.303  1.00  0.00     0.020 S
HETATM   26  C22 UNL     1      -7.220  15.497  -0.577  1.00  0.00     0.136 C
HETATM   27  O3  UNL     1      -6.811  16.950   1.519  1.00  0.00    -0.250 OA
BRANCH  25  28
HETATM   28  C23 UNL     1      -6.805  18.764  -0.309  1.00  0.00     0.112 C
HETATM   29  C24 UNL     1      -5.303  18.830  -0.621  1.00  0.00     0.019 C
ENDBRANCH  25  28
ENDBRANCH  23  25
ENDBRANCH  22  23
ENDBRANCH   6  22
BRANCH   5  30
HETATM   30  C14 UNL     1     -10.596  14.934  -1.495  1.00  0.00    -0.060 C
HETATM   31  C15 UNL     1     -10.204  15.180  -2.609  1.00  0.00    -0.059 C
BRANCH  31  32
HETATM   32  C16 UNL     1      -9.762  15.473  -3.942  1.00  0.00     0.050 A
HETATM   33  C17 UNL     1     -10.641  15.619  -5.007  1.00  0.00     0.128 A
HETATM   34  N1  UNL     1     -10.177  15.893  -6.236  1.00  0.00    -0.201 N
HETATM   35  C18 UNL     1      -8.869  16.039  -6.499  1.00  0.00     0.675 A
ATOM     36  H1  UNL     1     -10.844  15.996  -7.001  1.00  0.00     0.183 HD
HETATM   37  N3  UNL     1      -8.013  15.900  -5.475  1.00  0.00    -0.201 N
HETATM   38  C19 UNL     1      -8.426  15.623  -4.215  1.00  0.00     0.128 A
ATOM     39  H3  UNL     1      -7.014  16.006  -5.653  1.00  0.00     0.183 HD
BRANCH  35  40
HETATM   40  N2  UNL     1      -8.467  16.302  -7.696  1.00  0.00    -0.234 N
ATOM     41  H22 UNL     1      -8.727  15.722  -8.494  1.00  0.00     0.174 HD
ATOM     42  H21 UNL     1      -7.871  17.110  -7.877  1.00  0.00     0.174 HD
ENDBRANCH  35  40
ENDBRANCH  31  32
ENDBRANCH   5  30
TORSDOF 13
ENDMDL