MODEL 2
REMARK VINA RESULT: -8.537227671      2.119      9.721
REMARK  17 active torsions:
REMARK  status: ('A' for Active; 'I' for Inactive)
REMARK    1  A    between atoms: O1_2  and  C2_3
REMARK    2  A    between atoms: C4_7  and  C5_8
REMARK    3  A    between atoms: C6_9  and  C7_10
REMARK    4  A    between atoms: C8_11  and  C9_12
REMARK    5  A    between atoms: C10_13  and  C11_14
REMARK    6  A    between atoms: C11_14  and  C12_15
REMARK    7  A    between atoms: C12_15  and  C13_16
REMARK    8  A    between atoms: C13_16  and  N2_17
REMARK    9  A    between atoms: C20_24  and  C21_25
REMARK       I    between atoms: C21_25  and  N3_27
REMARK   10  A    between atoms: N3_27  and  C22_29
REMARK   11  A    between atoms: C22_29  and  C23_30
REMARK   12  A    between atoms: C23_30  and  C24_31
REMARK   13  A    between atoms: C24_31  and  C25_32
REMARK   14  A    between atoms: C25_32  and  C26_33
REMARK   15  A    between atoms: C26_33  and  N4_34
REMARK   16  A    between atoms: C27_38  and  C28_39
REMARK   17  A    between atoms: C28_39  and  O3_40
ROOT
HETATM    1  N2  UNL     1      -5.361  17.412  -4.184  1.00  0.00    -0.360 N
HETATM    2  C14 UNL     1      -5.049  18.776  -3.909  1.00  0.00     0.095 A
HETATM    3  C15 UNL     1      -5.160  18.710  -2.632  1.00  0.00    -0.016 A
HETATM    4  C16 UNL     1      -5.139  19.223  -1.260  1.00  0.00     0.048 C
HETATM    5  C17 UNL     1      -6.026  18.468  -0.326  1.00  0.00     0.032 A
HETATM    6  C18 UNL     1      -5.732  17.079   0.063  1.00  0.00     0.029 A
HETATM    7  C19 UNL     1      -6.368  16.584   1.340  1.00  0.00     0.022 C
HETATM    8  C20 UNL     1      -7.716  15.997   0.896  1.00  0.00     0.087 C
HETATM    9  C27 UNL     1      -8.065  16.864  -0.224  1.00  0.00     0.058 C
HETATM   10  C29 UNL     1      -6.817  17.398  -0.895  1.00  0.00     0.079 A
HETATM   11  O4  UNL     1      -6.697  17.083  -2.223  1.00  0.00    -0.350 OA
HETATM   12  C30 UNL     1      -5.455  17.229  -2.774  1.00  0.00     0.255 A
ENDROOT
BRANCH   1  13
HETATM   13  C13 UNL     1      -5.501  16.631  -5.406  1.00  0.00     0.125 C
BRANCH  13  14
HETATM   14  C12 UNL     1      -5.736  17.580  -6.556  1.00  0.00     0.023 C
BRANCH  14  15
HETATM   15  C11 UNL     1      -7.221  17.884  -6.698  1.00  0.00     0.029 C
BRANCH  15  16
HETATM   16  C10 UNL     1      -7.796  16.979  -7.728  1.00  0.00    -0.018 C
HETATM   17  C9  UNL     1      -8.688  16.051  -7.454  1.00  0.00     0.061 C
BRANCH  17  18
HETATM   18  C8  UNL     1      -9.166  15.856  -6.119  1.00  0.00    -0.065 C
HETATM   19  C7  UNL     1      -9.575  15.665  -4.979  1.00  0.00    -0.010 C
BRANCH  19  20
HETATM   20  C6  UNL     1     -10.049  15.418  -3.671  1.00  0.00    -0.007 C
HETATM   21  C5  UNL     1     -10.468  15.192  -2.565  1.00  0.00    -0.027 C
BRANCH  21  22
HETATM   22  C4  UNL     1     -10.975  14.892  -1.233  1.00  0.00     0.132 A
HETATM   23  N1  UNL     1     -11.680  15.687  -0.445  1.00  0.00    -0.350 N
HETATM   24  C3  UNL     1     -12.059  15.269   0.719  1.00  0.00     0.134 A
ATOM     25  H1  UNL     1     -11.923  16.628  -0.754  1.00  0.00     0.166 HD
HETATM   26  C2  UNL     1     -11.708  14.000   1.092  1.00  0.00     0.127 A
HETATM   27  S1  UNL     1     -10.832  13.476  -0.295  1.00  0.00    -0.037 SA
BRANCH  26  28
HETATM   28  O1  UNL     1     -11.991  13.316   2.288  1.00  0.00    -0.347 OA
HETATM   29  C1  UNL     1     -12.496  12.021   2.175  1.00  0.00     0.211 C
ENDBRANCH  26  28
ENDBRANCH  21  22
ENDBRANCH  19  20
ENDBRANCH  17  18
ENDBRANCH  15  16
ENDBRANCH  14  15
ENDBRANCH  13  14
ENDBRANCH   1  13
BRANCH   9  30
HETATM   30  C28 UNL     1      -9.097  17.930   0.001  1.00  0.00     0.172 C
BRANCH  30  31
HETATM   31  O3  UNL     1      -9.854  18.247  -1.116  1.00  0.00    -0.400 OA
ATOM     32  H3  UNL     1      -9.352  18.378  -1.912  1.00  0.00     0.209 HD
ENDBRANCH  30  31
ENDBRANCH   9  30
BRANCH   8  33
HETATM   33  C21 UNL     1      -8.596  15.888   2.048  1.00  0.00     0.222 C
HETATM   34  O2  UNL     1      -9.395  16.748   2.457  1.00  0.00    -0.273 OA
HETATM   35  N3  UNL     1      -8.528  14.667   2.775  1.00  0.00    -0.361 N
ATOM     36  H3  UNL     1      -7.885  13.940   2.464  1.00  0.00     0.162 HD
BRANCH  35  37
HETATM   37  C22 UNL     1      -9.340  14.429   3.936  1.00  0.00     0.122 C
BRANCH  37  38
HETATM   38  C23 UNL     1      -8.631  14.533   5.249  1.00  0.00     0.020 C
BRANCH  38  39
HETATM   39  C24 UNL     1      -8.862  15.923   5.819  1.00  0.00     0.003 C
BRANCH  39  40
HETATM   40  C25 UNL     1      -9.364  15.773   7.243  1.00  0.00     0.027 C
BRANCH  40  41
HETATM   41  C26 UNL     1     -10.827  15.351   7.248  1.00  0.00     0.229 C
BRANCH  41  42
HETATM   42  N4  UNL     1     -11.000  14.126   8.007  1.00  0.00    -0.079 N
ATOM     43  H43 UNL     1     -10.956  14.293   9.012  1.00  0.00     0.274 HD
ATOM     44  H42 UNL     1     -11.958  13.779   7.953  1.00  0.00     0.274 HD
ATOM     45  H41 UNL     1     -10.325  13.421   7.709  1.00  0.00     0.274 HD
ENDBRANCH  41  42
ENDBRANCH  40  41
ENDBRANCH  39  40
ENDBRANCH  38  39
ENDBRANCH  37  38
ENDBRANCH  35  37
ENDBRANCH   8  33
TORSDOF 17
ENDMDL