MODEL 2
REMARK VINA RESULT: -8.839083196      2.520      5.141
REMARK  11 active torsions:
REMARK  status: ('A' for Active; 'I' for Inactive)
REMARK    1  A    between atoms: C2_2  and  C3_3
REMARK    2  A    between atoms: C3_3  and  C4_4
REMARK    3  A    between atoms: C4_4  and  N1_5
REMARK    4  A    between atoms: C8_13  and  C9_14
REMARK       I    between atoms: C9_14  and  N4_16
REMARK    5  A    between atoms: N4_16  and  C10_18
REMARK    6  A    between atoms: N6_22  and  C12_23
REMARK    7  A    between atoms: C12_23  and  C13_24
REMARK       I    between atoms: C13_24  and  N7_26
REMARK    8  A    between atoms: C16_29  and  C17_30
REMARK    9  A    between atoms: C17_30  and  N8_31
REMARK   10  A    between atoms: C20_34  and  N9_35
REMARK   11  A    between atoms: N9_35  and  C21_38
ROOT
HETATM    1  C10 UNL     1      -8.190  16.221  -5.045  1.00  0.00     0.069 A
HETATM    2  C11 UNL     1      -9.260  15.501  -5.496  1.00  0.00     0.138 A
HETATM    3  N5  UNL     1     -10.153  15.471  -4.467  1.00  0.00    -0.307 N
ATOM      4  H5  UNL     1     -11.060  15.004  -4.496  1.00  0.00     0.186 HD
HETATM    5  N6  UNL     1      -9.685  16.124  -3.442  1.00  0.00    -0.293 N
HETATM    6  C27 UNL     1      -8.478  16.619  -3.715  1.00  0.00     0.141 A
ENDROOT
BRANCH   5   7
HETATM    7  C12 UNL     1     -10.421  16.267  -2.174  1.00  0.00     0.251 C
BRANCH   7   8
HETATM    8  C13 UNL     1      -9.939  15.223  -1.257  1.00  0.00     0.239 C
HETATM    9  O2  UNL     1     -10.416  14.044  -1.477  1.00  0.00    -0.271 OA
HETATM   10  N7  UNL     1      -9.035  15.449  -0.213  1.00  0.00    -0.351 N
HETATM   11  C14 UNL     1      -8.650  14.309   0.628  1.00  0.00     0.126 C
HETATM   12  C26 UNL     1      -8.437  16.705   0.110  1.00  0.00     0.126 C
HETATM   13  C15 UNL     1      -9.117  14.682   2.019  1.00  0.00     0.026 C
HETATM   14  C16 UNL     1      -8.399  15.917   2.524  1.00  0.00     0.017 C
HETATM   15  C25 UNL     1      -8.445  17.057   1.568  1.00  0.00     0.026 C
BRANCH  14  16
HETATM   16  C17 UNL     1      -9.100  16.346   3.794  1.00  0.00     0.277 C
BRANCH  16  17
HETATM   17  N8  UNL     1      -9.588  15.205   4.544  1.00  0.00     0.088 N
HETATM   18  C18 UNL     1     -10.977  15.264   4.876  1.00  0.00     0.274 C
HETATM   19  C19 UNL     1     -11.470  13.971   5.451  1.00  0.00     0.063 C
HETATM   20  C20 UNL     1     -10.588  13.365   6.470  1.00  0.00     0.189 C
HETATM   21  C23 UNL     1      -9.118  13.606   6.237  1.00  0.00     0.063 C
HETATM   22  C24 UNL     1      -8.844  15.016   5.773  1.00  0.00     0.274 C
BRANCH  20  23
HETATM   23  N9  UNL     1     -10.884  13.711   7.842  1.00  0.00    -0.071 N
ATOM     24  H92 UNL     1     -10.023  13.795   8.383  1.00  0.00     0.277 HD
ATOM     25  H91 UNL     1     -11.221  14.672   7.904  1.00  0.00     0.277 HD
BRANCH  23  26
HETATM   26  C21 UNL     1     -11.791  12.821   8.480  1.00  0.00     0.228 C
HETATM   27  C22 UNL     1     -11.513  11.360   8.207  1.00  0.00     0.034 C
ENDBRANCH  23  26
ENDBRANCH  20  23
ENDBRANCH  16  17
ENDBRANCH  14  16
ENDBRANCH   7   8
ENDBRANCH   5   7
BRANCH   1  28
HETATM   28  N4  UNL     1      -7.018  16.514  -5.745  1.00  0.00    -0.319 N
HETATM   29  C9  UNL     1      -6.939  17.309  -6.909  1.00  0.00     0.276 C
HETATM   30  O1  UNL     1      -8.001  17.783  -7.351  1.00  0.00    -0.266 OA
ATOM     31  H4  UNL     1      -6.148  16.121  -5.387  1.00  0.00     0.169 HD
BRANCH  29  32
HETATM   32  C8  UNL     1      -5.616  17.524  -7.520  1.00  0.00     0.145 A
HETATM   33  N3  UNL     1      -5.418  17.796  -8.850  1.00  0.00    -0.293 N
HETATM   34  N2  UNL     1      -4.128  17.906  -9.049  1.00  0.00    -0.302 N
ATOM     35  H3  UNL     1      -6.146  17.895  -9.558  1.00  0.00     0.187 HD
HETATM   36  C7  UNL     1      -3.449  17.720  -7.917  1.00  0.00     0.056 A
ATOM     37  H2  UNL     1      -3.700  18.109  -9.953  1.00  0.00     0.186 HD
HETATM   38  C6  UNL     1      -2.080  17.605  -7.281  1.00  0.00     0.081 C
HETATM   39  C28 UNL     1      -4.412  17.477  -6.916  1.00  0.00     0.092 A
HETATM   40  C5  UNL     1      -2.435  16.686  -6.087  1.00  0.00     0.134 C
HETATM   41  N1  UNL     1      -3.719  17.360  -5.682  1.00  0.00    -0.357 N
BRANCH  41  42
HETATM   42  C4  UNL     1      -3.957  17.778  -4.378  1.00  0.00     0.064 C
BRANCH  42  43
HETATM   43  C3  UNL     1      -3.215  17.215  -3.214  1.00  0.00     0.044 C
BRANCH  43  44
HETATM   44  C2  UNL     1      -4.118  17.308  -1.942  1.00  0.00     0.001 C
HETATM   45  C1  UNL     1      -4.817  18.641  -1.913  1.00  0.00     0.005 C
ENDBRANCH  43  44
ENDBRANCH  42  43
ENDBRANCH  41  42
ENDBRANCH  29  32
ENDBRANCH   1  28
TORSDOF 11
ENDMDL