MODEL 5
REMARK VINA RESULT: -8.741954356      3.365      7.950
REMARK  14 active torsions:
REMARK  status: ('A' for Active; 'I' for Inactive)
REMARK       I    between atoms: N2_5  and  C4_6
REMARK    1  A    between atoms: C4_6  and  C5_8
REMARK    2  A    between atoms: C5_8  and  N3_9
REMARK    3  A    between atoms: C5_8  and  O4_30
REMARK    4  A    between atoms: N3_9  and  C6_11
REMARK    5  A    between atoms: C6_11  and  C13_21
REMARK    6  A    between atoms: C7_12  and  C8_13
REMARK    7  A    between atoms: C13_21  and  O3_22
REMARK    8  A    between atoms: C13_21  and  N5_24
REMARK    9  A    between atoms: N5_24  and  C14_26
REMARK   10  A    between atoms: O4_30  and  C18_31
REMARK   11  A    between atoms: C18_31  and  C19_32
REMARK   12  A    between atoms: C19_32  and  C20_33
REMARK   13  A    between atoms: C20_33  and  C21_34
REMARK   14  A    between atoms: C21_34  and  C22_35
ROOT
HETATM    1  N3  UNL     1      -9.208  16.222   1.499  1.00  0.00    -0.329 N
ATOM      2  H3  UNL     1      -9.560  17.072   1.941  1.00  0.00     0.168 HD
ENDROOT
BRANCH   1   3
HETATM    3  C5  UNL     1      -9.862  15.077   1.879  1.00  0.00     0.212 C
BRANCH   3   4
HETATM    4  C4  UNL     1      -9.483  14.523   3.205  1.00  0.00     0.294 C
HETATM    5  N2  UNL     1     -10.239  14.720   4.417  1.00  0.00    -0.342 N
HETATM    6  C3  UNL     1     -11.489  15.397   4.551  1.00  0.00     0.156 C
HETATM    7  C25 UNL     1      -9.635  14.165   5.644  1.00  0.00     0.156 C
HETATM    8  C2  UNL     1     -12.203  14.690   5.723  1.00  0.00     0.291 C
HETATM    9  N1  UNL     1     -11.559  14.903   6.973  1.00  0.00     0.087 N
HETATM   10  C1  UNL     1     -12.022  13.843   7.882  1.00  0.00     0.310 C
HETATM   11  C26 UNL     1     -10.113  14.891   6.874  1.00  0.00     0.291 C
HETATM   12  O1  UNL     1      -8.445  13.809   3.400  1.00  0.00    -0.264 OA
ENDBRANCH   3   4
BRANCH   3  13
HETATM   13  O4  UNL     1      -9.997  14.081   0.959  1.00  0.00    -0.332 OA
BRANCH  13  14
HETATM   14  C18 UNL     1     -11.091  14.214   0.136  1.00  0.00     0.177 C
BRANCH  14  15
HETATM   15  C19 UNL     1     -11.487  12.941  -0.478  1.00  0.00     0.027 C
BRANCH  15  16
HETATM   16  C20 UNL     1     -12.643  12.208   0.218  1.00  0.00     0.003 C
BRANCH  16  17
HETATM   17  C21 UNL     1     -13.541  13.212   0.813  1.00  0.00     0.016 C
BRANCH  17  18
HETATM   18  C22 UNL     1     -13.413  13.370   2.305  1.00  0.00     0.059 C
HETATM   19  C23 UNL     1     -12.842  12.240   3.028  1.00  0.00     0.027 C
HETATM   20  C24 UNL     1     -13.789  11.272   3.572  1.00  0.00     0.087 C
HETATM   21  S1  UNL     1     -15.123  12.207   4.427  1.00  0.00    -0.097 SA
HETATM   22  S2  UNL     1     -14.953  13.913   3.105  1.00  0.00    -0.093 SA
ENDBRANCH  17  18
ENDBRANCH  16  17
ENDBRANCH  15  16
ENDBRANCH  14  15
ENDBRANCH  13  14
ENDBRANCH   3  13
ENDBRANCH   1   3
BRANCH   1  23
HETATM   23  C6  UNL     1      -8.124  16.436   0.597  1.00  0.00     0.082 C
HETATM   24  C7  UNL     1      -6.764  16.300   1.014  1.00  0.00     0.021 C
BRANCH  24  25
HETATM   25  C8  UNL     1      -5.549  16.413   0.167  1.00  0.00     0.103 C
HETATM   26  C9  UNL     1      -5.644  16.310  -1.300  1.00  0.00     0.020 C
HETATM   27  C10 UNL     1      -4.632  17.228  -2.028  1.00  0.00     0.021 C
HETATM   28  C11 UNL     1      -5.104  18.668  -1.787  1.00  0.00     0.122 C
HETATM   29  N4  UNL     1      -5.015  18.848  -0.349  1.00  0.00    -0.360 N
HETATM   30  C12 UNL     1      -4.828  17.710   0.464  1.00  0.00     0.225 C
ATOM     31  H4  UNL     1      -5.087  19.777   0.066  1.00  0.00     0.162 HD
HETATM   32  O2  UNL     1      -4.062  17.744   1.448  1.00  0.00    -0.273 OA
ENDBRANCH  24  25
BRANCH  23  33
HETATM   33  C13 UNL     1      -8.672  17.199  -0.510  1.00  0.00     0.163 C
BRANCH  33  34
HETATM   34  O3  UNL     1      -8.211  18.468  -0.476  1.00  0.00    -0.345 OA
ATOM     35  H3  UNL     1      -8.928  19.075  -0.332  1.00  0.00     0.219 HD
ENDBRANCH  33  34
BRANCH  33  36
HETATM   36  N5  UNL     1      -9.506  17.022  -1.582  1.00  0.00    -0.361 N
ATOM     37  H5  UNL     1     -10.396  17.521  -1.591  1.00  0.00     0.162 HD
BRANCH  36  38
HETATM   38  C14 UNL     1      -9.181  16.146  -2.725  1.00  0.00     0.021 C
HETATM   39  C15 UNL     1      -8.261  16.890  -3.662  1.00  0.00     0.037 C
HETATM   40  C16 UNL     1     -10.438  15.808  -3.491  1.00  0.00     0.037 C
HETATM   41  C17 UNL     1      -8.542  14.864  -2.329  1.00  0.00     0.037 C
ENDBRANCH  36  38
ENDBRANCH  33  36
ENDBRANCH  23  33
ENDBRANCH   1  23
TORSDOF 14
ENDMDL