MODEL 3
REMARK VINA RESULT: -8.955946665      3.715      9.255
REMARK  12 active torsions:
REMARK  status: ('A' for Active; 'I' for Inactive)
REMARK    1  A    between atoms: C2_2  and  N1_3
REMARK    2  A    between atoms: C9_11  and  O1_12
REMARK    3  A    between atoms: N3_14  and  C10_15
REMARK    4  A    between atoms: C14_20  and  C15_21
REMARK    5  A    between atoms: C15_21  and  C16_23
REMARK    6  A    between atoms: C17_24  and  C18_25
REMARK    7  A    between atoms: C19_26  and  O4_27
REMARK    8  A    between atoms: C22_32  and  C23_33
REMARK    9  A    between atoms: C23_33  and  C24_34
REMARK   10  A    between atoms: C25_35  and  C27_37
REMARK   11  A    between atoms: C27_37  and  C28_38
REMARK   12  A    between atoms: C28_38  and  C29_39
ROOT
HETATM    1  C15 UNL     1      -8.412  15.961   1.535  1.00  0.00     0.172 C
HETATM    2  O3  UNL     1      -7.308  15.509   2.010  1.00  0.00    -0.289 OA
ENDROOT
BRANCH   1   3
HETATM    3  C14 UNL     1      -9.629  15.288   1.818  1.00  0.00     0.072 C
HETATM    4  C13 UNL     1     -10.242  15.041   2.953  1.00  0.00     0.050 A
HETATM    5  C7  UNL     1     -11.479  14.299   2.951  1.00  0.00     0.031 A
HETATM    6  C12 UNL     1      -9.859  15.650   4.149  1.00  0.00     0.261 A
HETATM    7  C6  UNL     1     -11.686  13.375   2.048  1.00  0.00     0.020 C
HETATM    8  C8  UNL     1     -12.141  14.313   4.158  1.00  0.00     0.110 A
HETATM    9  N1  UNL     1     -12.596  12.249   2.249  1.00  0.00    -0.384 N
HETATM   10  C5  UNL     1     -11.329  13.153   0.623  1.00  0.00     0.059 C
HETATM   11  C3  UNL     1     -13.443  12.173   1.026  1.00  0.00     0.123 C
HETATM   12  C4  UNL     1     -12.230  12.025   0.098  1.00  0.00     0.026 C
HETATM   13  N2  UNL     1     -13.535  13.874   4.154  1.00  0.00    -0.097 NA
HETATM   14  C9  UNL     1     -11.725  14.929   5.315  1.00  0.00     0.171 A
HETATM   15  N3  UNL     1     -10.588  15.585   5.289  1.00  0.00    -0.293 N
HETATM   16  O2  UNL     1      -8.792  16.304   4.226  1.00  0.00    -0.267 OA
BRANCH   9  17
HETATM   17  C2  UNL     1     -12.684  11.243   3.273  1.00  0.00     0.118 C
HETATM   18  C1  UNL     1     -13.905  10.294   3.036  1.00  0.00     0.026 C
ENDBRANCH   9  17
BRANCH  14  19
HETATM   19  O1  UNL     1     -12.509  14.842   6.468  1.00  0.00    -0.344 OA
ATOM     20  H1  UNL     1     -13.030  15.588   6.741  1.00  0.00     0.219 HD
ENDBRANCH  14  19
BRANCH  15  21
HETATM   21  C10 UNL     1     -10.070  16.258   6.460  1.00  0.00     0.130 C
HETATM   22  C11 UNL     1      -9.364  15.356   7.414  1.00  0.00     0.027 C
ENDBRANCH  15  21
ENDBRANCH   1   3
BRANCH   1  23
HETATM   23  C16 UNL     1      -8.210  17.133   0.768  1.00  0.00     0.051 C
HETATM   24  C17 UNL     1      -7.446  17.547  -0.131  1.00  0.00    -0.015 C
BRANCH  24  25
HETATM   25  C18 UNL     1      -6.303  17.064  -0.925  1.00  0.00     0.049 C
HETATM   26  C19 UNL     1      -5.070  17.130  -0.043  1.00  0.00     0.133 C
HETATM   27  C20 UNL     1      -4.038  17.943  -0.746  1.00  0.00     0.111 C
HETATM   28  C21 UNL     1      -4.869  18.828  -1.626  1.00  0.00     0.134 C
HETATM   29  O5  UNL     1      -4.628  19.972  -1.899  1.00  0.00    -0.297 OA
HETATM   30  C22 UNL     1      -5.998  18.019  -2.063  1.00  0.00     0.069 C
BRANCH  26  31
HETATM   31  O4  UNL     1      -4.595  15.854   0.279  1.00  0.00    -0.394 OA
ATOM     32  H4  UNL     1      -3.659  15.779   0.131  1.00  0.00     0.210 HD
ENDBRANCH  26  31
BRANCH  30  33
HETATM   33  C23 UNL     1      -5.600  17.207  -3.273  1.00  0.00     0.040 C
BRANCH  33  34
HETATM   34  C24 UNL     1      -6.771  16.562  -3.940  1.00  0.00    -0.024 C
HETATM   35  C25 UNL     1      -7.326  17.038  -5.030  1.00  0.00    -0.087 C
HETATM   36  C26 UNL     1      -6.818  18.284  -5.699  1.00  0.00     0.043 C
BRANCH  35  37
HETATM   37  C27 UNL     1      -8.489  16.349  -5.641  1.00  0.00     0.037 C
BRANCH  37  38
HETATM   38  C28 UNL     1      -8.996  15.200  -4.786  1.00  0.00     0.031 C
BRANCH  38  39
HETATM   39  C29 UNL     1      -9.989  15.713  -3.817  1.00  0.00    -0.024 C
HETATM   40  C30 UNL     1      -9.920  15.400  -2.545  1.00  0.00    -0.091 C
HETATM   41  C31 UNL     1      -8.829  14.519  -2.065  1.00  0.00     0.042 C
HETATM   42  C32 UNL     1     -10.920  15.918  -1.575  1.00  0.00     0.042 C
ENDBRANCH  38  39
ENDBRANCH  37  38
ENDBRANCH  35  37
ENDBRANCH  33  34
ENDBRANCH  30  33
ENDBRANCH  24  25
ENDBRANCH   1  23
TORSDOF 12
ENDMDL