MODEL 2
REMARK VINA RESULT: -8.500214260      2.279      4.713
REMARK  14 active torsions:
REMARK  status: ('A' for Active; 'I' for Inactive)
REMARK    1  A    between atoms: C2_2  and  N1_3
REMARK    2  A    between atoms: N1_3  and  C3_4
REMARK       I    between atoms: N1_3  and  C5_6
REMARK    3  A    between atoms: C5_6  and  C6_8
REMARK    4  A    between atoms: C6_8  and  N2_9
REMARK    5  A    between atoms: N2_9  and  C7_11
REMARK    6  A    between atoms: C9_15  and  C10_16
REMARK    7  A    between atoms: C12_20  and  O2_21
REMARK    8  A    between atoms: O2_21  and  C13_22
REMARK    9  A    between atoms: C13_22  and  C14_23
REMARK   10  A    between atoms: C14_23  and  C15_24
REMARK   11  A    between atoms: C15_24  and  N5_25
REMARK   12  A    between atoms: C18_28  and  O3_29
REMARK   13  A    between atoms: C21_32  and  N6_33
REMARK   14  A    between atoms: N6_33  and  C22_35
ROOT
HETATM    1  C7  UNL     1     -11.824  14.125   1.310  1.00  0.00     0.679 A
HETATM    2  N3  UNL     1     -11.687  15.302   1.944  1.00  0.00    -0.201 N
ATOM      3  H3  UNL     1     -12.369  15.551   2.661  1.00  0.00     0.183 HD
HETATM    4  C8  UNL     1     -10.692  16.164   1.677  1.00  0.00     0.122 A
HETATM    5  C9  UNL     1      -9.772  15.830   0.712  1.00  0.00     0.036 A
HETATM    6  C21 UNL     1      -9.895  14.627   0.050  1.00  0.00     0.134 A
HETATM    7  N9  UNL     1     -10.911  13.801   0.359  1.00  0.00    -0.176 N
ATOM      8  H9  UNL     1     -10.998  12.912  -0.133  1.00  0.00     0.186 HD
ENDROOT
BRANCH   5   9
HETATM    9  C10 UNL     1      -8.670  16.729   0.397  1.00  0.00    -0.003 A
HETATM   10  C11 UNL     1      -8.813  17.771  -0.486  1.00  0.00     0.102 A
HETATM   11  N4  UNL     1      -7.789  18.622  -0.783  1.00  0.00    -0.344 N
HETATM   12  C12 UNL     1      -6.578  18.476  -0.213  1.00  0.00     0.176 A
ATOM     13  H4  UNL     1      -7.944  19.381  -1.446  1.00  0.00     0.167 HD
HETATM   14  C18 UNL     1      -6.407  17.437   0.679  1.00  0.00     0.120 A
HETATM   15  C20 UNL     1      -7.432  16.564   0.993  1.00  0.00     0.055 A
BRANCH  12  16
HETATM   16  O2  UNL     1      -5.511  19.301  -0.473  1.00  0.00    -0.334 OA
BRANCH  16  17
HETATM   17  C13 UNL     1      -4.948  19.461  -1.763  1.00  0.00     0.179 C
BRANCH  17  18
HETATM   18  C14 UNL     1      -4.398  18.186  -2.313  1.00  0.00     0.057 C
BRANCH  18  19
HETATM   19  C15 UNL     1      -5.212  17.626  -3.448  1.00  0.00     0.273 C
BRANCH  19  20
HETATM   20  N5  UNL     1      -4.953  18.363  -4.688  1.00  0.00     0.080 N
HETATM   21  C16 UNL     1      -6.212  18.823  -5.243  1.00  0.00     0.309 C
HETATM   22  C17 UNL     1      -4.303  17.452  -5.610  1.00  0.00     0.309 C
ENDBRANCH  19  20
ENDBRANCH  18  19
ENDBRANCH  17  18
ENDBRANCH  16  17
ENDBRANCH  12  16
BRANCH  14  23
HETATM   23  O3  UNL     1      -5.183  17.235   1.297  1.00  0.00    -0.352 OA
HETATM   24  C19 UNL     1      -4.186  16.422   0.736  1.00  0.00     0.210 C
ENDBRANCH  14  23
ENDBRANCH   5   9
BRANCH   6  25
HETATM   25  N6  UNL     1      -9.036  14.284  -0.880  1.00  0.00    -0.341 N
ATOM     26  H6  UNL     1      -8.272  13.658  -0.625  1.00  0.00     0.167 HD
BRANCH  25  27
HETATM   27  C22 UNL     1      -9.111  14.734  -2.208  1.00  0.00     0.035 A
HETATM   28  C23 UNL     1     -10.274  15.249  -2.771  1.00  0.00     0.032 A
HETATM   29  C24 UNL     1     -10.305  15.681  -4.079  1.00  0.00     0.034 A
HETATM   30  C25 UNL     1      -9.185  15.619  -4.879  1.00  0.00     0.060 A
HETATM   31  N7  UNL     1      -8.911  15.952  -6.148  1.00  0.00    -0.351 N
HETATM   32  C27 UNL     1      -8.034  15.114  -4.337  1.00  0.00     0.062 A
HETATM   33  C26 UNL     1      -7.625  15.672  -6.420  1.00  0.00     0.181 A
ATOM     34  H7  UNL     1      -9.577  16.356  -6.807  1.00  0.00     0.166 HD
HETATM   35  N8  UNL     1      -7.088  15.155  -5.302  1.00  0.00    -0.350 N
ATOM     36  H8  UNL     1      -6.122  14.844  -5.198  1.00  0.00     0.166 HD
HETATM   37  C28 UNL     1      -7.997  14.679  -3.028  1.00  0.00     0.061 A
ENDBRANCH  25  27
ENDBRANCH   6  25
BRANCH   1  38
HETATM   38  N2  UNL     1     -12.777  13.293   1.569  1.00  0.00    -0.217 N
ATOM     39  H2  UNL     1     -12.920  12.468   0.988  1.00  0.00     0.178 HD
BRANCH  38  40
HETATM   40  C6  UNL     1     -13.634  13.554   2.693  1.00  0.00     0.240 C
BRANCH  40  41
HETATM   41  C5  UNL     1     -13.380  12.636   3.828  1.00  0.00     0.237 C
HETATM   42  N1  UNL     1     -13.062  13.170   5.087  1.00  0.00    -0.351 N
HETATM   43  O1  UNL     1     -13.466  11.401   3.593  1.00  0.00    -0.272 OA
BRANCH  42  44
HETATM   44  C2  UNL     1     -12.981  14.589   5.276  1.00  0.00     0.121 C
HETATM   45  C1  UNL     1     -11.569  15.059   5.550  1.00  0.00     0.026 C
ENDBRANCH  42  44
BRANCH  42  46
HETATM   46  C3  UNL     1     -12.817  12.284   6.191  1.00  0.00     0.121 C
HETATM   47  C4  UNL     1     -14.045  12.059   7.040  1.00  0.00     0.026 C
ENDBRANCH  42  46
ENDBRANCH  40  41
ENDBRANCH  38  40
ENDBRANCH   1  38
TORSDOF 14
ENDMDL