MODEL 4
REMARK VINA RESULT: -8.567808987      3.048     10.174
REMARK  12 active torsions:
REMARK  status: ('A' for Active; 'I' for Inactive)
REMARK    1  A    between atoms: N1_2  and  C3_4
REMARK    2  A    between atoms: C3_4  and  C4_6
REMARK    3  A    between atoms: N3_11  and  C7_12
REMARK    4  A    between atoms: C7_12  and  C8_13
REMARK    5  A    between atoms: C8_13  and  C9_14
REMARK    6  A    between atoms: C9_14  and  C10_15
REMARK    7  A    between atoms: C10_15  and  C11_16
REMARK    8  A    between atoms: C11_16  and  N4_17
REMARK    9  A    between atoms: N5_20  and  C14_21
REMARK   10  A    between atoms: C14_21  and  C15_22
REMARK   11  A    between atoms: C15_22  and  O1_23
REMARK   12  A    between atoms: O1_23  and  C16_24
ROOT
HETATM    1  N4  UNL     1       7.476 -16.535   0.699  1.00  0.00     0.094 N
HETATM    2  C12 UNL     1       7.116 -15.252   0.069  1.00  0.00     0.293 C
HETATM    3  C13 UNL     1       8.161 -14.855  -0.939  1.00  0.00     0.157 C
HETATM    4  N5  UNL     1       9.390 -15.585  -0.783  1.00  0.00    -0.368 N
HETATM    5  C27 UNL     1       9.308 -16.990  -0.773  1.00  0.00     0.093 C
HETATM    6  C28 UNL     1       7.922 -17.427  -0.365  1.00  0.00     0.317 C
ENDROOT
BRANCH   4   7
HETATM    7  C14 UNL     1      10.519 -15.008  -1.397  1.00  0.00     0.089 C
BRANCH   7   8
HETATM    8  C15 UNL     1      11.038 -13.746  -0.760  1.00  0.00     0.220 C
BRANCH   8   9
HETATM    9  O1  UNL     1      10.814 -13.703   0.615  1.00  0.00    -0.344 OA
BRANCH   9  10
HETATM   10  C16 UNL     1      11.778 -13.629   1.593  1.00  0.00     0.096 A
HETATM   11  C17 UNL     1      13.016 -13.112   1.297  1.00  0.00     0.039 A
HETATM   12  C18 UNL     1      14.004 -13.029   2.285  1.00  0.00     0.004 A
HETATM   13  C19 UNL     1      13.702 -13.474   3.541  1.00  0.00     0.016 A
HETATM   14  C20 UNL     1      12.473 -13.999   3.878  1.00  0.00     0.021 A
HETATM   15  C21 UNL     1      12.181 -14.451   5.147  1.00  0.00     0.056 A
HETATM   16  C24 UNL     1      11.511 -14.068   2.871  1.00  0.00     0.079 A
HETATM   17  N6  UNL     1      13.021 -14.410   6.099  1.00  0.00    -0.397 N
HETATM   18  C22 UNL     1      10.929 -14.979   5.447  1.00  0.00     0.083 A
ATOM     19  H62 UNL     1      13.938 -14.022   5.878  1.00  0.00     0.156 HD
ATOM     20  H61 UNL     1      12.804 -14.744   7.038  1.00  0.00     0.156 HD
HETATM   21  C23 UNL     1      10.006 -15.033   4.438  1.00  0.00     0.045 A
HETATM   22  C26 UNL     1      10.361 -15.523   6.680  1.00  0.00     0.256 A
HETATM   23  N7  UNL     1      10.315 -14.588   3.214  1.00  0.00    -0.354 N
HETATM   24  C25 UNL     1       8.753 -15.629   4.970  1.00  0.00     0.181 A
ATOM     25  H7  UNL     1       9.597 -14.647   2.492  1.00  0.00     0.166 HD
HETATM   26  N8  UNL     1       9.033 -15.911   6.359  1.00  0.00    -0.351 N
ATOM     27  H8  UNL     1       8.373 -16.329   7.015  1.00  0.00     0.163 HD
HETATM   28  O2  UNL     1      10.912 -15.634   7.807  1.00  0.00    -0.267 OA
ENDBRANCH   9  10
ENDBRANCH   8   9
ENDBRANCH   7   8
ENDBRANCH   4   7
BRANCH   1  29
HETATM   29  C11 UNL     1       6.233 -17.024   1.322  1.00  0.00     0.273 C
BRANCH  29  30
HETATM   30  C10 UNL     1       5.052 -16.355   0.791  1.00  0.00     0.030 C
BRANCH  30  31
HETATM   31  C9  UNL     1       4.072 -17.182   0.051  1.00  0.00     0.003 C
BRANCH  31  32
HETATM   32  C8  UNL     1       3.796 -16.961  -1.357  1.00  0.00     0.020 C
BRANCH  32  33
HETATM   33  C7  UNL     1       4.790 -16.886  -2.430  1.00  0.00     0.130 C
BRANCH  33  34
HETATM   34  N3  UNL     1       4.999 -18.103  -3.182  1.00  0.00    -0.339 N
HETATM   35  C4  UNL     1       5.749 -18.185  -4.321  1.00  0.00     0.146 A
HETATM   36  N2  UNL     1       5.730 -19.447  -4.782  1.00  0.00    -0.348 N
HETATM   37  C5  UNL     1       4.979 -20.195  -3.965  1.00  0.00     0.107 A
ATOM     38  H2  UNL     1       6.209 -19.780  -5.619  1.00  0.00     0.167 HD
HETATM   39  C6  UNL     1       4.537 -19.338  -2.983  1.00  0.00     0.109 A
BRANCH  35  40
HETATM   40  C3  UNL     1       6.474 -17.130  -4.992  1.00  0.00     0.142 C
HETATM   41  S1  UNL     1       7.910 -16.657  -4.366  1.00  0.00    -0.057 SA
BRANCH  40  42
HETATM   42  N1  UNL     1       6.009 -16.496  -6.177  1.00  0.00    -0.378 N
HETATM   43  C1  UNL     1       4.674 -16.674  -6.718  1.00  0.00     0.150 C
HETATM   44  C2  UNL     1       6.890 -15.611  -6.919  1.00  0.00     0.150 C
ENDBRANCH  40  42
ENDBRANCH  35  40
ENDBRANCH  33  34
ENDBRANCH  32  33
ENDBRANCH  31  32
ENDBRANCH  30  31
ENDBRANCH  29  30
ENDBRANCH   1  29
TORSDOF 12
ENDMDL