MODEL 2
REMARK VINA RESULT: -8.046050535      2.839     10.215
REMARK  15 active torsions:
REMARK  status: ('A' for Active; 'I' for Inactive)
REMARK    1  A    between atoms: C2_2  and  N1_3
REMARK    2  A    between atoms: N1_3  and  C3_4
REMARK       I    between atoms: N1_3  and  C5_6
REMARK    3  A    between atoms: C5_6  and  C6_8
REMARK    4  A    between atoms: C6_8  and  S1_9
REMARK    5  A    between atoms: S1_9  and  C7_10
REMARK    6  A    between atoms: C9_14  and  N3_15
REMARK    7  A    between atoms: N3_15  and  C10_17
REMARK    8  A    between atoms: C10_17  and  N4_19
REMARK    9  A    between atoms: N4_19  and  C11_20
REMARK   10  A    between atoms: N4_19  and  C13_24
REMARK   11  A    between atoms: C11_20  and  C12_21
REMARK   12  A    between atoms: C12_21  and  O2_22
REMARK   13  A    between atoms: C13_24  and  C14_25
REMARK       I    between atoms: C14_25  and  N5_27
REMARK   14  A    between atoms: N5_27  and  C15_28
REMARK   15  A    between atoms: C21_34  and  N6_35
ROOT
HETATM    1  C7  UNL     1       7.746 -16.451  -3.920  1.00  0.00     0.146 A
HETATM    2  N2  UNL     1       8.906 -15.823  -3.848  1.00  0.00    -0.344 N
ATOM      3  H2  UNL     1       9.433 -15.689  -4.710  1.00  0.00     0.167 HD
HETATM    4  C8  UNL     1       9.426 -15.356  -2.723  1.00  0.00     0.123 A
HETATM    5  C9  UNL     1       8.712 -15.523  -1.474  1.00  0.00     0.094 A
HETATM    6  C21 UNL     1       7.525 -16.196  -1.626  1.00  0.00     0.134 A
HETATM    7  N7  UNL     1       7.064 -16.644  -2.833  1.00  0.00    -0.321 N
ATOM      8  H7  UNL     1       6.172 -17.136  -2.880  1.00  0.00     0.169 HD
ENDROOT
BRANCH   5   9
HETATM    9  N3  UNL     1       9.088 -15.130  -0.222  1.00  0.00    -0.329 N
ATOM     10  H3  UNL     1       8.433 -14.484   0.219  1.00  0.00     0.168 HD
BRANCH   9  11
HETATM   11  C10 UNL     1      10.226 -15.448   0.600  1.00  0.00     0.175 C
HETATM   12  S2  UNL     1      10.505 -16.869   1.276  1.00  0.00    -0.041 SA
BRANCH  11  13
HETATM   13  N4  UNL     1      11.162 -14.362   0.711  1.00  0.00    -0.346 N
BRANCH  13  14
HETATM   14  C11 UNL     1      12.309 -14.139  -0.054  1.00  0.00     0.151 C
BRANCH  14  15
HETATM   15  C12 UNL     1      12.031 -13.052  -1.109  1.00  0.00     0.183 C
BRANCH  15  16
HETATM   16  O2  UNL     1      13.164 -12.238  -1.162  1.00  0.00    -0.399 OA
ATOM     17  H2  UNL     1      12.919 -11.400  -0.788  1.00  0.00     0.209 HD
ENDBRANCH  15  16
ENDBRANCH  14  15
ENDBRANCH  13  14
BRANCH  13  18
HETATM   18  C13 UNL     1      10.748 -13.329   1.650  1.00  0.00     0.244 C
BRANCH  18  19
HETATM   19  C14 UNL     1      11.361 -13.849   3.141  1.00  0.00     0.304 C
HETATM   20  O3  UNL     1      12.521 -13.831   3.028  1.00  0.00    -0.256 OA
HETATM   21  N5  UNL     1      10.255 -14.063   3.770  1.00  0.00    -0.408 NA
BRANCH  21  22
HETATM   22  C15 UNL     1       9.054 -14.302   4.469  1.00  0.00     0.167 C
HETATM   23  C16 UNL     1       9.039 -15.755   4.887  1.00  0.00     0.039 C
HETATM   24  C17 UNL     1       9.529 -15.919   6.328  1.00  0.00     0.003 C
HETATM   25  C18 UNL     1      10.399 -14.838   6.869  1.00  0.00     0.000 C
HETATM   26  C19 UNL     1       9.840 -13.452   6.646  1.00  0.00     0.003 C
HETATM   27  C20 UNL     1       8.742 -13.450   5.635  1.00  0.00     0.039 C
ENDBRANCH  21  22
ENDBRANCH  18  19
ENDBRANCH  13  18
ENDBRANCH  11  13
ENDBRANCH   9  11
ENDBRANCH   5   9
BRANCH   6  28
HETATM   28  N6  UNL     1       6.731 -16.568  -0.491  1.00  0.00    -0.365 N
HETATM   29  C22 UNL     1       5.748 -15.968   0.295  1.00  0.00     0.124 C
HETATM   30  C23 UNL     1       4.723 -17.125   0.402  1.00  0.00     0.021 C
HETATM   31  C24 UNL     1       5.442 -18.363  -0.100  1.00  0.00     0.021 C
HETATM   32  C25 UNL     1       6.923 -17.945   0.021  1.00  0.00     0.124 C
ENDBRANCH   6  28
BRANCH   1  33
HETATM   33  S1  UNL     1       7.124 -17.045  -5.465  1.00  0.00    -0.085 SA
BRANCH  33  34
HETATM   34  C6  UNL     1       6.167 -18.557  -5.225  1.00  0.00     0.185 C
BRANCH  34  35
HETATM   35  C5  UNL     1       4.659 -18.204  -5.402  1.00  0.00     0.229 C
HETATM   36  N1  UNL     1       3.826 -18.708  -4.415  1.00  0.00    -0.352 N
HETATM   37  O1  UNL     1       4.405 -17.509  -6.380  1.00  0.00    -0.273 OA
BRANCH  36  38
HETATM   38  C2  UNL     1       2.361 -18.388  -4.526  1.00  0.00     0.121 C
HETATM   39  C1  UNL     1       2.129 -17.160  -3.688  1.00  0.00     0.026 C
ENDBRANCH  36  38
BRANCH  36  40
HETATM   40  C3  UNL     1       4.177 -19.468  -3.278  1.00  0.00     0.121 C
HETATM   41  C4  UNL     1       3.844 -20.926  -3.419  1.00  0.00     0.026 C
ENDBRANCH  36  40
ENDBRANCH  34  35
ENDBRANCH  33  34
ENDBRANCH   1  33
TORSDOF 15
ENDMDL