MODEL 5
REMARK VINA RESULT: -7.369526365      2.682      6.793
REMARK  13 active torsions:
REMARK  status: ('A' for Active; 'I' for Inactive)
REMARK    1  A    between atoms: C2_2  and  O1_3
REMARK    2  A    between atoms: O1_3  and  C3_4
REMARK    3  A    between atoms: C3_4  and  C4_6
REMARK    4  A    between atoms: C4_6  and  C5_7
REMARK    5  A    between atoms: C5_7  and  C6_8
REMARK    6  A    between atoms: C6_8  and  C7_9
REMARK    7  A    between atoms: C6_8  and  C21_36
REMARK       I    between atoms: C7_9  and  N1_11
REMARK    8  A    between atoms: N1_11  and  N2_13
REMARK    9  A    between atoms: C8_14  and  O4_15
REMARK   10  A    between atoms: C9_17  and  C10_18
REMARK   11  A    between atoms: C10_18  and  C11_19
REMARK       I    between atoms: C11_19  and  N3_21
REMARK   12  A    between atoms: C15_28  and  O6_29
REMARK   13  A    between atoms: C17_31  and  O7_32
ROOT
HETATM    1  N2  UNL     1      12.016 -13.881   4.408  1.00  0.00    -0.231 N
HETATM    2  C8  UNL     1      11.539 -14.841   5.308  1.00  0.00     0.161 C
HETATM    3  C9  UNL     1      10.227 -15.505   5.116  1.00  0.00     0.167 C
HETATM    4  N4  UNL     1       9.899 -15.596   3.737  1.00  0.00    -0.375 N
ATOM      5  H4  UNL     1       9.323 -16.374   3.415  1.00  0.00     0.160 HD
HETATM    6  C13 UNL     1      10.344 -14.645   2.802  1.00  0.00     0.060 A
HETATM    7  C14 UNL     1       9.703 -14.598   1.567  1.00  0.00     0.071 A
HETATM    8  C15 UNL     1      10.137 -13.663   0.637  1.00  0.00     0.103 A
HETATM    9  C17 UNL     1      11.184 -12.797   0.932  1.00  0.00     0.103 A
HETATM   10  C19 UNL     1      11.787 -12.882   2.169  1.00  0.00     0.073 A
HETATM   11  C20 UNL     1      11.382 -13.796   3.112  1.00  0.00     0.088 A
ENDROOT
BRANCH   1  12
HETATM   12  N1  UNL     1      13.031 -12.986   4.649  1.00  0.00    -0.260 N
HETATM   13  C7  UNL     1      13.254 -12.176   5.778  1.00  0.00     0.245 C
HETATM   14  O3  UNL     1      12.519 -12.144   6.802  1.00  0.00    -0.271 OA
ATOM     15  H1  UNL     1      13.720 -12.897   3.902  1.00  0.00     0.190 HD
BRANCH  13  16
HETATM   16  C6  UNL     1      14.478 -11.274   5.749  1.00  0.00     0.113 C
BRANCH  16  17
HETATM   17  C5  UNL     1      15.246 -11.651   4.530  1.00  0.00     0.028 C
BRANCH  17  18
HETATM   18  C4  UNL     1      16.577 -12.271   4.813  1.00  0.00     0.112 C
BRANCH  18  19
HETATM   19  C3  UNL     1      17.670 -11.336   5.075  1.00  0.00     0.258 C
HETATM   20  O2  UNL     1      18.489 -11.598   5.998  1.00  0.00    -0.265 OA
BRANCH  19  21
HETATM   21  O1  UNL     1      17.893 -10.161   4.386  1.00  0.00    -0.322 OA
BRANCH  21  22
HETATM   22  C2  UNL     1      17.614  -8.869   4.817  1.00  0.00     0.174 C
HETATM   23  C1  UNL     1      16.706  -8.103   3.885  1.00  0.00     0.034 C
ENDBRANCH  21  22
ENDBRANCH  19  21
ENDBRANCH  18  19
ENDBRANCH  17  18
ENDBRANCH  16  17
BRANCH  16  24
HETATM   24  C21 UNL     1      14.120  -9.866   5.839  1.00  0.00    -0.038 A
HETATM   25  C22 UNL     1      13.278  -9.342   4.879  1.00  0.00     0.015 A
HETATM   26  C23 UNL     1      12.902  -7.996   4.936  1.00  0.00    -0.061 A
HETATM   27  C24 UNL     1      11.989  -7.466   3.871  1.00  0.00     0.048 C
HETATM   28  C25 UNL     1      13.349  -7.178   5.921  1.00  0.00     0.014 A
HETATM   29  C26 UNL     1      14.182  -7.684   6.876  1.00  0.00    -0.055 A
HETATM   30  C27 UNL     1      14.672  -6.798   7.957  1.00  0.00     0.049 C
HETATM   31  C28 UNL     1      14.560  -9.023   6.828  1.00  0.00    -0.049 A
HETATM   32  C29 UNL     1      15.459  -9.509   7.877  1.00  0.00     0.049 C
ENDBRANCH  16  24
ENDBRANCH  13  16
ENDBRANCH   1  12
BRANCH   2  33
HETATM   33  O4  UNL     1      12.244 -15.176   6.349  1.00  0.00    -0.346 OA
ATOM     34  H4  UNL     1      11.871 -15.122   7.221  1.00  0.00     0.219 HD
ENDBRANCH   2  33
BRANCH   3  35
HETATM   35  C10 UNL     1       9.168 -14.863   5.989  1.00  0.00     0.136 C
BRANCH  35  36
HETATM   36  C11 UNL     1       9.442 -14.902   7.424  1.00  0.00     0.219 C
HETATM   37  O5  UNL     1       9.031 -15.845   8.136  1.00  0.00    -0.274 OA
HETATM   38  N3  UNL     1      10.186 -13.884   8.101  1.00  0.00    -0.365 N
HETATM   39  C12 UNL     1      10.471 -13.919   9.508  1.00  0.00     0.149 C
ATOM     40  H3  UNL     1      10.532 -13.094   7.556  1.00  0.00     0.161 HD
ENDBRANCH  35  36
ENDBRANCH   3  35
BRANCH   9  41
HETATM   41  O7  UNL     1      11.620 -11.871   0.020  1.00  0.00    -0.353 OA
HETATM   42  C18 UNL     1      12.841 -12.081  -0.657  1.00  0.00     0.210 C
ENDBRANCH   9  41
BRANCH   8  43
HETATM   43  O6  UNL     1       9.557 -13.555  -0.600  1.00  0.00    -0.353 OA
HETATM   44  C16 UNL     1       9.746 -14.425  -1.688  1.00  0.00     0.210 C
ENDBRANCH   8  43
TORSDOF 13
ENDMDL