MODEL 1
REMARK VINA RESULT: -8.482172321      0.000      0.000
REMARK  12 active torsions:
REMARK  status: ('A' for Active; 'I' for Inactive)
REMARK    1  A    between atoms: O1_2  and  C2_3
REMARK    2  A    between atoms: C2_3  and  C3_5
REMARK    3  A    between atoms: C3_5  and  C4_6
REMARK    4  A    between atoms: C4_6  and  C5_7
REMARK    5  A    between atoms: C5_7  and  C6_8
REMARK    6  A    between atoms: C6_8  and  C7_9
REMARK    7  A    between atoms: C7_9  and  N1_10
REMARK    8  A    between atoms: N1_10  and  C8_12
REMARK    9  A    between atoms: C16_24  and  O3_25
REMARK   10  A    between atoms: N5_32  and  C21_34
REMARK   11  A    between atoms: C21_34  and  C22_35
REMARK   12  A    between atoms: C22_35  and  N6_36
ROOT
HETATM    1  C8  UNL     1       9.344 -15.324   4.988  1.00  0.00     0.694 A
HETATM    2  N2  UNL     1       8.692 -15.576   3.821  1.00  0.00    -0.175 N
ATOM      3  H2  UNL     1       7.896 -16.215   3.843  1.00  0.00     0.186 HD
HETATM    4  C9  UNL     1       9.039 -15.029   2.631  1.00  0.00     0.147 A
HETATM    5  C10 UNL     1       8.257 -15.263   1.436  1.00  0.00     0.023 A
HETATM    6  C11 UNL     1       6.978 -15.783   1.618  1.00  0.00     0.033 A
HETATM    7  C12 UNL     1       6.124 -16.085   0.582  1.00  0.00     0.089 A
HETATM    8  N3  UNL     1       6.555 -15.862  -0.651  1.00  0.00    -0.365 N
ATOM      9  H3  UNL     1       5.936 -16.077  -1.433  1.00  0.00     0.165 HD
HETATM   10  C13 UNL     1       7.767 -15.367  -0.908  1.00  0.00     0.043 A
HETATM   11  C14 UNL     1       8.192 -15.161  -2.201  1.00  0.00     0.033 A
HETATM   12  C15 UNL     1       9.436 -14.668  -2.488  1.00  0.00     0.039 A
HETATM   13  C16 UNL     1      10.281 -14.374  -1.455  1.00  0.00     0.069 A
HETATM   14  C18 UNL     1       9.899 -14.565  -0.120  1.00  0.00     0.051 A
HETATM   15  C19 UNL     1       8.640 -15.060   0.138  1.00  0.00     0.007 A
HETATM   16  N4  UNL     1      10.082 -14.209   2.687  1.00  0.00    -0.175 N
ATOM     17  H4  UNL     1      10.383 -13.770   1.817  1.00  0.00     0.186 HD
HETATM   18  C20 UNL     1      10.769 -13.915   3.794  1.00  0.00     0.694 A
HETATM   19  N5  UNL     1      11.770 -13.125   3.766  1.00  0.00    -0.224 N
ATOM     20  H5  UNL     1      12.227 -12.963   4.663  1.00  0.00     0.177 HD
HETATM   21  N9  UNL     1      10.378 -14.496   4.978  1.00  0.00    -0.022 N
ATOM     22  H9  UNL     1      10.881 -14.290   5.841  1.00  0.00     0.203 HD
ENDROOT
BRANCH  19  23
HETATM   23  C21 UNL     1      12.337 -12.438   2.655  1.00  0.00     0.157 C
BRANCH  23  24
HETATM   24  C22 UNL     1      12.795 -11.016   2.988  1.00  0.00     0.141 C
BRANCH  24  25
HETATM   25  N6  UNL     1      13.499 -11.085   4.224  1.00  0.00    -0.374 N
HETATM   26  C23 UNL     1      13.477 -10.180   5.144  1.00  0.00     0.113 C
HETATM   27  C24 UNL     1      14.345 -10.594   6.318  1.00  0.00     0.133 C
HETATM   28  N8  UNL     1      12.643  -9.054   4.795  1.00  0.00    -0.366 N
HETATM   29  N7  UNL     1      15.169  -9.603   6.849  1.00  0.00    -0.390 N
HETATM   30  C25 UNL     1      16.583  -9.923   6.784  1.00  0.00     0.149 C
HETATM   31  C26 UNL     1      14.902  -8.824   7.993  1.00  0.00     0.133 C
HETATM   32  C27 UNL     1      14.181  -7.457   7.670  1.00  0.00     0.101 C
HETATM   33  C28 UNL     1      13.412  -7.714   6.542  1.00  0.00    -0.162 C
HETATM   34  C29 UNL     1      12.560  -7.675   5.413  1.00  0.00     0.201 C
ATOM     35  H8  UNL     1      12.012  -9.212   4.010  1.00  0.00     0.162 HD
ATOM     36  H6  UNL     1      14.065 -11.916   4.396  1.00  0.00     0.161 HD
ENDBRANCH  24  25
ENDBRANCH  23  24
ENDBRANCH  19  23
BRANCH   1  37
HETATM   37  N1  UNL     1       8.949 -15.902   6.070  1.00  0.00    -0.226 N
ATOM     38  H1  UNL     1       8.011 -16.299   6.122  1.00  0.00     0.177 HD
BRANCH  37  39
HETATM   39  C7  UNL     1       9.841 -15.990   7.226  1.00  0.00     0.138 C
BRANCH  39  40
HETATM   40  C6  UNL     1       9.155 -15.533   8.467  1.00  0.00     0.020 C
BRANCH  40  41
HETATM   41  C5  UNL     1       9.931 -14.765   9.457  1.00  0.00     0.002 C
BRANCH  41  42
HETATM   42  C4  UNL     1      11.157 -14.042   9.106  1.00  0.00     0.010 C
BRANCH  42  43
HETATM   43  C3  UNL     1      11.295 -12.597   9.344  1.00  0.00     0.111 C
BRANCH  43  44
HETATM   44  C2  UNL     1      11.304 -11.882   7.990  1.00  0.00     0.258 C
HETATM   45  O2  UNL     1      11.421 -12.579   6.964  1.00  0.00    -0.265 OA
BRANCH  44  46
HETATM   46  O1  UNL     1      11.187 -10.527   7.900  1.00  0.00    -0.326 OA
HETATM   47  C1  UNL     1      11.451  -9.721   9.054  1.00  0.00     0.213 C
ENDBRANCH  44  46
ENDBRANCH  43  44
ENDBRANCH  42  43
ENDBRANCH  41  42
ENDBRANCH  40  41
ENDBRANCH  39  40
ENDBRANCH  37  39
ENDBRANCH   1  37
BRANCH  13  48
HETATM   48  O3  UNL     1      11.560 -13.870  -1.699  1.00  0.00    -0.356 OA
HETATM   49  C17 UNL     1      11.987 -12.727  -0.971  1.00  0.00     0.210 C
ENDBRANCH  13  48
TORSDOF 12
ENDMDL