MODEL 1
REMARK VINA RESULT: -8.434733910      0.000      0.000
REMARK  13 active torsions:
REMARK  status: ('A' for Active; 'I' for Inactive)
REMARK    1  A    between atoms: C2_2  and  C3_3
REMARK    2  A    between atoms: C3_3  and  O1_4
REMARK    3  A    between atoms: O1_4  and  C4_5
REMARK    4  A    between atoms: C6_9  and  N2_10
REMARK       I    between atoms: N3_13  and  C9_14
REMARK    5  A    between atoms: C9_14  and  C10_16
REMARK    6  A    between atoms: C10_16  and  C11_17
REMARK    7  A    between atoms: C10_16  and  N4_23
REMARK    8  A    between atoms: C11_17  and  C12_18
REMARK    9  A    between atoms: C12_18  and  C13_19
REMARK       I    between atoms: N4_23  and  C17_25
REMARK   10  A    between atoms: C17_25  and  C18_27
REMARK   11  A    between atoms: C18_27  and  N5_28
REMARK       I    between atoms: N5_28  and  C19_30
REMARK   12  A    between atoms: C19_30  and  O5_32
REMARK   13  A    between atoms: O5_32  and  C20_33
ROOT
HETATM    1  C10 UNL     1       8.621 -15.677  -2.268  1.00  0.00     0.176 C
ENDROOT
BRANCH   1   2
HETATM    2  C9  UNL     1       9.768 -15.310  -1.439  1.00  0.00     0.242 C
HETATM    3  N3  UNL     1       9.751 -14.418  -0.333  1.00  0.00    -0.347 N
HETATM    4  C8  UNL     1      11.010 -14.081   0.328  1.00  0.00     0.146 C
HETATM    5  C25 UNL     1       8.536 -13.835   0.226  1.00  0.00     0.146 C
HETATM    6  C7  UNL     1      10.756 -13.315   1.612  1.00  0.00     0.161 C
HETATM    7  N2  UNL     1       9.724 -14.046   2.320  1.00  0.00    -0.214 N
HETATM    8  C26 UNL     1       8.463 -14.303   1.679  1.00  0.00     0.161 C
HETATM    9  O2  UNL     1      10.894 -15.844  -1.744  1.00  0.00    -0.271 OA
BRANCH   7  10
HETATM   10  C6  UNL     1       9.970 -14.508   3.635  1.00  0.00     0.680 A
HETATM   11  N1  UNL     1       8.990 -15.096   4.369  1.00  0.00    -0.199 N
HETATM   12  C5  UNL     1       9.203 -15.530   5.613  1.00  0.00     0.144 A
ATOM     13  H1  UNL     1       8.063 -15.208   3.958  1.00  0.00     0.183 HD
HETATM   14  C4  UNL     1      10.455 -15.404   6.228  1.00  0.00     0.100 A
HETATM   15  C27 UNL     1      11.414 -14.805   5.448  1.00  0.00     0.144 A
HETATM   16  N7  UNL     1      11.176 -14.376   4.201  1.00  0.00    -0.199 N
ATOM     17  H7  UNL     1      11.930 -13.938   3.671  1.00  0.00     0.183 HD
BRANCH  14  18
HETATM   18  O1  UNL     1      10.577 -15.868   7.486  1.00  0.00    -0.348 OA
BRANCH  18  19
HETATM   19  C3  UNL     1      10.128 -15.485   8.717  1.00  0.00     0.175 C
BRANCH  19  20
HETATM   20  C2  UNL     1      10.313 -14.031   9.054  1.00  0.00     0.022 C
HETATM   21  C1  UNL     1      11.771 -13.750   9.367  1.00  0.00     0.007 C
ENDBRANCH  19  20
ENDBRANCH  18  19
ENDBRANCH  14  18
ENDBRANCH   7  10
ENDBRANCH   1   2
BRANCH   1  22
HETATM   22  C11 UNL     1       9.131 -16.359  -3.579  1.00  0.00     0.035 C
BRANCH  22  23
HETATM   23  C12 UNL     1       8.957 -15.369  -4.682  1.00  0.00     0.011 C
BRANCH  23  24
HETATM   24  C13 UNL     1       8.147 -15.919  -5.829  1.00  0.00    -0.051 C
HETATM   25  C14 UNL     1       8.956 -16.118  -7.088  1.00  0.00     0.014 C
HETATM   26  C15 UNL     1       7.091 -14.870  -6.173  1.00  0.00     0.014 C
HETATM   27  C16 UNL     1       7.418 -17.188  -5.454  1.00  0.00     0.014 C
ENDBRANCH  23  24
ENDBRANCH  22  23
ENDBRANCH   1  22
BRANCH   1  28
HETATM   28  N4  UNL     1       7.790 -16.689  -1.583  1.00  0.00    -0.344 N
HETATM   29  C17 UNL     1       6.409 -16.768  -1.784  1.00  0.00     0.275 C
HETATM   30  O3  UNL     1       5.884 -15.962  -2.572  1.00  0.00    -0.269 OA
ATOM     31  H4  UNL     1       8.238 -17.348  -0.946  1.00  0.00     0.163 HD
BRANCH  29  32
HETATM   32  C18 UNL     1       5.603 -17.779  -1.086  1.00  0.00     0.282 C
HETATM   33  C22 UNL     1       6.080 -18.118   0.288  1.00  0.00     0.074 C
HETATM   34  C23 UNL     1       5.470 -17.102   1.200  1.00  0.00     0.032 C
HETATM   35  C24 UNL     1       4.591 -16.268   0.277  1.00  0.00     0.236 C
HETATM   36  N6  UNL     1       4.297 -17.139  -0.837  1.00  0.00    -0.039 N
ATOM     37  H62 UNL     1       3.883 -16.677  -1.647  1.00  0.00     0.280 HD
ATOM     38  H61 UNL     1       3.522 -17.784  -0.685  1.00  0.00     0.280 HD
BRANCH  32  39
HETATM   39  N5  UNL     1       5.366 -18.991  -1.856  1.00  0.00    -0.296 N
HETATM   40  C19 UNL     1       4.473 -19.147  -2.908  1.00  0.00     0.362 C
HETATM   41  O4  UNL     1       3.724 -18.246  -3.347  1.00  0.00    -0.238 OA
ATOM     42  H5  UNL     1       5.913 -19.812  -1.597  1.00  0.00     0.167 HD
BRANCH  40  43
HETATM   43  O5  UNL     1       4.394 -20.411  -3.535  1.00  0.00    -0.304 OA
BRANCH  43  44
HETATM   44  C20 UNL     1       3.657 -20.509  -4.723  1.00  0.00     0.176 C
HETATM   45  C21 UNL     1       2.286 -21.037  -4.440  1.00  0.00     0.034 C
ENDBRANCH  43  44
ENDBRANCH  40  43
ENDBRANCH  32  39
ENDBRANCH  29  32
ENDBRANCH   1  28
TORSDOF 13
ENDMDL