MODEL 1
REMARK VINA RESULT: -9.188299222      0.000      0.000
REMARK  15 active torsions:
REMARK  status: ('A' for Active; 'I' for Inactive)
REMARK    1  A    between atoms: C3_5  and  N2_6
REMARK    2  A    between atoms: N2_6  and  C4_8
REMARK    3  A    between atoms: C9_16  and  N4_17
REMARK    4  A    between atoms: N4_17  and  C10_19
REMARK    5  A    between atoms: C12_21  and  C13_22
REMARK    6  A    between atoms: C16_29  and  C17_30
REMARK    7  A    between atoms: C17_30  and  O2_31
REMARK    8  A    between atoms: C17_30  and  N7_33
REMARK    9  A    between atoms: N7_33  and  C18_35
REMARK   10  A    between atoms: C18_35  and  C19_36
REMARK   11  A    between atoms: C19_36  and  C20_37
REMARK   12  A    between atoms: C20_37  and  N8_38
REMARK   13  A    between atoms: C23_41  and  O3_42
REMARK   14  A    between atoms: O3_42  and  C24_43
REMARK   15  A    between atoms: C24_43  and  C25_44
ROOT
HETATM    1  C25 UNL     1       4.345 -17.117  -7.891  1.00  0.00     0.150 C
HETATM    2  C26 UNL     1       3.659 -15.849  -7.859  1.00  0.00     0.061 C
HETATM    3  N9  UNL     1       3.113 -14.827  -7.826  1.00  0.00    -0.197 NA
ENDROOT
BRANCH   1   4
HETATM    4  C24 UNL     1       5.813 -17.042  -7.662  1.00  0.00     0.182 C
BRANCH   4   5
HETATM    5  O3  UNL     1       6.338 -15.798  -7.418  1.00  0.00    -0.385 OA
BRANCH   5   6
HETATM    6  C23 UNL     1       6.973 -15.717  -6.213  1.00  0.00     0.127 C
HETATM    7  C22 UNL     1       8.302 -16.466  -6.208  1.00  0.00     0.076 C
HETATM    8  C21 UNL     1       9.376 -15.794  -5.438  1.00  0.00     0.060 C
HETATM    9  N8  UNL     1       9.004 -15.084  -4.280  1.00  0.00    -0.393 N
HETATM   10  C28 UNL     1       7.689 -14.506  -4.264  1.00  0.00     0.124 C
HETATM   11  C27 UNL     1       7.271 -14.322  -5.721  1.00  0.00     0.052 C
BRANCH   9  12
HETATM   12  C20 UNL     1       9.365 -15.703  -3.027  1.00  0.00     0.123 C
BRANCH  12  13
HETATM   13  C19 UNL     1       9.243 -14.777  -1.868  1.00  0.00     0.039 C
BRANCH  13  14
HETATM   14  C18 UNL     1      10.566 -14.177  -1.454  1.00  0.00     0.123 C
BRANCH  14  15
HETATM   15  N7  UNL     1      11.443 -15.245  -0.941  1.00  0.00    -0.370 N
ATOM     16  H7  UNL     1      11.863 -15.915  -1.585  1.00  0.00     0.161 HD
BRANCH  15  17
HETATM   17  C17 UNL     1      11.694 -15.336   0.422  1.00  0.00     0.152 C
BRANCH  17  18
HETATM   18  C16 UNL     1      10.981 -14.853   1.567  1.00  0.00     0.082 A
HETATM   19  C2  UNL     1      11.160 -13.625   2.148  1.00  0.00     0.041 A
HETATM   20  C1  UNL     1      12.056 -12.616   1.535  1.00  0.00     0.070 C
HETATM   21  N1  UNL     1      10.472 -13.286   3.288  1.00  0.00    -0.195 N
HETATM   22  C3  UNL     1       9.605 -14.106   3.889  1.00  0.00     0.680 A
ATOM     23  H1  UNL     1      10.632 -12.365   3.696  1.00  0.00     0.184 HD
HETATM   24  N3  UNL     1       9.426 -15.300   3.326  1.00  0.00    -0.176 N
HETATM   25  C9  UNL     1      10.073 -15.678   2.215  1.00  0.00     0.139 A
ATOM     26  H3  UNL     1       8.770 -15.952   3.757  1.00  0.00     0.186 HD
BRANCH  22  27
HETATM   27  N2  UNL     1       8.980 -13.755   4.963  1.00  0.00    -0.221 N
ATOM     28  H2  UNL     1       8.061 -13.332   4.832  1.00  0.00     0.178 HD
BRANCH  27  29
HETATM   29  C4  UNL     1       9.423 -13.890   6.309  1.00  0.00     0.103 C
HETATM   30  C5  UNL     1      10.925 -13.923   6.480  1.00  0.00     0.052 C
HETATM   31  C6  UNL     1      11.220 -14.401   7.902  1.00  0.00     0.169 C
HETATM   32  O1  UNL     1      10.090 -14.397   8.698  1.00  0.00    -0.391 OA
HETATM   33  C7  UNL     1       9.295 -15.458   8.268  1.00  0.00     0.169 C
HETATM   34  C8  UNL     1       8.892 -15.232   6.851  1.00  0.00     0.052 C
ENDBRANCH  27  29
ENDBRANCH  22  27
BRANCH  25  35
HETATM   35  N4  UNL     1       9.759 -16.964   1.730  1.00  0.00    -0.326 N
ATOM     36  H4  UNL     1      10.304 -17.768   2.043  1.00  0.00     0.169 HD
BRANCH  35  37
HETATM   37  C10 UNL     1       8.771 -17.139   0.878  1.00  0.00     0.123 A
HETATM   38  C11 UNL     1       7.553 -16.539   0.994  1.00  0.00     0.076 A
HETATM   39  C12 UNL     1       6.772 -16.990  -0.056  1.00  0.00     0.033 A
HETATM   40  N5  UNL     1       7.526 -17.838  -0.770  1.00  0.00    -0.303 N
HETATM   41  N6  UNL     1       8.711 -17.915  -0.201  1.00  0.00    -0.285 N
ATOM     42  H5  UNL     1       7.232 -18.337  -1.609  1.00  0.00     0.186 HD
ATOM     43  H6  UNL     1       9.480 -18.493  -0.542  1.00  0.00     0.188 HD
BRANCH  39  44
HETATM   44  C13 UNL     1       5.363 -16.616  -0.379  1.00  0.00     0.037 A
HETATM   45  C14 UNL     1       4.479 -16.270   0.776  1.00  0.00     0.011 A
HETATM   46  C15 UNL     1       4.290 -17.570   0.087  1.00  0.00     0.011 A
ENDBRANCH  39  44
ENDBRANCH  35  37
ENDBRANCH  25  35
ENDBRANCH  17  18
BRANCH  17  47
HETATM   47  O2  UNL     1      12.788 -15.984   0.702  1.00  0.00    -0.346 OA
ATOM     48  H2  UNL     1      13.424 -16.005  -0.003  1.00  0.00     0.219 HD
ENDBRANCH  17  47
ENDBRANCH  15  17
ENDBRANCH  14  15
ENDBRANCH  13  14
ENDBRANCH  12  13
ENDBRANCH   9  12
ENDBRANCH   5   6
ENDBRANCH   4   5
ENDBRANCH   1   4
TORSDOF 15
ENDMDL