MODEL 4
REMARK VINA RESULT: -8.390115841      2.477      4.720
REMARK  12 active torsions:
REMARK  status: ('A' for Active; 'I' for Inactive)
REMARK       I    between atoms: C1_2  and  N1_3
REMARK    1  A    between atoms: C1_2  and  C8_11
REMARK    2  A    between atoms: N1_3  and  C2_4
REMARK    3  A    between atoms: C2_4  and  C3_5
REMARK    4  A    between atoms: C3_5  and  N2_6
REMARK    5  A    between atoms: C9_12  and  N3_13
REMARK    6  A    between atoms: N3_13  and  C10_15
REMARK    7  A    between atoms: C10_15  and  C11_16
REMARK    8  A    between atoms: C10_15  and  C19_29
REMARK       I    between atoms: C11_16  and  N4_18
REMARK    9  A    between atoms: N4_18  and  C12_20
REMARK   10  A    between atoms: C12_20  and  C13_21
REMARK   11  A    between atoms: C13_21  and  C14_22
REMARK   12  A    between atoms: C14_22  and  N5_23
ROOT
HETATM    1  C10 UNL     1       8.941 -14.523   2.284  1.00  0.00     0.209 C
ENDROOT
BRANCH   1   2
HETATM    2  N3  UNL     1       9.350 -15.171   3.449  1.00  0.00    -0.366 N
ATOM      3  H3  UNL     1       9.425 -16.165   3.233  1.00  0.00     0.161 HD
BRANCH   2   4
HETATM    4  C9  UNL     1       9.696 -15.009   4.778  1.00  0.00     0.088 A
HETATM    5  C8  UNL     1      10.733 -14.812   5.651  1.00  0.00     0.087 A
HETATM    6  C25 UNL     1      10.501 -14.957   6.959  1.00  0.00    -0.025 A
HETATM    7  C24 UNL     1       9.266 -15.293   7.367  1.00  0.00    -0.008 A
HETATM    8  C26 UNL     1      11.271 -14.780   8.264  1.00  0.00     0.041 C
HETATM    9  S1  UNL     1       8.381 -15.411   5.978  1.00  0.00    -0.076 SA
HETATM   10  C28 UNL     1       9.146 -15.487   8.862  1.00  0.00     0.047 C
HETATM   11  C27 UNL     1      10.186 -14.531   9.313  1.00  0.00     0.010 C
BRANCH   5  12
HETATM   12  C1  UNL     1      12.077 -14.470   5.050  1.00  0.00     0.324 C
HETATM   13  O1  UNL     1      13.030 -15.166   5.585  1.00  0.00    -0.251 OA
HETATM   14  N1  UNL     1      12.248 -13.582   4.111  1.00  0.00    -0.409 NA
BRANCH  14  15
HETATM   15  C2  UNL     1      12.437 -12.620   3.092  1.00  0.00     0.242 C
BRANCH  15  16
HETATM   16  C3  UNL     1      13.742 -11.806   3.277  1.00  0.00     0.155 C
BRANCH  16  17
HETATM   17  N2  UNL     1      13.558 -10.834   4.254  1.00  0.00    -0.391 N
HETATM   18  C4  UNL     1      13.278  -9.487   3.781  1.00  0.00     0.122 C
HETATM   19  C5  UNL     1      14.554  -8.698   4.112  1.00  0.00     0.025 C
HETATM   20  C6  UNL     1      15.343  -9.571   5.059  1.00  0.00     0.046 C
HETATM   21  C7  UNL     1      14.386 -10.718   5.376  1.00  0.00     0.058 C
ENDBRANCH  16  17
ENDBRANCH  15  16
ENDBRANCH  14  15
ENDBRANCH   5  12
ENDBRANCH   2   4
ENDBRANCH   1   2
BRANCH   1  22
HETATM   22  C11 UNL     1       7.799 -15.233   1.579  1.00  0.00     0.245 C
HETATM   23  O2  UNL     1       7.068 -14.491   0.905  1.00  0.00    -0.271 OA
HETATM   24  N4  UNL     1       7.582 -16.620   1.682  1.00  0.00    -0.359 N
ATOM     25  H4  UNL     1       8.261 -17.102   2.271  1.00  0.00     0.162 HD
BRANCH  24  26
HETATM   26  C12 UNL     1       6.603 -17.469   1.126  1.00  0.00     0.124 C
BRANCH  26  27
HETATM   27  C13 UNL     1       6.882 -18.059  -0.194  1.00  0.00     0.050 C
BRANCH  27  28
HETATM   28  C14 UNL     1       6.389 -17.442  -1.428  1.00  0.00     0.274 C
BRANCH  28  29
HETATM   29  N5  UNL     1       7.313 -16.358  -1.867  1.00  0.00     0.092 N
HETATM   30  C15 UNL     1       6.973 -16.114  -3.272  1.00  0.00     0.298 C
HETATM   31  C16 UNL     1       7.928 -15.087  -3.861  1.00  0.00     0.198 C
HETATM   32  O3  UNL     1       9.074 -14.963  -3.068  1.00  0.00    -0.388 OA
HETATM   33  C17 UNL     1       9.584 -16.205  -2.745  1.00  0.00     0.198 C
HETATM   34  C18 UNL     1       8.664 -16.901  -1.798  1.00  0.00     0.298 C
ENDBRANCH  28  29
ENDBRANCH  27  28
ENDBRANCH  26  27
ENDBRANCH  24  26
ENDBRANCH   1  22
BRANCH   1  35
HETATM   35  C19 UNL     1      10.100 -14.613   1.292  1.00  0.00    -0.011 A
HETATM   36  C20 UNL     1      10.205 -13.630   0.351  1.00  0.00     0.012 A
HETATM   37  C21 UNL     1      11.254 -13.717  -0.533  1.00  0.00     0.018 A
HETATM   38  C22 UNL     1      12.133 -14.780  -0.418  1.00  0.00     0.087 A
HETATM   39  N6  UNL     1      12.026 -15.737   0.504  1.00  0.00    -0.375 N
HETATM   40  C23 UNL     1      10.976 -15.648   1.381  1.00  0.00     0.097 A
ATOM     41  H6  UNL     1      12.698 -16.504   0.554  1.00  0.00     0.164 HD
ENDBRANCH   1  35
TORSDOF 12
ENDMDL