MODEL 2
REMARK VINA RESULT: -8.626807636      2.272      8.828
REMARK  14 active torsions:
REMARK  status: ('A' for Active; 'I' for Inactive)
REMARK    1  A    between atoms: C2_2  and  O1_3
REMARK    2  A    between atoms: O1_3  and  C3_4
REMARK       I    between atoms: C3_4  and  N1_6
REMARK       I    between atoms: N2_9  and  C6_10
REMARK    3  A    between atoms: C6_10  and  C7_12
REMARK    4  A    between atoms: C7_12  and  C8_13
REMARK    5  A    between atoms: C8_13  and  C9_14
REMARK    6  A    between atoms: C9_14  and  C10_15
REMARK    7  A    between atoms: C10_15  and  C11_16
REMARK    8  A    between atoms: C11_16  and  C12_17
REMARK    9  A    between atoms: C12_17  and  C13_18
REMARK   10  A    between atoms: C13_18  and  C14_19
REMARK       I    between atoms: C14_19  and  N3_21
REMARK   11  A    between atoms: N3_21  and  C15_23
REMARK   12  A    between atoms: C24_34  and  C25_35
REMARK   13  A    between atoms: C25_35  and  O6_36
REMARK   14  A    between atoms: N5_38  and  O7_40
ROOT
HETATM    1  C14 UNL     1       7.916 -14.880  -1.514  1.00  0.00     0.217 C
HETATM    2  O4  UNL     1       8.217 -13.687  -1.682  1.00  0.00    -0.274 OA
HETATM    3  N3  UNL     1       8.021 -15.441  -0.223  1.00  0.00    -0.356 N
ATOM      4  H3  UNL     1       7.764 -16.423  -0.120  1.00  0.00     0.162 HD
ENDROOT
BRANCH   1   5
HETATM    5  C13 UNL     1       7.459 -15.699  -2.638  1.00  0.00     0.103 C
BRANCH   5   6
HETATM    6  C12 UNL     1       8.619 -15.787  -3.648  1.00  0.00     0.009 C
BRANCH   6   7
HETATM    7  C11 UNL     1       8.240 -15.113  -4.939  1.00  0.00     0.000 C
BRANCH   7   8
HETATM    8  C10 UNL     1       9.233 -15.478  -6.003  1.00  0.00     0.000 C
BRANCH   8   9
HETATM    9  C9  UNL     1       8.607 -16.168  -7.163  1.00  0.00     0.000 C
BRANCH   9  10
HETATM   10  C8  UNL     1       7.137 -15.788  -7.323  1.00  0.00     0.009 C
BRANCH  10  11
HETATM   11  C7  UNL     1       6.268 -16.997  -7.514  1.00  0.00     0.103 C
BRANCH  11  12
HETATM   12  C6  UNL     1       4.951 -16.850  -6.874  1.00  0.00     0.219 C
HETATM   13  N2  UNL     1       4.736 -17.411  -5.588  1.00  0.00    -0.349 N
HETATM   14  C5  UNL     1       3.439 -17.268  -4.949  1.00  0.00     0.145 C
HETATM   15  C26 UNL     1       5.794 -18.135  -4.886  1.00  0.00     0.145 C
HETATM   16  C4  UNL     1       3.682 -17.012  -3.473  1.00  0.00     0.148 C
HETATM   17  N1  UNL     1       4.448 -18.067  -2.888  1.00  0.00    -0.325 N
HETATM   18  C3  UNL     1       4.522 -18.258  -1.484  1.00  0.00     0.362 C
HETATM   19  C27 UNL     1       5.168 -18.962  -3.770  1.00  0.00     0.148 C
HETATM   20  O2  UNL     1       5.207 -19.197  -1.003  1.00  0.00    -0.238 OA
HETATM   21  O3  UNL     1       4.053 -16.233  -7.478  1.00  0.00    -0.273 OA
BRANCH  18  22
HETATM   22  O1  UNL     1       3.864 -17.442  -0.585  1.00  0.00    -0.304 OA
BRANCH  22  23
HETATM   23  C2  UNL     1       4.568 -16.404   0.094  1.00  0.00     0.176 C
HETATM   24  C1  UNL     1       4.857 -16.938   1.491  1.00  0.00     0.034 C
ENDBRANCH  22  23
ENDBRANCH  18  22
ENDBRANCH  11  12
ENDBRANCH  10  11
ENDBRANCH   9  10
ENDBRANCH   8   9
ENDBRANCH   7   8
ENDBRANCH   6   7
ENDBRANCH   5   6
ENDBRANCH   1   5
BRANCH   3  25
HETATM   25  C15 UNL     1       8.449 -14.763   0.937  1.00  0.00     0.097 C
HETATM   26  C16 UNL     1       8.020 -15.308   2.255  1.00  0.00     0.032 C
HETATM   27  C17 UNL     1       8.828 -14.458   3.228  1.00  0.00     0.013 C
HETATM   28  C18 UNL     1       9.901 -13.763   2.406  1.00  0.00     0.006 C
HETATM   29  C23 UNL     1       9.545 -15.265   4.260  1.00  0.00     0.096 C
HETATM   30  C19 UNL     1      11.131 -13.736   3.205  1.00  0.00     0.014 C
HETATM   31  C24 UNL     1       9.927 -14.538   1.107  1.00  0.00     0.089 C
HETATM   32  C20 UNL     1      10.903 -14.664   4.382  1.00  0.00     0.032 C
HETATM   33  C21 UNL     1      10.845 -13.938   5.703  1.00  0.00     0.200 C
HETATM   34  O5  UNL     1       9.513 -13.973   6.110  1.00  0.00    -0.303 OA
HETATM   35  N4  UNL     1       8.964 -15.059   5.573  1.00  0.00    -0.196 NA
HETATM   36  C22 UNL     1       9.257 -16.260   6.360  1.00  0.00     0.144 C
BRANCH  31  37
HETATM   37  C25 UNL     1      10.744 -15.740   1.114  1.00  0.00     0.141 C
HETATM   38  N5  UNL     1      10.321 -16.956   1.159  1.00  0.00    -0.251 N
ATOM     39  H5  UNL     1       9.312 -17.104   1.194  1.00  0.00     0.196 HD
BRANCH  37  40
HETATM   40  O6  UNL     1      12.150 -15.626   1.068  1.00  0.00    -0.348 OA
ATOM     41  H6  UNL     1      12.667 -16.334   0.701  1.00  0.00     0.219 HD
ENDBRANCH  37  40
BRANCH  38  42
HETATM   42  O7  UNL     1      11.116 -18.052   1.163  1.00  0.00    -0.288 OA
ATOM     43  H7  UNL     1      10.858 -18.911   0.850  1.00  0.00     0.244 HD
ENDBRANCH  38  42
ENDBRANCH  31  37
ENDBRANCH   3  25
TORSDOF 14
ENDMDL