MODEL 1
REMARK VINA RESULT: -7.890149687      0.000      0.000
REMARK  11 active torsions:
REMARK  status: ('A' for Active; 'I' for Inactive)
REMARK    1  A    between atoms: O1_2  and  C2_3
REMARK    2  A    between atoms: C4_5  and  C5_6
REMARK    3  A    between atoms: C5_6  and  C6_7
REMARK    4  A    between atoms: C6_7  and  N1_8
REMARK       I    between atoms: N1_8  and  C7_10
REMARK    5  A    between atoms: C14_21  and  C15_22
REMARK       I    between atoms: C15_22  and  N4_24
REMARK       I    between atoms: N4_24  and  C16_26
REMARK       I    between atoms: C16_26  and  N5_28
REMARK    6  A    between atoms: N5_28  and  C18_30
REMARK    7  A    between atoms: C18_30  and  C19_31
REMARK       I    between atoms: C19_31  and  N6_33
REMARK    8  A    between atoms: N6_33  and  C20_35
REMARK    9  A    between atoms: N7_39  and  C24_40
REMARK   10  A    between atoms: C24_40  and  C25_41
REMARK   11  A    between atoms: C25_41  and  C26_42
ROOT
HETATM    1  C2  UNL     1      12.696 -12.655   6.093  1.00  0.00     0.173 A
HETATM    2  C3  UNL     1      11.798 -13.310   6.814  1.00  0.00     0.100 A
HETATM    3  C4  UNL     1      11.723 -13.212   8.285  1.00  0.00    -0.003 A
HETATM    4  C9  UNL     1      10.801 -14.014   8.852  1.00  0.00     0.015 A
HETATM    5  C10 UNL     1      10.613 -14.039  10.309  1.00  0.00     0.069 C
HETATM    6  N2  UNL     1       9.945 -14.872   8.112  1.00  0.00    -0.349 N
ATOM      7  H2  UNL     1       9.281 -15.438   8.640  1.00  0.00     0.167 HD
HETATM    8  C11 UNL     1       9.937 -14.990   6.869  1.00  0.00     0.084 A
HETATM    9  C12 UNL     1       9.050 -15.879   6.093  1.00  0.00     0.089 C
HETATM   10  N3  UNL     1      10.893 -14.194   6.129  1.00  0.00    -0.305 N
HETATM   11  C13 UNL     1      10.926 -14.359   4.723  1.00  0.00     0.134 A
HETATM   12  C14 UNL     1      11.826 -13.669   3.998  1.00  0.00     0.121 A
HETATM   13  N7  UNL     1      12.728 -12.808   4.658  1.00  0.00    -0.320 N
ENDROOT
BRANCH  12  14
HETATM   14  C15 UNL     1      11.780 -13.903   2.562  1.00  0.00     0.277 C
HETATM   15  O3  UNL     1      12.819 -14.103   1.901  1.00  0.00    -0.265 OA
HETATM   16  N4  UNL     1      10.548 -13.919   1.823  1.00  0.00    -0.274 N
HETATM   17  C16 UNL     1      10.580 -14.134   0.400  1.00  0.00     0.325 C
ATOM     18  H4  UNL     1       9.658 -13.778   2.302  1.00  0.00     0.173 HD
HETATM   19  O4  UNL     1      11.674 -14.303  -0.162  1.00  0.00    -0.247 OA
HETATM   20  N5  UNL     1       9.376 -14.150  -0.343  1.00  0.00    -0.330 N
HETATM   21  C17 UNL     1       9.460 -14.352  -1.784  1.00  0.00     0.155 C
BRANCH  20  22
HETATM   22  C18 UNL     1       8.060 -13.991   0.237  1.00  0.00     0.229 C
BRANCH  22  23
HETATM   23  C19 UNL     1       7.428 -15.285   0.595  1.00  0.00     0.236 C
HETATM   24  O5  UNL     1       7.877 -15.939   1.557  1.00  0.00    -0.272 OA
HETATM   25  N6  UNL     1       6.329 -15.730  -0.175  1.00  0.00    -0.352 N
ATOM     26  H6  UNL     1       6.002 -15.154  -0.951  1.00  0.00     0.163 HD
BRANCH  25  27
HETATM   27  C20 UNL     1       5.660 -16.976   0.107  1.00  0.00     0.022 C
HETATM   28  C21 UNL     1       4.593 -17.232  -0.917  1.00  0.00     0.037 C
HETATM   29  C22 UNL     1       6.643 -18.139   0.053  1.00  0.00     0.037 C
HETATM   30  C23 UNL     1       5.014 -16.970   1.482  1.00  0.00     0.037 C
ENDBRANCH  25  27
ENDBRANCH  22  23
ENDBRANCH  20  22
ENDBRANCH  12  14
BRANCH  13  31
HETATM   31  C24 UNL     1      13.697 -12.017   3.971  1.00  0.00     0.132 C
BRANCH  31  32
HETATM   32  C25 UNL     1      13.074 -10.775   3.325  1.00  0.00     0.024 C
BRANCH  32  33
HETATM   33  C26 UNL     1      13.428  -9.608   4.222  1.00  0.00    -0.021 C
HETATM   34  C27 UNL     1      12.585  -8.386   3.940  1.00  0.00     0.009 C
HETATM   35  C28 UNL     1      14.894  -9.311   4.210  1.00  0.00     0.009 C
ENDBRANCH  32  33
ENDBRANCH  31  32
ENDBRANCH  13  31
BRANCH   1  36
HETATM   36  O1  UNL     1      13.595 -11.855   6.739  1.00  0.00    -0.339 OA
HETATM   37  C1  UNL     1      14.998 -11.905   6.775  1.00  0.00     0.211 C
ENDBRANCH   1  36
BRANCH   3  38
HETATM   38  C5  UNL     1      12.500 -12.233   9.019  1.00  0.00     0.062 C
BRANCH  38  39
HETATM   39  C6  UNL     1      11.938 -10.873   9.260  1.00  0.00     0.127 C
BRANCH  39  40
HETATM   40  N1  UNL     1      12.716  -9.707   9.068  1.00  0.00    -0.361 N
HETATM   41  C7  UNL     1      12.473  -8.820   7.986  1.00  0.00     0.213 C
HETATM   42  C8  UNL     1      13.284  -7.588   7.763  1.00  0.00     0.117 C
HETATM   43  O2  UNL     1      11.556  -9.044   7.166  1.00  0.00    -0.274 OA
ATOM     44  H1  UNL     1      13.470  -9.498   9.723  1.00  0.00     0.162 HD
ENDBRANCH  39  40
ENDBRANCH  38  39
ENDBRANCH   3  38
TORSDOF 11
ENDMDL