MODEL 3
REMARK VINA RESULT: -8.832257434      3.739      7.154
REMARK  12 active torsions:
REMARK  status: ('A' for Active; 'I' for Inactive)
REMARK    1  A    between atoms: C5_6  and  C6_7
REMARK       I    between atoms: C6_7  and  N1_9
REMARK    2  A    between atoms: N1_9  and  C7_11
REMARK    3  A    between atoms: C7_11  and  C8_12
REMARK    4  A    between atoms: C8_12  and  C9_13
REMARK    5  A    between atoms: C9_13  and  N2_14
REMARK    6  A    between atoms: N2_14  and  C10_16
REMARK    7  A    between atoms: C11_19  and  N4_20
REMARK    8  A    between atoms: C16_27  and  N6_28
REMARK    9  A    between atoms: C20_32  and  C21_33
REMARK       I    between atoms: C21_33  and  N7_35
REMARK   10  A    between atoms: N7_35  and  C22_37
REMARK   11  A    between atoms: C22_37  and  C23_38
REMARK   12  A    between atoms: C23_38  and  C24_39
ROOT
HETATM    1  C10 UNL     1      13.789 -14.518   4.365  1.00  0.00     0.707 A
HETATM    2  N3  UNL     1      13.001 -14.824   5.429  1.00  0.00    -0.021 N
ATOM      3  H3  UNL     1      13.421 -15.110   6.314  1.00  0.00     0.203 HD
HETATM    4  C11 UNL     1      11.656 -14.748   5.307  1.00  0.00     0.709 A
HETATM    5  N5  UNL     1      11.142 -14.367   4.123  1.00  0.00    -0.021 N
ATOM      6  H5  UNL     1      10.128 -14.312   4.033  1.00  0.00     0.203 HD
HETATM    7  C16 UNL     1      11.895 -14.054   3.047  1.00  0.00     0.709 A
HETATM    8  N8  UNL     1      13.238 -14.141   3.201  1.00  0.00    -0.021 N
ATOM      9  H8  UNL     1      13.845 -13.914   2.413  1.00  0.00     0.203 HD
ENDROOT
BRANCH   7  10
HETATM   10  N6  UNL     1      11.259 -13.662   1.835  1.00  0.00    -0.216 N
HETATM   11  C17 UNL     1      11.855 -12.553   1.135  1.00  0.00     0.141 C
HETATM   12  C18 UNL     1      11.757 -12.698  -0.346  1.00  0.00     0.021 C
HETATM   13  C19 UNL     1      11.622 -14.169  -0.671  1.00  0.00     0.017 C
HETATM   14  C20 UNL     1      10.327 -14.736  -0.121  1.00  0.00     0.096 C
HETATM   15  C29 UNL     1      10.083 -14.304   1.294  1.00  0.00     0.155 C
BRANCH  14  16
HETATM   16  C21 UNL     1       9.168 -14.289  -0.973  1.00  0.00     0.223 C
HETATM   17  O3  UNL     1       8.387 -13.398  -0.583  1.00  0.00    -0.273 OA
HETATM   18  N7  UNL     1       8.970 -14.892  -2.235  1.00  0.00    -0.361 N
ATOM     19  H7  UNL     1       9.618 -15.615  -2.548  1.00  0.00     0.162 HD
BRANCH  18  20
HETATM   20  C22 UNL     1       7.891 -14.517  -3.080  1.00  0.00     0.123 C
BRANCH  20  21
HETATM   21  C23 UNL     1       8.107 -14.641  -4.546  1.00  0.00     0.024 C
BRANCH  21  22
HETATM   22  C24 UNL     1       8.763 -15.944  -4.939  1.00  0.00    -0.013 C
HETATM   23  C25 UNL     1       9.479 -15.832  -6.270  1.00  0.00     0.005 C
HETATM   24  C26 UNL     1       8.345 -15.631  -7.236  1.00  0.00     0.000 C
HETATM   25  C27 UNL     1       7.149 -16.350  -6.633  1.00  0.00     0.000 C
HETATM   26  C28 UNL     1       7.611 -16.891  -5.285  1.00  0.00     0.005 C
ENDBRANCH  21  22
ENDBRANCH  20  21
ENDBRANCH  18  20
ENDBRANCH  14  16
ENDBRANCH   7  10
BRANCH   4  27
HETATM   27  N4  UNL     1      10.817 -15.046   6.406  1.00  0.00    -0.217 N
HETATM   28  C12 UNL     1       9.555 -15.730   6.329  1.00  0.00     0.141 C
HETATM   29  C13 UNL     1       8.960 -15.687   7.721  1.00  0.00     0.022 C
HETATM   30  C14 UNL     1      10.007 -15.121   8.629  1.00  0.00     0.022 C
HETATM   31  C15 UNL     1      11.146 -14.682   7.771  1.00  0.00     0.141 C
ENDBRANCH   4  27
BRANCH   1  32
HETATM   32  N2  UNL     1      15.098 -14.597   4.498  1.00  0.00    -0.225 N
ATOM     33  H2  UNL     1      15.518 -15.347   5.048  1.00  0.00     0.177 HD
BRANCH  32  34
HETATM   34  C9  UNL     1      15.932 -13.603   3.849  1.00  0.00     0.139 C
BRANCH  34  35
HETATM   35  C8  UNL     1      16.641 -12.789   4.904  1.00  0.00     0.040 C
BRANCH  35  36
HETATM   36  C7  UNL     1      16.183 -11.360   4.784  1.00  0.00     0.124 C
BRANCH  36  37
HETATM   37  N1  UNL     1      15.304 -11.042   5.898  1.00  0.00    -0.357 N
HETATM   38  C6  UNL     1      13.927 -10.919   5.673  1.00  0.00     0.254 C
HETATM   39  O2  UNL     1      13.494 -11.109   4.481  1.00  0.00    -0.268 OA
ATOM     40  H1  UNL     1      15.687 -10.911   6.834  1.00  0.00     0.162 HD
BRANCH  38  41
HETATM   41  C5  UNL     1      12.936 -10.593   6.680  1.00  0.00     0.063 A
HETATM   42  C2  UNL     1      12.290  -9.420   6.972  1.00  0.00     0.064 A
HETATM   43  C1  UNL     1      12.453  -8.127   6.282  1.00  0.00     0.077 C
HETATM   44  O1  UNL     1      11.488  -9.621   7.978  1.00  0.00    -0.326 OA
HETATM   45  C3  UNL     1      11.548 -10.851   8.385  1.00  0.00     0.143 A
HETATM   46  C4  UNL     1      12.449 -11.522   7.602  1.00  0.00     0.044 A
ENDBRANCH  38  41
ENDBRANCH  36  37
ENDBRANCH  35  36
ENDBRANCH  34  35
ENDBRANCH  32  34
ENDBRANCH   1  32
TORSDOF 12
ENDMDL