MODEL 3
REMARK VINA RESULT: -7.933775860      0.850      1.024
REMARK  11 active torsions:
REMARK  status: ('A' for Active; 'I' for Inactive)
REMARK    1  A    between atoms: C3_5  and  C4_6
REMARK    2  A    between atoms: N4_14  and  C7_15
REMARK    3  A    between atoms: C7_15  and  C8_16
REMARK    4  A    between atoms: C8_16  and  O2_17
REMARK    5  A    between atoms: C8_16  and  N5_19
REMARK       I    between atoms: N5_19  and  C9_21
REMARK    6  A    between atoms: C9_21  and  C10_23
REMARK    7  A    between atoms: C10_23  and  O4_24
REMARK    8  A    between atoms: C10_23  and  C11_26
REMARK    9  A    between atoms: C11_26  and  O5_29
REMARK   10  A    between atoms: C14_31  and  N6_32
REMARK   11  A    between atoms: C16_40  and  N10_41
ROOT
HETATM    1  C4  UNL     1     -26.714  -8.913   5.216  1.00  0.00     0.166 A
HETATM    2  N2  UNL     1     -27.237  -9.030   6.437  1.00  0.00    -0.170 N
ATOM      3  H2  UNL     1     -28.171  -9.383   6.647  1.00  0.00     0.186 HD
HETATM    4  C5  UNL     1     -26.327  -8.602   7.365  1.00  0.00     0.724 A
HETATM    5  N3  UNL     1     -26.360  -8.516   8.705  1.00  0.00    -0.138 N
ATOM      6  H3  UNL     1     -27.188  -8.804   9.226  1.00  0.00     0.189 HD
HETATM    7  C6  UNL     1     -25.258  -8.032   9.354  1.00  0.00     0.355 A
HETATM    8  O1  UNL     1     -25.293  -7.951  10.600  1.00  0.00    -0.245 OA
HETATM    9  N4  UNL     1     -24.155  -7.645   8.703  1.00  0.00    -0.126 N
HETATM   10  C14 UNL     1     -24.153  -7.743   7.362  1.00  0.00     0.718 A
HETATM   11  N7  UNL     1     -25.239  -8.223   6.679  1.00  0.00     0.092 N
HETATM   12  N8  UNL     1     -25.477  -8.412   5.383  1.00  0.00    -0.247 N
ATOM     13  H8  UNL     1     -24.820  -8.209   4.629  1.00  0.00     0.190 HD
ENDROOT
BRANCH   9  14
HETATM   14  C7  UNL     1     -23.024  -7.164   9.412  1.00  0.00     0.206 C
BRANCH  14  15
HETATM   15  C8  UNL     1     -23.060  -5.747   9.866  1.00  0.00     0.239 C
BRANCH  15  16
HETATM   16  O2  UNL     1     -22.122  -5.526  10.908  1.00  0.00    -0.375 OA
ATOM     17  H2  UNL     1     -22.489  -4.963  11.580  1.00  0.00     0.212 HD
ENDBRANCH  15  16
BRANCH  15  18
HETATM   18  N5  UNL     1     -22.713  -4.812   8.820  1.00  0.00    -0.331 N
HETATM   19  C9  UNL     1     -22.544  -3.428   9.040  1.00  0.00     0.251 C
HETATM   20  O3  UNL     1     -22.708  -2.987  10.202  1.00  0.00    -0.270 OA
ATOM     21  H5  UNL     1     -22.584  -5.171   7.875  1.00  0.00     0.165 HD
BRANCH  19  22
HETATM   22  C10 UNL     1     -22.185  -2.537   7.931  1.00  0.00     0.243 C
BRANCH  22  23
HETATM   23  O4  UNL     1     -21.316  -3.223   7.084  1.00  0.00    -0.383 OA
ATOM     24  H4  UNL     1     -21.783  -3.964   6.717  1.00  0.00     0.210 HD
ENDBRANCH  22  23
BRANCH  22  25
HETATM   25  C11 UNL     1     -23.350  -2.049   7.111  1.00  0.00     0.085 C
HETATM   26  C12 UNL     1     -24.541  -1.755   7.994  1.00  0.00     0.049 C
HETATM   27  C13 UNL     1     -23.000  -0.886   6.234  1.00  0.00     0.049 C
BRANCH  25  28
HETATM   28  O5  UNL     1     -23.742  -3.115   6.289  1.00  0.00    -0.388 OA
ATOM     29  H5  UNL     1     -24.097  -2.734   5.494  1.00  0.00     0.210 HD
ENDBRANCH  25  28
ENDBRANCH  22  25
ENDBRANCH  19  22
ENDBRANCH  15  18
ENDBRANCH  14  15
ENDBRANCH   9  14
BRANCH  10  30
HETATM   30  N6  UNL     1     -23.141  -7.409   6.641  1.00  0.00    -0.232 N
ATOM     31  H62 UNL     1     -22.506  -8.166   6.389  1.00  0.00     0.174 HD
ATOM     32  H61 UNL     1     -22.970  -6.449   6.340  1.00  0.00     0.174 HD
ENDBRANCH  10  30
BRANCH   1  33
HETATM   33  C3  UNL     1     -27.285  -9.235   3.916  1.00  0.00     0.108 A
HETATM   34  N1  UNL     1     -26.555  -9.288   2.792  1.00  0.00    -0.342 N
HETATM   35  C2  UNL     1     -27.038  -9.578   1.593  1.00  0.00     0.079 A
ATOM     36  H1  UNL     1     -25.557  -9.092   2.866  1.00  0.00     0.167 HD
HETATM   37  C1  UNL     1     -26.163  -9.620   0.372  1.00  0.00     0.089 C
HETATM   38  N11 UNL     1     -28.355  -9.837   1.489  1.00  0.00    -0.331 N
HETATM   39  C16 UNL     1     -29.173  -9.812   2.544  1.00  0.00     0.127 A
ATOM     40  H11 UNL     1     -28.743 -10.061   0.572  1.00  0.00     0.168 HD
HETATM   41  C15 UNL     1     -28.647  -9.507   3.796  1.00  0.00     0.120 A
HETATM   42  N9  UNL     1     -29.457  -9.461   4.969  1.00  0.00    -0.096 NA
BRANCH  39  43
HETATM   43  N10 UNL     1     -30.428 -10.062   2.437  1.00  0.00    -0.384 N
ATOM     44 2H10 UNL     1     -30.919 -10.653   3.107  1.00  0.00     0.157 HD
ATOM     45 1H10 UNL     1     -30.949  -9.658   1.660  1.00  0.00     0.157 HD
ENDBRANCH  39  43
ENDBRANCH   1  33
TORSDOF 11
ENDMDL