MODEL 2
REMARK VINA RESULT: -5.184258402      5.196      6.918
REMARK  13 active torsions:
REMARK  status: ('A' for Active; 'I' for Inactive)
REMARK    1  A    between atoms: C3_3  and  C4_4
REMARK    2  A    between atoms: C4_4  and  O1_5
REMARK    3  A    between atoms: C5_7  and  O2_8
REMARK    4  A    between atoms: C6_10  and  O3_11
REMARK    5  A    between atoms: O3_11  and  C7_12
REMARK    6  A    between atoms: C8_14  and  C9_15
REMARK    7  A    between atoms: C9_15  and  N1_16
REMARK    8  A    between atoms: C10_20  and  O5_21
REMARK    9  A    between atoms: C11_23  and  S1_24
REMARK   10  A    between atoms: C12_27  and  N2_28
REMARK   11  A    between atoms: C13_32  and  O7_33
REMARK   12  A    between atoms: C14_35  and  N3_36
REMARK   13  A    between atoms: N3_36  and  C15_38
ROOT
HETATM    1  C1  UNL     1     -26.895  -8.631   8.935  1.00  0.00     0.112 C
HETATM    2  C2  UNL     1     -25.697  -7.994   8.399  1.00  0.00    -0.108 C
HETATM    3  C3  UNL     1     -24.709  -7.477   7.937  1.00  0.00    -0.064 C
ENDROOT
BRANCH   3   4
HETATM    4  C4  UNL     1     -23.509  -6.824   7.352  1.00  0.00     0.171 C
HETATM    5  C5  UNL     1     -22.341  -7.608   7.766  1.00  0.00     0.198 C
HETATM    6  C6  UNL     1     -21.092  -6.886   8.139  1.00  0.00     0.192 C
HETATM    7  C12 UNL     1     -21.444  -5.664   8.962  1.00  0.00     0.245 C
HETATM    8  C13 UNL     1     -22.196  -4.768   7.975  1.00  0.00     0.177 C
HETATM    9  C14 UNL     1     -23.509  -5.355   7.625  1.00  0.00     0.158 C
BRANCH   4  10
HETATM   10  O1  UNL     1     -23.681  -6.982   5.962  1.00  0.00    -0.373 OA
ATOM     11  H1  UNL     1     -23.270  -6.209   5.591  1.00  0.00     0.212 HD
ENDBRANCH   4  10
BRANCH   5  12
HETATM   12  O2  UNL     1     -22.645  -8.447   8.872  1.00  0.00    -0.389 OA
ATOM     13  H2  UNL     1     -23.533  -8.779   8.821  1.00  0.00     0.210 HD
ENDBRANCH   5  12
BRANCH   6  14
HETATM   14  O3  UNL     1     -20.248  -7.681   8.906  1.00  0.00    -0.329 OA
BRANCH  14  15
HETATM   15  C7  UNL     1     -19.160  -8.180   8.202  1.00  0.00     0.415 C
HETATM   16  O4  UNL     1     -18.522  -9.092   9.034  1.00  0.00    -0.329 OA
HETATM   17  C8  UNL     1     -17.166  -8.944   9.140  1.00  0.00     0.184 C
HETATM   18  C10 UNL     1     -16.470  -8.738   7.807  1.00  0.00     0.188 C
HETATM   19  C11 UNL     1     -17.347  -7.840   6.958  1.00  0.00     0.231 C
HETATM   20  O6  UNL     1     -18.244  -7.196   7.841  1.00  0.00    -0.319 OA
BRANCH  17  21
HETATM   21  C9  UNL     1     -16.639 -10.192   9.833  1.00  0.00     0.264 C
BRANCH  21  22
HETATM   22  N1  UNL     1     -17.517 -11.304   9.548  1.00  0.00    -0.077 N
ATOM     23  H13 UNL     1     -17.268 -11.782   8.682  1.00  0.00     0.274 HD
ATOM     24  H12 UNL     1     -17.374 -12.085  10.190  1.00  0.00     0.274 HD
ATOM     25  H11 UNL     1     -18.484 -10.979   9.546  1.00  0.00     0.274 HD
ENDBRANCH  21  22
ENDBRANCH  17  21
BRANCH  18  26
HETATM   26  O5  UNL     1     -16.239  -9.955   7.169  1.00  0.00    -0.389 OA
ATOM     27  H5  UNL     1     -16.953 -10.563   7.322  1.00  0.00     0.210 HD
ENDBRANCH  18  26
BRANCH  19  28
HETATM   28  S1  UNL     1     -16.401  -6.624   6.041  1.00  0.00    -0.050 SA
HETATM   29  S2  UNL     1     -16.169  -7.176   4.022  1.00  0.00    -0.011 SA
ENDBRANCH  19  28
ENDBRANCH  14  15
ENDBRANCH   6  14
BRANCH   7  30
HETATM   30  N2  UNL     1     -20.204  -5.016   9.329  1.00  0.00    -0.070 N
ATOM     31  H23 UNL     1     -19.999  -5.085  10.326  1.00  0.00     0.274 HD
ATOM     32  H22 UNL     1     -19.380  -5.513   8.990  1.00  0.00     0.274 HD
ATOM     33  H21 UNL     1     -20.253  -4.053   8.998  1.00  0.00     0.274 HD
ENDBRANCH   7  30
BRANCH   8  34
HETATM   34  O7  UNL     1     -21.370  -4.761   6.825  1.00  0.00    -0.391 OA
ATOM     35  H7  UNL     1     -21.742  -5.439   6.272  1.00  0.00     0.210 HD
ENDBRANCH   8  34
BRANCH   9  36
HETATM   36  N3  UNL     1     -24.535  -5.103   8.612  1.00  0.00    -0.399 N
ATOM     37  H3  UNL     1     -25.262  -5.787   8.821  1.00  0.00     0.154 HD
BRANCH  36  38
HETATM   38  C15 UNL     1     -24.474  -3.848   9.273  1.00  0.00     0.239 C
HETATM   39  C16 UNL     1     -24.641  -2.701   8.399  1.00  0.00     0.078 C
HETATM   40  N4  UNL     1     -24.755  -1.789   7.698  1.00  0.00    -0.196 NA
ENDBRANCH  36  38
ENDBRANCH   9  36
ENDBRANCH   3   4
TORSDOF 13
ENDMDL