MODEL 5
REMARK VINA RESULT: -6.139821682      2.444      3.623
REMARK  10 active torsions:
REMARK  status: ('A' for Active; 'I' for Inactive)
REMARK    1  A    between atoms: N1_1  and  C1_4
REMARK    2  A    between atoms: C2_7  and  N3_8
REMARK    3  A    between atoms: N4_11  and  C3_12
REMARK    4  A    between atoms: C5_16  and  N6_17
REMARK       I    between atoms: N9_26  and  C8_27
REMARK       I    between atoms: C8_27  and  N10_29
REMARK    5  A    between atoms: N10_29  and  C9_31
REMARK    6  A    between atoms: C9_31  and  C10_32
REMARK    7  A    between atoms: N13_36  and  C11_37
REMARK    8  A    between atoms: C11_37  and  C12_38
REMARK    9  A    between atoms: C12_38  and  O2_39
REMARK   10  A    between atoms: C13_41  and  O3_42
ROOT
HETATM    1  C3  UNL     1     -22.990  -6.639   9.989  1.00  0.00     0.720 A
HETATM    2  N5  UNL     1     -22.435  -5.601  10.716  1.00  0.00    -0.182 N
ATOM      3  H5  UNL     1     -21.480  -5.584  11.072  1.00  0.00     0.184 HD
HETATM    4  C4  UNL     1     -23.319  -4.639  10.881  1.00  0.00     0.138 A
HETATM    5  C5  UNL     1     -23.265  -3.412  11.521  1.00  0.00     0.131 A
HETATM    6  N7  UNL     1     -24.355  -2.622  11.524  1.00  0.00    -0.337 N
ATOM      7  H7  UNL     1     -24.311  -1.719  11.996  1.00  0.00     0.168 HD
HETATM    8  C6  UNL     1     -25.500  -2.988  10.921  1.00  0.00     0.183 A
HETATM    9  N8  UNL     1     -25.535  -4.182  10.305  1.00  0.00    -0.336 N
ATOM     10  H8  UNL     1     -26.399  -4.469   9.845  1.00  0.00     0.168 HD
HETATM   11  C7  UNL     1     -24.480  -5.013  10.268  1.00  0.00     0.166 A
HETATM   12  N9  UNL     1     -24.247  -6.265   9.720  1.00  0.00    -0.077 N
HETATM   13  C8  UNL     1     -25.260  -6.919   9.020  1.00  0.00     0.343 C
HETATM   14  O1  UNL     1     -26.398  -6.335   8.901  1.00  0.00    -0.246 OA
HETATM   15  N10 UNL     1     -25.176  -8.174   8.416  1.00  0.00    -0.336 N
ATOM     16  H10 UNL     1     -24.316  -8.720   8.454  1.00  0.00     0.164 HD
ENDROOT
BRANCH   1  17
HETATM   17  N4  UNL     1     -22.264  -7.813   9.660  1.00  0.00     0.078 N
HETATM   18  C2  UNL     1     -21.684  -7.950   8.446  1.00  0.00     0.716 A
HETATM   19  N2  UNL     1     -20.956  -9.042   8.136  1.00  0.00    -0.022 N
HETATM   20  C1  UNL     1     -20.788 -10.034   9.041  1.00  0.00     0.694 A
ATOM     21  H2  UNL     1     -20.529  -9.120   7.213  1.00  0.00     0.203 HD
HETATM   22  N14 UNL     1     -21.357  -9.909  10.247  1.00  0.00    -0.140 N
HETATM   23  C14 UNL     1     -22.076  -8.819  10.537  1.00  0.00     0.376 A
ATOM     24  H14 UNL     1     -21.241 -10.644  10.944  1.00  0.00     0.189 HD
HETATM   25  O4  UNL     1     -22.595  -8.741  11.686  1.00  0.00    -0.244 OA
BRANCH  18  26
HETATM   26  N3  UNL     1     -21.843  -7.008   7.582  1.00  0.00    -0.233 N
ATOM     27  H32 UNL     1     -21.054  -6.760   6.983  1.00  0.00     0.174 HD
ATOM     28  H31 UNL     1     -22.738  -6.526   7.504  1.00  0.00     0.174 HD
ENDBRANCH  18  26
BRANCH  20  29
HETATM   29  N1  UNL     1     -20.098 -11.087   8.771  1.00  0.00    -0.234 N
ATOM     30  H12 UNL     1     -20.134 -11.486   7.833  1.00  0.00     0.174 HD
ATOM     31  H11 UNL     1     -19.512 -11.540   9.474  1.00  0.00     0.174 HD
ENDBRANCH  20  29
ENDBRANCH   1  17
BRANCH  15  32
HETATM   32  C9  UNL     1     -26.375  -8.685   7.721  1.00  0.00     0.187 C
BRANCH  32  33
HETATM   33  C10 UNL     1     -26.163  -8.707   6.253  1.00  0.00     0.093 A
HETATM   34  N11 UNL     1     -25.034  -8.357   5.605  1.00  0.00    -0.282 N
HETATM   35  N12 UNL     1     -25.232  -8.510   4.303  1.00  0.00    -0.018 NA
ATOM     36  H11 UNL     1     -24.172  -8.030   6.043  1.00  0.00     0.184 HD
HETATM   37  N13 UNL     1     -26.455  -8.951   4.059  1.00  0.00    -0.251 N
HETATM   38  C13 UNL     1     -27.042  -9.077   5.263  1.00  0.00     0.181 A
BRANCH  37  39
HETATM   39  C11 UNL     1     -27.045  -9.241   2.746  1.00  0.00     0.175 C
BRANCH  39  40
HETATM   40  C12 UNL     1     -25.995  -8.843   1.718  1.00  0.00     0.185 C
BRANCH  40  41
HETATM   41  O2  UNL     1     -25.970  -9.704   0.633  1.00  0.00    -0.399 OA
ATOM     42  H2  UNL     1     -25.382  -9.405  -0.051  1.00  0.00     0.209 HD
ENDBRANCH  40  41
ENDBRANCH  39  40
ENDBRANCH  37  39
BRANCH  38  43
HETATM   43  O3  UNL     1     -28.343  -9.515   5.462  1.00  0.00    -0.344 OA
ATOM     44  H3  UNL     1     -28.595 -10.293   5.945  1.00  0.00     0.219 HD
ENDBRANCH  38  43
ENDBRANCH  32  33
ENDBRANCH  15  32
BRANCH   5  45
HETATM   45  N6  UNL     1     -22.161  -3.082  12.091  1.00  0.00    -0.383 N
ATOM     46  H62 UNL     1     -21.448  -2.515  11.632  1.00  0.00     0.157 HD
ATOM     47  H61 UNL     1     -22.002  -3.408  13.044  1.00  0.00     0.157 HD
ENDBRANCH   5  45
TORSDOF 10
ENDMDL