MODEL 4
REMARK VINA RESULT: -5.277562019      0.955      1.987
REMARK  13 active torsions:
REMARK  status: ('A' for Active; 'I' for Inactive)
REMARK    1  A    between atoms: O1_2  and  C2_3
REMARK    2  A    between atoms: C5_8  and  O4_9
REMARK    3  A    between atoms: O4_9  and  C6_10
REMARK    4  A    between atoms: C7_11  and  N1_12
REMARK    5  A    between atoms: C9_17  and  N2_18
REMARK    6  A    between atoms: C10_22  and  O5_23
REMARK    7  A    between atoms: O5_23  and  C11_24
REMARK    8  A    between atoms: C12_27  and  C13_28
REMARK    9  A    between atoms: C13_28  and  N4_29
REMARK   10  A    between atoms: C14_33  and  O7_34
REMARK   11  A    between atoms: C15_36  and  O8_37
REMARK   12  A    between atoms: C16_39  and  O9_40
REMARK   13  A    between atoms: C17_42  and  O10_43
ROOT
HETATM    1  C6  UNL     1     -21.954  -7.188   9.027  1.00  0.00     0.186 C
HETATM    2  C7  UNL     1     -23.299  -7.536   9.566  1.00  0.00     0.217 C
HETATM    3  C8  UNL     1     -24.205  -7.914   8.431  1.00  0.00     0.071 C
HETATM    4  C9  UNL     1     -24.023  -7.099   7.199  1.00  0.00     0.217 C
HETATM    5  C10 UNL     1     -23.260  -5.835   7.359  1.00  0.00     0.186 C
HETATM    6  C16 UNL     1     -21.985  -5.966   8.130  1.00  0.00     0.180 C
ENDROOT
BRANCH   5   7
HETATM    7  O5  UNL     1     -23.990  -4.789   7.898  1.00  0.00    -0.347 OA
BRANCH   7   8
HETATM    8  C11 UNL     1     -23.858  -3.602   7.188  1.00  0.00     0.315 C
HETATM    9  O6  UNL     1     -25.010  -2.886   7.396  1.00  0.00    -0.251 OA
HETATM   10  N3  UNL     1     -24.936  -1.874   8.235  1.00  0.00    -0.089 NA
HETATM   11  C12 UNL     1     -24.097  -0.790   7.745  1.00  0.00     0.163 C
HETATM   12  C14 UNL     1     -22.886  -1.374   7.030  1.00  0.00     0.175 C
HETATM   13  C15 UNL     1     -22.668  -2.807   7.553  1.00  0.00     0.205 C
BRANCH  11  14
HETATM   14  C13 UNL     1     -23.691   0.142   8.852  1.00  0.00     0.255 C
BRANCH  14  15
HETATM   15  N4  UNL     1     -23.980  -0.399  10.161  1.00  0.00    -0.078 N
ATOM     16  H43 UNL     1     -23.202  -0.246  10.802  1.00  0.00     0.274 HD
ATOM     17  H42 UNL     1     -24.694   0.153  10.638  1.00  0.00     0.274 HD
ATOM     18  H41 UNL     1     -24.240  -1.384  10.126  1.00  0.00     0.274 HD
ENDBRANCH  14  15
ENDBRANCH  11  14
BRANCH  12  19
HETATM   19  O7  UNL     1     -23.220  -1.502   5.687  1.00  0.00    -0.391 OA
ATOM     20  H7  UNL     1     -22.931  -2.362   5.404  1.00  0.00     0.210 HD
ENDBRANCH  12  19
BRANCH  13  21
HETATM   21  O8  UNL     1     -22.474  -2.715   8.912  1.00  0.00    -0.388 OA
ATOM     22  H8  UNL     1     -23.242  -2.410   9.380  1.00  0.00     0.210 HD
ENDBRANCH  13  21
ENDBRANCH   7   8
ENDBRANCH   5   7
BRANCH   4  23
HETATM   23  N2  UNL     1     -23.391  -7.878   6.120  1.00  0.00    -0.072 N
ATOM     24  H23 UNL     1     -22.499  -8.272   6.420  1.00  0.00     0.274 HD
ATOM     25  H22 UNL     1     -23.896  -8.745   5.942  1.00  0.00     0.274 HD
ATOM     26  H21 UNL     1     -23.286  -7.326   5.268  1.00  0.00     0.274 HD
ENDBRANCH   4  23
BRANCH   6  27
HETATM   27  O9  UNL     1     -20.864  -6.072   7.284  1.00  0.00    -0.390 OA
ATOM     28  H9  UNL     1     -20.976  -5.411   6.610  1.00  0.00     0.210 HD
ENDBRANCH   6  27
BRANCH   1  29
HETATM   29  O4  UNL     1     -21.400  -8.250   8.354  1.00  0.00    -0.348 OA
BRANCH  29  30
HETATM   30  C5  UNL     1     -20.171  -8.666   8.800  1.00  0.00     0.297 C
HETATM   31  O3  UNL     1     -19.196  -8.197   7.881  1.00  0.00    -0.329 OA
HETATM   32  C3  UNL     1     -17.920  -8.536   8.300  1.00  0.00     0.262 C
HETATM   33  O2  UNL     1     -17.738  -9.895   8.449  1.00  0.00    -0.329 OA
HETATM   34  C4  UNL     1     -16.960  -8.055   7.232  1.00  0.00     0.071 C
HETATM   35  C2  UNL     1     -18.639 -10.488   9.300  1.00  0.00     0.295 C
HETATM   36  C17 UNL     1     -20.038 -10.170   8.753  1.00  0.00     0.228 C
BRANCH  35  37
HETATM   37  O1  UNL     1     -18.607  -9.998  10.592  1.00  0.00    -0.363 OA
HETATM   38  C1  UNL     1     -18.110 -10.919  11.504  1.00  0.00     0.204 C
ENDBRANCH  35  37
BRANCH  36  39
HETATM   39  O10 UNL     1     -21.015 -10.857   9.418  1.00  0.00    -0.386 OA
ATOM     40  H10 UNL     1     -21.206 -10.471  10.265  1.00  0.00     0.210 HD
ENDBRANCH  36  39
ENDBRANCH  29  30
ENDBRANCH   1  29
BRANCH   2  41
HETATM   41  N1  UNL     1     -23.860  -6.480  10.391  1.00  0.00    -0.072 N
ATOM     42  H13 UNL     1     -23.872  -6.751  11.374  1.00  0.00     0.274 HD
ATOM     43  H12 UNL     1     -23.226  -5.683  10.448  1.00  0.00     0.274 HD
ATOM     44  H11 UNL     1     -24.787  -6.191  10.079  1.00  0.00     0.274 HD
ENDBRANCH   2  41
TORSDOF 13
ENDMDL