MODEL 4
REMARK VINA RESULT: -6.946411624      1.220      1.242
REMARK  10 active torsions:
REMARK  status: ('A' for Active; 'I' for Inactive)
REMARK    1  A    between atoms: C2_2  and  O1_3
REMARK    2  A    between atoms: C2_2  and  C4_7
REMARK    3  A    between atoms: C4_7  and  O2_8
REMARK    4  A    between atoms: C4_7  and  C5_10
REMARK    5  A    between atoms: C5_10  and  N2_11
REMARK    6  A    between atoms: C6_14  and  N4_15
REMARK    7  A    between atoms: N4_15  and  C7_17
REMARK    8  A    between atoms: C8_21  and  C9_22
REMARK    9  A    between atoms: C10_27  and  C11_28
REMARK   10  A    between atoms: C14_36  and  N12_37
ROOT
HETATM    1  C1  UNL     1     -29.353  -9.476   2.382  1.00  0.00     0.065 C
HETATM    2  C2  UNL     1     -29.354 -10.248   3.666  1.00  0.00     0.169 C
HETATM    3  C3  UNL     1     -29.441 -11.688   3.421  1.00  0.00     0.100 C
HETATM    4  N1  UNL     1     -29.525 -12.825   3.218  1.00  0.00    -0.194 NA
ENDROOT
BRANCH   2   5
HETATM    5  O1  UNL     1     -30.404  -9.846   4.505  1.00  0.00    -0.373 OA
ATOM      6  H1  UNL     1     -30.473 -10.408   5.268  1.00  0.00     0.212 HD
ENDBRANCH   2   5
BRANCH   2   7
HETATM    7  C4  UNL     1     -28.017  -9.989   4.360  1.00  0.00     0.187 C
BRANCH   7   8
HETATM    8  O2  UNL     1     -27.463 -11.138   4.872  1.00  0.00    -0.390 OA
ATOM      9  H2  UNL     1     -27.105 -11.010   5.743  1.00  0.00     0.210 HD
ENDBRANCH   7   8
BRANCH   7  10
HETATM   10  C5  UNL     1     -27.119  -9.306   3.378  1.00  0.00     0.204 C
BRANCH  10  11
HETATM   11  N2  UNL     1     -25.948  -8.741   3.980  1.00  0.00    -0.107 N
HETATM   12  N3  UNL     1     -25.636  -8.625   5.274  1.00  0.00    -0.115 N
HETATM   13  C6  UNL     1     -24.457  -8.044   5.425  1.00  0.00     0.709 A
ATOM     14  H3  UNL     1     -26.227  -8.943   6.042  1.00  0.00     0.206 HD
HETATM   15  N11 UNL     1     -23.989  -7.773   4.198  1.00  0.00    -0.020 N
HETATM   16  C14 UNL     1     -24.915  -8.207   3.320  1.00  0.00     0.707 A
ATOM     17  H11 UNL     1     -23.101  -7.325   3.973  1.00  0.00     0.203 HD
BRANCH  13  18
HETATM   18  N4  UNL     1     -23.761  -7.734   6.618  1.00  0.00    -0.196 N
ATOM     19  H4  UNL     1     -23.118  -8.427   7.000  1.00  0.00     0.180 HD
BRANCH  18  20
HETATM   20  C7  UNL     1     -23.917  -6.495   7.313  1.00  0.00     0.272 C
HETATM   21  N5  UNL     1     -23.088  -5.421   6.736  1.00  0.00    -0.110 NA
HETATM   22  N6  UNL     1     -23.473  -4.244   7.307  1.00  0.00    -0.132 NA
HETATM   23  N7  UNL     1     -23.385  -3.106   6.537  1.00  0.00    -0.113 NA
HETATM   24  C12 UNL     1     -22.867  -3.940   8.596  1.00  0.00     0.159 C
HETATM   25  C8  UNL     1     -24.120  -2.041   7.167  1.00  0.00     0.282 C
HETATM   26  N9  UNL     1     -24.470  -2.257   8.541  1.00  0.00    -0.361 N
HETATM   27  C10 UNL     1     -23.896  -3.173   9.313  1.00  0.00     0.094 C
ATOM     28  H9  UNL     1     -25.201  -1.674   8.949  1.00  0.00     0.161 HD
HETATM   29  C13 UNL     1     -22.277  -5.112   9.259  1.00  0.00     0.106 C
HETATM   30  S1  UNL     1     -23.316  -6.614   9.051  1.00  0.00    -0.123 SA
BRANCH  25  31
HETATM   31  C9  UNL     1     -23.367  -0.768   6.997  1.00  0.00     0.271 C
HETATM   32  N8  UNL     1     -22.639  -0.587   5.797  1.00  0.00    -0.059 NA
HETATM   33  O3  UNL     1     -23.346   0.142   7.855  1.00  0.00    -0.273 OA
ENDBRANCH  25  31
BRANCH  27  34
HETATM   34  C11 UNL     1     -24.332  -3.291  10.666  1.00  0.00     0.278 C
HETATM   35  N10 UNL     1     -25.622  -3.799  10.969  1.00  0.00    -0.056 NA
HETATM   36  O4  UNL     1     -23.606  -2.959  11.615  1.00  0.00    -0.270 OA
ENDBRANCH  27  34
ENDBRANCH  18  20
ENDBRANCH  13  18
BRANCH  16  37
HETATM   37  N12 UNL     1     -24.729  -8.075   2.035  1.00  0.00    -0.233 N
ATOM     38 2H12 UNL     1     -25.077  -7.253   1.541  1.00  0.00     0.174 HD
ATOM     39 1H12 UNL     1     -24.258  -8.699   1.380  1.00  0.00     0.174 HD
ENDBRANCH  16  37
ENDBRANCH  10  11
ENDBRANCH   7  10
ENDBRANCH   2   7
TORSDOF 10
ENDMDL