MODEL 1
REMARK VINA RESULT: -7.380928000      0.000      0.000
REMARK  11 active torsions:
REMARK  status: ('A' for Active; 'I' for Inactive)
REMARK    1  A    between atoms: N1_1  and  C1_4
REMARK    2  A    between atoms: C2_7  and  N3_8
REMARK    3  A    between atoms: N5_15  and  C5_16
REMARK    4  A    between atoms: C5_16  and  C6_17
REMARK    5  A    between atoms: C6_17  and  S1_18
REMARK    6  A    between atoms: S1_18  and  C7_19
REMARK    7  A    between atoms: C7_19  and  C8_20
REMARK    8  A    between atoms: C8_20  and  O1_21
REMARK    9  A    between atoms: C10_27  and  N8_28
REMARK   10  A    between atoms: N11_37  and  N12_39
REMARK   11  A    between atoms: N12_39  and  O3_41
ROOT
HETATM    1  C1  UNL     1     -29.846  -8.341   8.859  1.00  0.00     0.679 A
HETATM    2  N2  UNL     1     -28.564  -8.100   9.178  1.00  0.00    -0.175 N
ATOM      3  H2  UNL     1     -28.343  -7.792  10.125  1.00  0.00     0.186 HD
HETATM    4  C2  UNL     1     -27.550  -8.249   8.285  1.00  0.00     0.146 A
HETATM    5  C3  UNL     1     -27.906  -8.667   7.029  1.00  0.00     0.149 A
HETATM    6  C4  UNL     1     -29.259  -8.914   6.715  1.00  0.00     0.171 A
HETATM    7  N4  UNL     1     -30.216  -8.749   7.634  1.00  0.00    -0.174 N
ATOM      8  H4  UNL     1     -31.195  -8.926   7.411  1.00  0.00     0.186 HD
HETATM    9  N5  UNL     1     -29.293  -9.300   5.421  1.00  0.00    -0.162 N
HETATM   10  C9  UNL     1     -28.050  -9.301   4.948  1.00  0.00     0.713 A
HETATM   11  N6  UNL     1     -27.695  -9.613   3.666  1.00  0.00    -0.094 N
ATOM     12  H6  UNL     1     -28.242 -10.333   3.194  1.00  0.00     0.208 HD
HETATM   13  N7  UNL     1     -26.687  -9.055   2.973  1.00  0.00     0.007 N
HETATM   14  C10 UNL     1     -26.696  -8.937   1.634  1.00  0.00     0.717 A
HETATM   15  N9  UNL     1     -25.555  -8.340   1.259  1.00  0.00    -0.137 N
ATOM     16  H9  UNL     1     -25.265  -8.110   0.309  1.00  0.00     0.189 HD
HETATM   17  C11 UNL     1     -24.865  -8.106   2.403  1.00  0.00     0.364 A
HETATM   18  O2  UNL     1     -23.726  -7.555   2.508  1.00  0.00    -0.244 OA
HETATM   19  N10 UNL     1     -25.566  -8.547   3.451  1.00  0.00    -0.144 N
HETATM   20  C12 UNL     1     -25.148  -8.461   4.755  1.00  0.00     0.220 C
HETATM   21  N11 UNL     1     -23.996  -7.998   4.958  1.00  0.00    -0.260 N
ATOM     22  H11 UNL     1     -23.478  -7.727   4.122  1.00  0.00     0.190 HD
HETATM   23  C13 UNL     1     -25.854  -8.840   5.879  1.00  0.00     0.314 C
HETATM   24  O4  UNL     1     -25.184  -9.134   6.876  1.00  0.00    -0.263 OA
HETATM   25  N13 UNL     1     -27.193  -8.912   5.945  1.00  0.00    -0.099 N
ENDROOT
BRANCH   9  26
HETATM   26  C5  UNL     1     -30.517  -9.634   4.712  1.00  0.00     0.159 C
BRANCH  26  27
HETATM   27  C6  UNL     1     -30.206  -9.957   3.284  1.00  0.00     0.094 C
BRANCH  27  28
HETATM   28  S1  UNL     1     -30.543 -11.680   2.848  1.00  0.00    -0.165 SA
BRANCH  28  29
HETATM   29  C7  UNL     1     -29.197 -12.225   1.750  1.00  0.00     0.100 C
BRANCH  29  30
HETATM   30  C8  UNL     1     -29.357 -13.727   1.526  1.00  0.00     0.174 C
BRANCH  30  31
HETATM   31  O1  UNL     1     -30.438 -14.186   2.300  1.00  0.00    -0.400 OA
ATOM     32  H1  UNL     1     -31.136 -13.542   2.260  1.00  0.00     0.209 HD
ENDBRANCH  30  31
ENDBRANCH  29  30
ENDBRANCH  28  29
ENDBRANCH  27  28
ENDBRANCH  26  27
ENDBRANCH   9  26
BRANCH   4  33
HETATM   33  N3  UNL     1     -26.386  -7.948   8.696  1.00  0.00    -0.383 N
ATOM     34  H32 UNL     1     -25.967  -7.020   8.742  1.00  0.00     0.157 HD
ATOM     35  H31 UNL     1     -25.816  -8.718   9.048  1.00  0.00     0.157 HD
ENDBRANCH   4  33
BRANCH   1  36
HETATM   36  N1  UNL     1     -30.801  -8.197   9.717  1.00  0.00    -0.234 N
ATOM     37  H12 UNL     1     -31.560  -8.876   9.656  1.00  0.00     0.174 HD
ATOM     38  H11 UNL     1     -30.793  -7.452  10.413  1.00  0.00     0.174 HD
ENDBRANCH   1  36
BRANCH  14  39
HETATM   39  N8  UNL     1     -27.617  -9.313   0.797  1.00  0.00    -0.231 N
ATOM     40  H82 UNL     1     -27.566 -10.176   0.255  1.00  0.00     0.174 HD
ATOM     41  H81 UNL     1     -28.488  -8.838   0.558  1.00  0.00     0.174 HD
ENDBRANCH  14  39
BRANCH  21  42
HETATM   42  N12 UNL     1     -23.339  -7.806   6.145  1.00  0.00    -0.208 N
ATOM     43  H12 UNL     1     -22.828  -8.581   6.568  1.00  0.00     0.215 HD
BRANCH  42  44
HETATM   44  O3  UNL     1     -23.360  -6.589   6.770  1.00  0.00    -0.274 OA
ATOM     45  H3  UNL     1     -22.868  -5.855   6.422  1.00  0.00     0.246 HD
ENDBRANCH  42  44
ENDBRANCH  21  42
TORSDOF 11
ENDMDL