MODEL 2
REMARK VINA RESULT: -4.612548532      2.708      5.517
REMARK  13 active torsions:
REMARK  status: ('A' for Active; 'I' for Inactive)
REMARK    1  A    between atoms: C2_2  and  O1_3
REMARK    2  A    between atoms: C3_5  and  O2_6
REMARK    3  A    between atoms: C4_8  and  C5_9
REMARK    4  A    between atoms: C5_9  and  O3_10
REMARK    5  A    between atoms: C6_13  and  N1_14
REMARK    6  A    between atoms: C7_15  and  C8_16
REMARK    7  A    between atoms: C8_16  and  O4_17
REMARK    8  A    between atoms: C11_21  and  O5_22
REMARK    9  A    between atoms: C13_29  and  C14_30
REMARK   10  A    between atoms: C14_30  and  O7_31
REMARK   11  A    between atoms: C14_30  and  O8_33
REMARK   12  A    between atoms: C15_36  and  C16_37
REMARK   13  A    between atoms: C16_37  and  O10_38
ROOT
HETATM    1  N1  UNL     1     -23.058  -4.866  10.035  1.00  0.00    -0.311 N
HETATM    2  C7  UNL     1     -24.474  -4.696   9.661  1.00  0.00     0.038 C
HETATM    3  C9  UNL     1     -24.695  -4.372   8.234  1.00  0.00     0.028 C
HETATM    4  C10 UNL     1     -24.439  -3.311   7.525  1.00  0.00     0.046 C
HETATM    5  C11 UNL     1     -23.844  -2.012   7.789  1.00  0.00     0.277 C
HETATM    6  N2  UNL     1     -23.355  -1.974   9.111  1.00  0.00     0.014 N
ATOM      7  H21 UNL     1     -23.946  -2.398   9.827  1.00  0.00     0.287 HD
ATOM      8  H22 UNL     1     -23.341  -1.060   9.565  1.00  0.00     0.287 HD
HETATM    9  C12 UNL     1     -22.062  -2.605   8.878  1.00  0.00     0.480 C
HETATM   10  O6  UNL     1     -21.490  -3.051   9.986  1.00  0.00    -0.279 OA
HETATM   11  C13 UNL     1     -22.458  -3.828  10.682  1.00  0.00     0.182 C
HETATM   12  O9  UNL     1     -21.541  -1.621   8.075  1.00  0.00    -0.326 OA
HETATM   13  C15 UNL     1     -22.536  -1.721   7.047  1.00  0.00     0.217 C
ENDROOT
BRANCH   1  14
HETATM   14  C6  UNL     1     -22.566  -5.858   9.254  1.00  0.00     0.190 C
HETATM   15  C2  UNL     1     -21.476  -5.955   8.339  1.00  0.00     0.111 C
HETATM   16  C1  UNL     1     -20.069  -6.167   8.861  1.00  0.00     0.051 C
HETATM   17  C3  UNL     1     -21.751  -7.336   7.669  1.00  0.00     0.170 C
HETATM   18  C4  UNL     1     -21.762  -8.369   8.732  1.00  0.00     0.105 C
HETATM   19  S1  UNL     1     -22.062  -7.372  10.243  1.00  0.00    -0.130 SA
BRANCH  15  20
HETATM   20  O1  UNL     1     -21.370  -5.089   7.272  1.00  0.00    -0.385 OA
ATOM     21  H1  UNL     1     -22.211  -4.652   7.196  1.00  0.00     0.210 HD
ENDBRANCH  15  20
BRANCH  17  22
HETATM   22  O2  UNL     1     -22.956  -7.320   7.007  1.00  0.00    -0.391 OA
ATOM     23  H2  UNL     1     -23.381  -8.166   7.070  1.00  0.00     0.210 HD
ENDBRANCH  17  22
BRANCH  18  24
HETATM   24  C5  UNL     1     -20.604  -9.265   8.852  1.00  0.00     0.181 C
BRANCH  24  25
HETATM   25  O3  UNL     1     -20.792 -10.451   8.125  1.00  0.00    -0.400 OA
ATOM     26  H3  UNL     1     -20.040 -11.028   8.197  1.00  0.00     0.209 HD
ENDBRANCH  24  25
ENDBRANCH  18  24
ENDBRANCH   1  14
BRANCH   2  27
HETATM   27  C8  UNL     1     -25.384  -4.118  10.643  1.00  0.00     0.221 C
BRANCH  27  28
HETATM   28  O4  UNL     1     -25.583  -5.134  11.619  1.00  0.00    -0.395 OA
ATOM     29  H4  UNL     1     -25.795  -4.675  12.423  1.00  0.00     0.209 HD
ENDBRANCH  27  28
ENDBRANCH   2  27
BRANCH  11  30
HETATM   30  C14 UNL     1     -22.034  -3.981  12.140  1.00  0.00     0.331 C
BRANCH  30  31
HETATM   31  O7  UNL     1     -22.854  -4.857  12.819  1.00  0.00    -0.364 OA
ATOM     32  H7  UNL     1     -22.382  -5.323  13.500  1.00  0.00     0.213 HD
ENDBRANCH  30  31
BRANCH  30  33
HETATM   33  O8  UNL     1     -20.686  -4.127  12.339  1.00  0.00    -0.364 OA
ATOM     34  H8  UNL     1     -20.415  -4.987  12.639  1.00  0.00     0.213 HD
ENDBRANCH  30  33
ENDBRANCH  11  30
BRANCH   5  35
HETATM   35  O5  UNL     1     -24.766  -0.989   7.595  1.00  0.00    -0.360 OA
ATOM     36  H5  UNL     1     -25.654  -1.296   7.737  1.00  0.00     0.213 HD
ENDBRANCH   5  35
BRANCH  13  37
HETATM   37  C16 UNL     1     -22.575  -0.341   6.416  1.00  0.00     0.201 C
BRANCH  37  38
HETATM   38  O10 UNL     1     -22.960  -0.447   5.084  1.00  0.00    -0.398 OA
ATOM     39  H10 UNL     1     -23.719   0.102   4.926  1.00  0.00     0.209 HD
ENDBRANCH  37  38
ENDBRANCH  13  37
TORSDOF 13
ENDMDL