MODEL 5
REMARK VINA RESULT: -6.384367841      1.827      2.949
REMARK  7 active torsions:
REMARK  status: ('A' for Active; 'I' for Inactive)
REMARK    1  A    between atoms: C2_7  and  C3_8
REMARK    2  A    between atoms: C3_8  and  N4_9
REMARK       I    between atoms: N4_9  and  C4_11
REMARK    3  A    between atoms: C5_14  and  C6_15
REMARK    4  A    between atoms: C8_17  and  N5_18
REMARK    5  A    between atoms: C9_25  and  N7_26
REMARK    6  A    between atoms: N8_29  and  C11_30
REMARK    7  A    between atoms: C13_33  and  N9_34
ROOT
HETATM    1  C6  UNL     1     -25.260  -7.453   8.319  1.00  0.00     0.183 C
HETATM    2  C7  UNL     1     -25.556  -8.649   9.182  1.00  0.00     0.101 C
HETATM    3  C8  UNL     1     -26.974  -9.105   8.780  1.00  0.00     0.388 C
HETATM    4  N6  UNL     1     -26.855  -9.517   7.410  1.00  0.00    -0.001 N
ATOM      5  H61 UNL     1     -27.695  -9.977   7.059  1.00  0.00     0.284 HD
ATOM      6  H62 UNL     1     -26.213 -10.299   7.284  1.00  0.00     0.284 HD
HETATM    7  C9  UNL     1     -26.475  -8.323   6.618  1.00  0.00     0.444 C
HETATM    8  O5  UNL     1     -25.207  -7.957   6.990  1.00  0.00    -0.332 OA
ENDROOT
BRANCH   7   9
HETATM    9  N7  UNL     1     -26.645  -8.652   5.216  1.00  0.00    -0.230 N
HETATM   10  C10 UNL     1     -25.682  -8.579   4.292  1.00  0.00     0.341 A
HETATM   11  O3  UNL     1     -24.494  -8.191   4.488  1.00  0.00    -0.246 OA
HETATM   12  N8  UNL     1     -26.091  -8.970   3.073  1.00  0.00    -0.233 N
HETATM   13  C12 UNL     1     -27.384  -9.307   3.237  1.00  0.00     0.135 A
HETATM   14  C13 UNL     1     -28.343  -9.787   2.344  1.00  0.00     0.146 A
HETATM   15  C15 UNL     1     -27.723  -9.105   4.587  1.00  0.00     0.162 A
HETATM   16  N10 UNL     1     -29.571 -10.039   2.830  1.00  0.00    -0.175 N
HETATM   17  C14 UNL     1     -29.896  -9.847   4.115  1.00  0.00     0.679 A
ATOM     18  H10 UNL     1     -30.286 -10.391   2.193  1.00  0.00     0.186 HD
HETATM   19  N11 UNL     1     -31.099 -10.113   4.507  1.00  0.00    -0.234 N
HETATM   20  N12 UNL     1     -28.988  -9.384   4.992  1.00  0.00    -0.174 N
ATOM     21 2H11 UNL     1     -31.789 -10.464   3.842  1.00  0.00     0.174 HD
ATOM     22 1H11 UNL     1     -31.347  -9.968   5.485  1.00  0.00     0.174 HD
ATOM     23  H12 UNL     1     -29.251  -9.241   5.967  1.00  0.00     0.186 HD
BRANCH  12  24
HETATM   24  C11 UNL     1     -25.325  -9.024   1.878  1.00  0.00     0.364 C
HETATM   25  O4  UNL     1     -25.469  -8.058   1.059  1.00  0.00    -0.283 OA
ENDBRANCH  12  24
BRANCH  14  26
HETATM   26  N9  UNL     1     -28.051  -9.981   1.116  1.00  0.00    -0.383 N
ATOM     27  H92 UNL     1     -27.870 -10.915   0.747  1.00  0.00     0.157 HD
ATOM     28  H91 UNL     1     -27.986  -9.198   0.467  1.00  0.00     0.157 HD
ENDBRANCH  14  26
ENDBRANCH   7   9
BRANCH   3  29
HETATM   29  N5  UNL     1     -28.000  -8.204   9.106  1.00  0.00    -0.050 N
ATOM     30  H53 UNL     1     -27.633  -7.253   9.147  1.00  0.00     0.276 HD
ATOM     31  H52 UNL     1     -28.648  -8.110   8.324  1.00  0.00     0.276 HD
ATOM     32  H51 UNL     1     -28.509  -8.423   9.962  1.00  0.00     0.276 HD
ENDBRANCH   3  29
BRANCH   1  33
HETATM   33  C5  UNL     1     -24.021  -6.758   8.720  1.00  0.00     0.084 A
HETATM   34  N1  UNL     1     -22.740  -7.105   8.525  1.00  0.00    -0.282 N
HETATM   35  C1  UNL     1     -22.236  -8.268   7.858  1.00  0.00     0.179 C
HETATM   36  N2  UNL     1     -21.945  -6.139   9.045  1.00  0.00    -0.240 N
HETATM   37  N3  UNL     1     -22.694  -5.199   9.557  1.00  0.00    -0.287 N
ATOM     38  H2  UNL     1     -20.925  -6.144   9.039  1.00  0.00     0.208 HD
HETATM   39  C2  UNL     1     -23.999  -5.540   9.377  1.00  0.00     0.071 A
ATOM     40  H3  UNL     1     -22.357  -4.353  10.015  1.00  0.00     0.188 HD
BRANCH  39  41
HETATM   41  C3  UNL     1     -25.186  -4.734   9.796  1.00  0.00     0.186 C
BRANCH  41  42
HETATM   42  N4  UNL     1     -25.436  -3.764   8.754  1.00  0.00    -0.330 N
HETATM   43  C4  UNL     1     -24.766  -2.504   8.864  1.00  0.00     0.283 C
HETATM   44  O1  UNL     1     -23.990  -2.225   9.832  1.00  0.00    -0.630 OA
HETATM   45  O2  UNL     1     -24.912  -1.498   7.920  1.00  0.00    -0.630 OA
ATOM     46  H4  UNL     1     -26.061  -3.969   7.976  1.00  0.00     0.165 HD
ENDBRANCH  41  42
ENDBRANCH  39  41
ENDBRANCH   1  33
TORSDOF 7
ENDMDL