MODEL 5
REMARK VINA RESULT: -7.156029572      1.524      1.854
REMARK  8 active torsions:
REMARK  status: ('A' for Active; 'I' for Inactive)
REMARK       I    between atoms: C2_2  and  N1_4
REMARK    1  A    between atoms: N1_4  and  C3_6
REMARK    2  A    between atoms: C4_9  and  N3_10
REMARK       I    between atoms: N3_10  and  C5_12
REMARK    3  A    between atoms: N5_14  and  C6_16
REMARK    4  A    between atoms: C6_16  and  C8_18
REMARK       I    between atoms: C8_18  and  N6_20
REMARK    5  A    between atoms: N6_20  and  O3_22
REMARK    6  A    between atoms: O3_22  and  C9_23
REMARK    7  A    between atoms: C10_27  and  N9_28
REMARK    8  A    between atoms: C12_32  and  N11_33
ROOT
HETATM    1  C8  UNL     1     -25.321  -6.753   8.801  1.00  0.00     0.263 C
HETATM    2  O2  UNL     1     -26.275  -6.062   9.219  1.00  0.00    -0.269 OA
HETATM    3  N6  UNL     1     -25.478  -8.062   8.273  1.00  0.00    -0.229 N
ATOM      4  H6  UNL     1     -24.632  -8.539   7.959  1.00  0.00     0.197 HD
ENDROOT
BRANCH   3   5
HETATM    5  O3  UNL     1     -26.637  -8.732   8.147  1.00  0.00    -0.225 OA
BRANCH   5   6
HETATM    6  C9  UNL     1     -26.838  -9.258   6.902  1.00  0.00     0.414 C
HETATM    7  N7  UNL     1     -28.160  -9.139   6.362  1.00  0.00    -0.075 NA
HETATM    8  N8  UNL     1     -27.946  -9.237   4.960  1.00  0.00    -0.263 N
HETATM    9  C10 UNL     1     -26.736  -8.873   4.700  1.00  0.00     0.261 C
ATOM     10  H8  UNL     1     -28.635  -9.544   4.274  1.00  0.00     0.186 HD
HETATM   11  O4  UNL     1     -26.110  -8.522   5.893  1.00  0.00    -0.270 OA
BRANCH   9  12
HETATM   12  N9  UNL     1     -26.132  -8.836   3.385  1.00  0.00    -0.104 N
HETATM   13  C11 UNL     1     -26.794  -9.358   2.318  1.00  0.00     0.228 A
HETATM   14  N10 UNL     1     -26.275  -9.340   1.086  1.00  0.00    -0.186 N
HETATM   15  C12 UNL     1     -25.070  -8.798   0.864  1.00  0.00     0.691 A
ATOM     16  H10 UNL     1     -26.800  -9.741   0.309  1.00  0.00     0.185 HD
HETATM   17  N12 UNL     1     -24.405  -8.277   1.917  1.00  0.00    -0.022 N
HETATM   18  C13 UNL     1     -24.925  -8.292   3.176  1.00  0.00     0.701 A
ATOM     19  H12 UNL     1     -23.486  -7.861   1.765  1.00  0.00     0.203 HD
HETATM   20  N13 UNL     1     -24.266  -7.784   4.185  1.00  0.00    -0.233 N
ATOM     21 2H13 UNL     1     -24.655  -7.795   5.128  1.00  0.00     0.174 HD
ATOM     22 1H13 UNL     1     -23.347  -7.371   4.026  1.00  0.00     0.174 HD
BRANCH  15  23
HETATM   23  N11 UNL     1     -24.535  -8.762  -0.319  1.00  0.00    -0.234 N
ATOM     24 2H11 UNL     1     -23.691  -9.303  -0.509  1.00  0.00     0.174 HD
ATOM     25 1H11 UNL     1     -24.929  -8.205  -1.077  1.00  0.00     0.174 HD
ENDBRANCH  15  23
ENDBRANCH   9  12
ENDBRANCH   5   6
ENDBRANCH   3   5
BRANCH   1  26
HETATM   26  C6  UNL     1     -23.950  -6.154   8.869  1.00  0.00     0.174 C
HETATM   27  C7  UNL     1     -24.036  -4.655   8.884  1.00  0.00     0.042 C
BRANCH  26  28
HETATM   28  N5  UNL     1     -23.202  -6.687   9.954  1.00  0.00    -0.351 N
HETATM   29  C5  UNL     1     -22.442  -7.697   9.882  1.00  0.00     0.192 C
HETATM   30  N3  UNL     1     -21.730  -8.147  11.061  1.00  0.00    -0.294 N
HETATM   31  N4  UNL     1     -22.291  -8.380   8.647  1.00  0.00    -0.063 NA
ATOM     32  H3  UNL     1     -21.465  -7.494  11.798  1.00  0.00     0.172 HD
ATOM     33  H5  UNL     1     -23.283  -6.220  10.857  1.00  0.00     0.163 HD
BRANCH  30  34
HETATM   34  C4  UNL     1     -21.443  -9.402  11.146  1.00  0.00     0.264 A
HETATM   35  N2  UNL     1     -20.367  -9.971  10.538  1.00  0.00    -0.151 N
HETATM   36  C3  UNL     1     -20.373 -11.282  10.836  1.00  0.00     0.708 A
ATOM     37  H2  UNL     1     -19.679  -9.489   9.961  1.00  0.00     0.188 HD
HETATM   38  N14 UNL     1     -21.448 -11.489  11.615  1.00  0.00    -0.087 N
HETATM   39  O5  UNL     1     -22.052 -10.358  11.775  1.00  0.00    -0.185 OA
ATOM     40  H14 UNL     1     -21.737 -12.383  12.011  1.00  0.00     0.214 HD
BRANCH  36  41
HETATM   41  N1  UNL     1     -19.418 -12.272  10.415  1.00  0.00    -0.158 N
HETATM   42  C2  UNL     1     -18.904 -13.165  11.376  1.00  0.00     0.232 C
HETATM   43  C1  UNL     1     -17.909 -14.214  11.018  1.00  0.00     0.118 C
HETATM   44  O1  UNL     1     -19.284 -13.090  12.574  1.00  0.00    -0.273 OA
ATOM     45  H1  UNL     1     -19.120 -12.326   9.440  1.00  0.00     0.187 HD
ENDBRANCH  36  41
ENDBRANCH  30  34
ENDBRANCH  26  28
ENDBRANCH   1  26
TORSDOF 8
ENDMDL