MODEL 4
REMARK VINA RESULT: -4.683855976      1.648      2.601
REMARK  0 active torsions:
REMARK  status: ('A' for Active; 'I' for Inactive)
ROOT
HETATM    1  C1  UNL     1      17.564   5.720  14.636  1.00  0.00     0.035 C
HETATM    2  C2  UNL     1      16.787   5.098  15.753  1.00  0.00     0.107 C
HETATM    3  N1  UNL     1      16.873   3.656  15.779  1.00  0.00    -0.358 N
ATOM      4  H1  UNL     1      17.618   3.079  15.390  1.00  0.00     0.162 HD
HETATM    5  C3  UNL     1      15.709   3.204  16.457  1.00  0.00     0.185 C
HETATM    6  N2  UNL     1      15.545   1.950  17.152  1.00  0.00    -0.064 NA
HETATM    7  N3  UNL     1      14.807   4.120  16.346  1.00  0.00    -0.354 N
ATOM      8  H3  UNL     1      13.869   4.051  16.742  1.00  0.00     0.163 HD
HETATM    9  C4  UNL     1      15.289   5.257  15.588  1.00  0.00     0.045 C
HETATM   10  C5  UNL     1      14.895   5.051  14.157  1.00  0.00     0.040 C
HETATM   11  C6  UNL     1      14.829   6.559  16.156  1.00  0.00     0.040 C
ENDROOT
TORSDOF 0
ENDMDL