MODEL 2
REMARK VINA RESULT: -5.135125894      0.100      1.445
REMARK  2 active torsions:
REMARK  status: ('A' for Active; 'I' for Inactive)
REMARK    1  A    between atoms: C2_2  and  N1_5
REMARK    2  A    between atoms: N1_5  and  N2_7
REMARK       I    between atoms: N2_7  and  C5_9
ROOT
HETATM    1  N2  UNL     1      15.916   3.898  15.451  1.00  0.00    -0.278 N
ATOM      2  H2  UNL     1      15.479   4.649  14.918  1.00  0.00     0.189 HD
HETATM    3  C5  UNL     1      16.528   2.830  14.758  1.00  0.00     0.200 C
HETATM    4  N3  UNL     1      16.960   3.025  13.567  1.00  0.00    -0.372 N
ATOM      5  H31 UNL     1      17.402   2.254  13.066  1.00  0.00     0.158 HD
ATOM      6  H32 UNL     1      16.865   3.936  13.117  1.00  0.00     0.158 HD
HETATM    7  N4  UNL     1      16.658   1.581  15.374  1.00  0.00    -0.062 NA
ENDROOT
BRANCH   1   8
HETATM    8  N1  UNL     1      15.895   3.947  16.736  1.00  0.00    -0.325 N
ATOM      9  H1  UNL     1      16.761   3.840  17.264  1.00  0.00     0.181 HD
BRANCH   8  10
HETATM   10  C2  UNL     1      14.643   4.156  17.436  1.00  0.00     0.035 C
HETATM   11  C1  UNL     1      14.931   3.989  18.928  1.00  0.00     0.039 C
HETATM   12  C3  UNL     1      13.650   3.076  17.072  1.00  0.00     0.039 C
HETATM   13  C4  UNL     1      14.141   5.530  17.118  1.00  0.00     0.039 C
ENDBRANCH   8  10
ENDBRANCH   1   8
TORSDOF 2
ENDMDL