MODEL 3
REMARK VINA RESULT: -4.602938446      3.099      3.733
REMARK  2 active torsions:
REMARK  status: ('A' for Active; 'I' for Inactive)
REMARK    1  A    between atoms: N1_4  and  N2_6
REMARK    2  A    between atoms: N2_6  and  C4_8
ROOT
HETATM    1  C1  UNL     1      14.794   7.149  14.457  1.00  0.00     0.064 C
HETATM    2  C2  UNL     1      15.892   6.242  14.816  1.00  0.00    -0.004 C
HETATM    3  C3  UNL     1      17.295   6.672  14.579  1.00  0.00     0.064 C
HETATM    4  N1  UNL     1      15.659   5.092  15.327  1.00  0.00    -0.308 N
ATOM      5  H1  UNL     1      14.687   4.821  15.480  1.00  0.00     0.186 HD
ENDROOT
BRANCH   4   6
HETATM    6  N2  UNL     1      16.658   4.189  15.687  1.00  0.00    -0.279 N
ATOM      7  H2  UNL     1      17.640   4.408  15.524  1.00  0.00     0.189 HD
BRANCH   6   8
HETATM    8  C4  UNL     1      16.284   2.964  16.282  1.00  0.00     0.199 C
HETATM    9  N3  UNL     1      16.992   1.785  15.920  1.00  0.00    -0.068 NA
HETATM   10  S1  UNL     1      15.057   2.934  17.361  1.00  0.00    -0.043 SA
ENDBRANCH   6   8
ENDBRANCH   4   6
TORSDOF 2
ENDMDL