MODEL 1
REMARK VINA RESULT: -4.715334732      0.000      0.000
REMARK  0 active torsions:
REMARK  status: ('A' for Active; 'I' for Inactive)
ROOT
HETATM    1  C1  UNL     1      14.481   4.064  16.633  1.00  0.00     0.032 C
HETATM    2  C2  UNL     1      15.572   3.048  16.934  1.00  0.00     0.235 C
HETATM    3  N1  UNL     1      16.372   3.002  15.738  1.00  0.00    -0.047 N
ATOM      4  H11 UNL     1      16.068   2.290  15.074  1.00  0.00     0.280 HD
ATOM      5  H12 UNL     1      17.312   2.636  15.893  1.00  0.00     0.280 HD
HETATM    6  C3  UNL     1      16.360   4.318  15.200  1.00  0.00     0.211 C
HETATM    7  C4  UNL     1      15.238   5.089  15.827  1.00  0.00     0.064 C
HETATM    8  C5  UNL     1      16.269   4.264  13.689  1.00  0.00     0.084 C
HETATM    9  C6  UNL     1      16.956   5.583  13.339  1.00  0.00     0.143 C
HETATM   10  N2  UNL     1      17.897   5.697  14.408  1.00  0.00    -0.338 N
ATOM     11  H2  UNL     1      18.739   6.271  14.359  1.00  0.00     0.179 HD
HETATM   12  N3  UNL     1      17.589   5.036  15.387  1.00  0.00    -0.305 N
ATOM     13  H3  UNL     1      18.144   4.998  16.241  1.00  0.00     0.182 HD
ENDROOT
TORSDOF 0
ENDMDL