MODEL 1
REMARK VINA RESULT: -5.561401929      0.000      0.000
REMARK  1 active torsions:
REMARK  status: ('A' for Active; 'I' for Inactive)
REMARK    1  A    between atoms: N2_4  and  C2_6
ROOT
HETATM    1  C2  UNL     1      16.364   3.691  16.205  1.00  0.00     0.156 A
HETATM    2  N3  UNL     1      16.693   2.390  16.337  1.00  0.00    -0.267 N
ATOM      3  H3  UNL     1      17.551   1.955  15.994  1.00  0.00     0.186 HD
HETATM    4  N4  UNL     1      15.719   1.773  16.984  1.00  0.00    -0.021 NA
HETATM    5  N5  UNL     1      14.746   2.613  17.292  1.00  0.00    -0.285 N
ATOM      6  H5  UNL     1      13.881   2.398  17.789  1.00  0.00     0.184 HD
HETATM    7  C3  UNL     1      15.133   3.810  16.816  1.00  0.00     0.066 A
HETATM    8  C4  UNL     1      14.368   5.081  16.917  1.00  0.00     0.073 C
ENDROOT
BRANCH   1   9
HETATM    9  N2  UNL     1      17.139   4.701  15.571  1.00  0.00    -0.288 N
HETATM   10  N1  UNL     1      17.148   4.879  14.336  1.00  0.00    -0.339 N
HETATM   11  C1  UNL     1      16.387   4.102  13.381  1.00  0.00     0.167 C
ATOM     12  H1  UNL     1      17.735   5.629  13.972  1.00  0.00     0.179 HD
ATOM     13  H2  UNL     1      17.715   5.310  16.154  1.00  0.00     0.188 HD
ENDBRANCH   1   9
TORSDOF 1
ENDMDL