MODEL 3
REMARK VINA RESULT: -4.609532340      3.790      5.182
REMARK  0 active torsions:
REMARK  status: ('A' for Active; 'I' for Inactive)
ROOT
HETATM    1  C1  UNL     1      15.922   4.295  13.641  1.00  0.00     0.068 C
HETATM    2  C2  UNL     1      16.113   4.449  15.133  1.00  0.00     0.216 C
HETATM    3  C3  UNL     1      17.206   5.454  15.358  1.00  0.00     0.068 C
HETATM    4  N1  UNL     1      16.485   3.176  15.739  1.00  0.00    -0.059 NA
HETATM    5  O1  UNL     1      16.138   3.324  17.029  1.00  0.00    -0.244 OA
HETATM    6  C4  UNL     1      14.902   3.954  17.004  1.00  0.00     0.242 C
HETATM    7  C5  UNL     1      14.760   4.733  18.282  1.00  0.00     0.080 C
HETATM    8  C6  UNL     1      13.828   2.894  17.016  1.00  0.00     0.080 C
HETATM    9  N2  UNL     1      14.891   4.768  15.825  1.00  0.00    -0.017 N
ATOM     10  H21 UNL     1      14.053   4.654  15.254  1.00  0.00     0.283 HD
ATOM     11  H22 UNL     1      14.772   5.763  16.013  1.00  0.00     0.283 HD
ENDROOT
TORSDOF 0
ENDMDL