MODEL 4
REMARK VINA RESULT: -4.582292257      1.784      3.411
REMARK  0 active torsions:
REMARK  status: ('A' for Active; 'I' for Inactive)
ROOT
HETATM    1  C1  UNL     1      16.092   7.090  14.717  1.00  0.00     0.046 C
HETATM    2  C2  UNL     1      15.940   5.637  15.072  1.00  0.00     0.120 C
HETATM    3  C3  UNL     1      15.390   4.818  13.918  1.00  0.00     0.046 C
HETATM    4  C4  UNL     1      15.015   5.541  16.276  1.00  0.00     0.059 C
HETATM    5  C5  UNL     1      15.448   4.332  17.040  1.00  0.00     0.120 C
HETATM    6  C6  UNL     1      14.447   3.263  17.000  1.00  0.00     0.065 C
HETATM    7  N1  UNL     1      13.656   2.423  16.965  1.00  0.00    -0.197 NA
HETATM    8  C7  UNL     1      16.686   3.895  16.297  1.00  0.00     0.252 C
HETATM    9  N2  UNL     1      17.146   5.016  15.525  1.00  0.00    -0.066 N
ATOM     10  H21 UNL     1      17.778   5.640  16.026  1.00  0.00     0.278 HD
ATOM     11  H22 UNL     1      17.799   4.773  14.780  1.00  0.00     0.278 HD
ENDROOT
TORSDOF 0
ENDMDL