MODEL 2
REMARK VINA RESULT: -4.784590249      2.623      3.878
REMARK  0 active torsions:
REMARK  status: ('A' for Active; 'I' for Inactive)
ROOT
HETATM    1  C1  UNL     1      16.735   1.894  11.110  1.00  0.00     0.098 C
HETATM    2  C2  UNL     1      16.677   2.602  12.432  1.00  0.00     0.125 A
HETATM    3  N1  UNL     1      16.503   3.928  12.518  1.00  0.00    -0.317 N
ATOM      4  H1  UNL     1      16.408   4.465  11.657  1.00  0.00     0.170 HD
HETATM    5  C3  UNL     1      16.449   4.583  13.698  1.00  0.00     0.180 A
HETATM    6  S1  UNL     1      16.235   6.204  13.795  1.00  0.00    -0.040 SA
HETATM    7  N2  UNL     1      16.575   3.881  14.840  1.00  0.00    -0.299 N
ATOM      8  H2  UNL     1      16.540   4.336  15.752  1.00  0.00     0.171 HD
HETATM    9  C4  UNL     1      16.749   2.547  14.725  1.00  0.00     0.225 A
HETATM   10  N3  UNL     1      16.871   1.857  15.800  1.00  0.00    -0.365 N
ATOM     11  H31 UNL     1      17.002   0.849  15.713  1.00  0.00     0.159 HD
ATOM     12  H32 UNL     1      16.834   2.323  16.707  1.00  0.00     0.159 HD
HETATM   13  O1  UNL     1      16.796   1.952  13.566  1.00  0.00    -0.267 OA
ENDROOT
TORSDOF 0
ENDMDL