MODEL 2
REMARK VINA RESULT: -4.849465179      2.620      4.827
REMARK  0 active torsions:
REMARK  status: ('A' for Active; 'I' for Inactive)
ROOT
HETATM    1  C1  UNL     1      17.063   5.824  14.762  1.00  0.00     0.066 C
HETATM    2  C2  UNL     1      17.031   4.633  13.831  1.00  0.00     0.025 C
HETATM    3  N1  UNL     1      17.531   4.620  12.661  1.00  0.00    -0.363 N
ATOM      4  H1  UNL     1      18.002   5.424  12.247  1.00  0.00     0.161 HD
HETATM    5  C3  UNL     1      17.370   3.374  11.986  1.00  0.00     0.192 C
HETATM    6  C4  UNL     1      18.662   2.965  11.330  1.00  0.00     0.070 C
HETATM    7  C5  UNL     1      16.192   3.342  11.064  1.00  0.00     0.070 C
HETATM    8  N2  UNL     1      17.058   2.457  13.102  1.00  0.00    -0.028 N
ATOM      9  H21 UNL     1      17.858   1.928  13.450  1.00  0.00     0.282 HD
ATOM     10  H22 UNL     1      16.499   1.645  12.837  1.00  0.00     0.282 HD
HETATM   11  C6  UNL     1      16.436   3.314  14.085  1.00  0.00     0.339 C
HETATM   12  C7  UNL     1      16.636   2.840  15.444  1.00  0.00     0.099 C
HETATM   13  N3  UNL     1      16.818   2.457  16.535  1.00  0.00    -0.195 NA
ENDROOT
TORSDOF 0
ENDMDL