MODEL 1
REMARK VINA RESULT: -5.304181700      0.000      0.000
REMARK  2 active torsions:
REMARK  status: ('A' for Active; 'I' for Inactive)
REMARK    1  A    between atoms: C2_2  and  O1_3
REMARK    2  A    between atoms: O1_3  and  C3_4
REMARK       I    between atoms: C3_4  and  N1_6
REMARK       I    between atoms: N1_6  and  C5_8
ROOT
HETATM    1  C3  UNL     1      16.342   3.960  13.731  1.00  0.00     0.368 C
HETATM    2  O2  UNL     1      16.216   4.919  12.934  1.00  0.00    -0.238 OA
HETATM    3  N1  UNL     1      15.927   4.044  15.078  1.00  0.00    -0.272 N
HETATM    4  C4  UNL     1      15.339   5.274  15.557  1.00  0.00     0.164 C
HETATM    5  C5  UNL     1      16.078   2.953  15.956  1.00  0.00     0.192 C
HETATM    6  N2  UNL     1      15.695   3.049  17.177  1.00  0.00    -0.373 N
ATOM      7  H21 UNL     1      15.805   2.259  17.813  1.00  0.00     0.158 HD
ATOM      8  H22 UNL     1      15.278   3.909  17.534  1.00  0.00     0.158 HD
HETATM    9  N3  UNL     1      16.660   1.754  15.460  1.00  0.00    -0.063 NA
ENDROOT
BRANCH   1  10
HETATM   10  O1  UNL     1      16.909   2.804  13.230  1.00  0.00    -0.304 OA
BRANCH  10  11
HETATM   11  C2  UNL     1      16.793   2.353  11.913  1.00  0.00     0.176 C
HETATM   12  C1  UNL     1      17.126   0.896  11.736  1.00  0.00     0.034 C
ENDBRANCH  10  11
ENDBRANCH   1  10
TORSDOF 2
ENDMDL