MODEL 4
REMARK VINA RESULT: -7.900475107      8.670     12.747
REMARK  6 active torsions:
REMARK  status: ('A' for Active; 'I' for Inactive)
REMARK    1  A    between atoms: N3_18  and  C9_19
REMARK    2  A    between atoms: C12_24  and  N5_25
REMARK    3  A    between atoms: N5_25  and  C13_27
REMARK    4  A    between atoms: C16_30  and  C17_31
REMARK    5  A    between atoms: C17_31  and  C18_32
REMARK    6  A    between atoms: C18_32  and  C19_33
ROOT
HETATM    1  C9  UNL     1      20.258  75.244  23.632  1.00  0.00     0.127 A
HETATM    2  C10 UNL     1      19.189  76.119  23.514  1.00  0.00     0.067 A
HETATM    3  C11 UNL     1      18.025  75.735  22.887  1.00  0.00     0.110 A
HETATM    4  N4  UNL     1      17.955  74.503  22.398  1.00  0.00    -0.202 N
ATOM      5  H4  UNL     1      17.094  74.214  21.933  1.00  0.00     0.183 HD
HETATM    6  C12 UNL     1      18.979  73.602  22.488  1.00  0.00     0.679 A
HETATM    7  N6  UNL     1      20.100  74.011  23.107  1.00  0.00    -0.176 N
ATOM      8  H6  UNL     1      20.875  73.351  23.183  1.00  0.00     0.186 HD
ENDROOT
BRANCH   1   9
HETATM    9  N3  UNL     1      21.441  75.676  24.285  1.00  0.00    -0.301 N
HETATM   10  C8  UNL     1      22.745  75.278  23.885  1.00  0.00     0.228 C
HETATM   11  C7  UNL     1      23.754  76.221  24.476  1.00  0.00     0.136 C
HETATM   12  O1  UNL     1      23.059  74.302  23.156  1.00  0.00    -0.273 OA
HETATM   13  C6  UNL     1      22.982  77.128  25.376  1.00  0.00     0.064 C
HETATM   14  N1  UNL     1      22.988  78.513  24.950  1.00  0.00    -0.358 N
HETATM   15  C5  UNL     1      23.547  77.032  26.777  1.00  0.00     0.119 C
HETATM   16  C26 UNL     1      21.582  76.560  25.428  1.00  0.00     0.165 C
HETATM   17  C1  UNL     1      22.161  79.026  23.879  1.00  0.00     0.152 C
HETATM   18  C2  UNL     1      23.854  79.418  25.620  1.00  0.00     0.153 C
HETATM   19  N2  UNL     1      23.546  80.677  25.761  1.00  0.00    -0.384 N
HETATM   20  C3  UNL     1      25.151  78.875  26.165  1.00  0.00     0.364 C
ATOM     21  H22 UNL     1      22.668  81.044  25.392  1.00  0.00     0.157 HD
ATOM     22  H21 UNL     1      24.168  81.326  26.243  1.00  0.00     0.157 HD
HETATM   23  F1  UNL     1      25.702  79.875  26.964  1.00  0.00    -0.191 F
HETATM   24  F2  UNL     1      26.007  78.709  25.091  1.00  0.00    -0.191 F
HETATM   25  C4  UNL     1      24.905  77.623  26.937  1.00  0.00     0.317 C
HETATM   26  F3  UNL     1      25.934  76.745  26.657  1.00  0.00    -0.199 F
HETATM   27  F4  UNL     1      25.055  77.940  28.295  1.00  0.00    -0.199 F
ENDBRANCH   1   9
BRANCH   6  28
HETATM   28  N5  UNL     1      18.807  72.443  21.985  1.00  0.00    -0.221 N
ATOM     29  H5  UNL     1      18.998  71.634  22.575  1.00  0.00     0.178 HD
BRANCH  28  30
HETATM   30  C13 UNL     1      18.362  72.201  20.638  1.00  0.00     0.099 C
HETATM   31  C14 UNL     1      16.928  71.721  20.590  1.00  0.00     0.026 C
HETATM   32  C15 UNL     1      16.783  70.316  21.111  1.00  0.00     0.006 C
HETATM   33  C16 UNL     1      17.858  69.371  20.716  1.00  0.00    -0.014 C
HETATM   34  C24 UNL     1      19.246  69.954  20.774  1.00  0.00     0.006 C
HETATM   35  C25 UNL     1      19.285  71.205  19.957  1.00  0.00     0.026 C
BRANCH  33  36
HETATM   36  C17 UNL     1      17.852  68.177  21.654  1.00  0.00     0.005 C
BRANCH  36  37
HETATM   37  C18 UNL     1      19.101  68.042  22.457  1.00  0.00     0.005 C
BRANCH  37  38
HETATM   38  C19 UNL     1      18.771  67.645  23.862  1.00  0.00    -0.010 C
HETATM   39  C20 UNL     1      17.341  68.030  24.244  1.00  0.00     0.031 C
HETATM   40  C21 UNL     1      17.067  67.400  25.605  1.00  0.00     0.168 C
HETATM   41  O2  UNL     1      18.196  66.788  26.120  1.00  0.00    -0.391 OA
HETATM   42  C22 UNL     1      19.268  67.657  26.241  1.00  0.00     0.168 C
HETATM   43  C23 UNL     1      19.669  68.260  24.892  1.00  0.00     0.031 C
ENDBRANCH  37  38
ENDBRANCH  36  37
ENDBRANCH  33  36
ENDBRANCH  28  30
ENDBRANCH   6  28
TORSDOF 6
ENDMDL