MODEL 1
REMARK VINA RESULT: -7.864684462      0.000      0.000
REMARK  8 active torsions:
REMARK  status: ('A' for Active; 'I' for Inactive)
REMARK    1  A    between atoms: C2_2  and  O1_3
REMARK    2  A    between atoms: C2_2  and  C3_5
REMARK    3  A    between atoms: C3_5  and  C4_6
REMARK    4  A    between atoms: C5_10  and  N2_12
REMARK       I    between atoms: N2_12  and  C6_14
REMARK    5  A    between atoms: C6_14  and  C7_16
REMARK    6  A    between atoms: C8_17  and  C9_18
REMARK    7  A    between atoms: C10_19  and  C11_20
REMARK    8  A    between atoms: C12_21  and  C13_22
ROOT
HETATM    1  N2  UNL     1      16.864  71.346  19.721  1.00  0.00    -0.271 N
ATOM      2  H2  UNL     1      17.477  71.631  18.958  1.00  0.00     0.171 HD
HETATM    3  C6  UNL     1      15.971  72.299  20.277  1.00  0.00     0.260 C
HETATM    4  O3  UNL     1      15.236  71.812  21.225  1.00  0.00    -0.267 OA
ENDROOT
BRANCH   3   5
HETATM    5  C7  UNL     1      15.846  73.684  19.865  1.00  0.00     0.065 A
HETATM    6  C8  UNL     1      16.580  74.704  20.528  1.00  0.00    -0.019 A
HETATM    7  C15 UNL     1      16.522  75.986  20.068  1.00  0.00     0.014 A
HETATM    8  C16 UNL     1      15.772  76.349  18.972  1.00  0.00     0.022 A
HETATM    9  C17 UNL     1      15.052  75.380  18.314  1.00  0.00     0.033 A
HETATM   10 BR2  UNL     1      13.990  75.832  16.787  1.00  0.00    -0.049 Br
HETATM   11  C18 UNL     1      15.105  74.078  18.774  1.00  0.00     0.068 A
HETATM   12 CL1  UNL     1      14.194  72.880  17.853  1.00  0.00    -0.082 Cl
BRANCH   6  13
HETATM   13  C9  UNL     1      17.280  74.377  21.747  1.00  0.00     0.012 C
HETATM   14  C10 UNL     1      18.050  74.987  22.563  1.00  0.00     0.001 C
BRANCH  14  15
HETATM   15  C11 UNL     1      18.574  76.328  22.602  1.00  0.00     0.000 C
HETATM   16  C12 UNL     1      18.144  77.230  23.465  1.00  0.00     0.001 C
BRANCH  16  17
HETATM   17  C13 UNL     1      17.133  76.974  24.431  1.00  0.00     0.007 C
HETATM   18  C14 UNL     1      16.600  77.997  25.109  1.00  0.00     0.056 C
HETATM   19 BR1  UNL     1      17.202  79.748  24.763  1.00  0.00    -0.064 Br
ENDBRANCH  16  17
ENDBRANCH  14  15
ENDBRANCH   6  13
ENDBRANCH   3   5
BRANCH   1  20
HETATM   20  C5  UNL     1      16.933  69.978  20.204  1.00  0.00     0.442 A
HETATM   21  O2  UNL     1      15.747  69.569  20.814  1.00  0.00    -0.187 OA
HETATM   22  N1  UNL     1      16.074  69.039  22.010  1.00  0.00    -0.241 N
HETATM   23  C4  UNL     1      17.329  69.146  22.281  1.00  0.00     0.148 A
ATOM     24  H1  UNL     1      15.398  68.599  22.635  1.00  0.00     0.196 HD
HETATM   25  O4  UNL     1      17.901  69.792  21.197  1.00  0.00    -0.253 OA
HETATM   26  F1  UNL     1      17.292  69.115  19.153  1.00  0.00    -0.156 F
BRANCH  23  27
HETATM   27  C3  UNL     1      18.019  68.665  23.518  1.00  0.00     0.117 C
BRANCH  27  28
HETATM   28  C2  UNL     1      17.363  67.419  24.058  1.00  0.00     0.121 C
HETATM   29  C1  UNL     1      18.000  66.922  25.320  1.00  0.00     0.040 C
BRANCH  28  30
HETATM   30  O1  UNL     1      15.995  67.592  24.233  1.00  0.00    -0.396 OA
ATOM     31  H1  UNL     1      15.582  67.849  23.418  1.00  0.00     0.210 HD
ENDBRANCH  28  30
ENDBRANCH  27  28
ENDBRANCH  23  27
ENDBRANCH   1  20
TORSDOF 8
ENDMDL