MODEL 5
REMARK VINA RESULT: -7.272373993      3.007      8.452
REMARK  9 active torsions:
REMARK  status: ('A' for Active; 'I' for Inactive)
REMARK    1  A    between atoms: C5_5  and  C6_6
REMARK    2  A    between atoms: C7_7  and  C8_8
REMARK    3  A    between atoms: C10_11  and  C11_12
REMARK    4  A    between atoms: C11_12  and  O1_13
REMARK    5  A    between atoms: N1_15  and  C12_17
REMARK    6  A    between atoms: N3_21  and  C14_23
REMARK    7  A    between atoms: C17_29  and  C18_30
REMARK    8  A    between atoms: C19_34  and  C20_35
REMARK    9  A    between atoms: C20_35  and  N5_36
ROOT
HETATM    1  C12 UNL     1      17.008  68.995  17.878  1.00  0.00     0.152 A
HETATM    2  N2  UNL     1      16.573  70.306  17.842  1.00  0.00    -0.322 N
ATOM      3  H2  UNL     1      16.367  70.703  16.925  1.00  0.00     0.169 HD
HETATM    4  C13 UNL     1      16.404  71.083  18.879  1.00  0.00     0.119 A
HETATM    5  N3  UNL     1      15.613  72.176  18.716  1.00  0.00    -0.368 N
ATOM      6  H3  UNL     1      15.481  72.819  19.496  1.00  0.00     0.161 HD
HETATM    7  C17 UNL     1      16.584  70.859  20.237  1.00  0.00     0.106 A
HETATM    8  C19 UNL     1      17.009  69.580  20.686  1.00  0.00     0.023 A
HETATM    9  S1  UNL     1      17.281  68.466  19.469  1.00  0.00    -0.056 SA
ENDROOT
BRANCH   1  10
HETATM   10  N1  UNL     1      17.267  68.427  16.800  1.00  0.00    -0.320 N
HETATM   11  C11 UNL     1      17.166  67.327  16.041  1.00  0.00     0.122 C
ATOM     12  H1  UNL     1      17.792  69.103  16.246  1.00  0.00     0.169 HD
BRANCH  11  13
HETATM   13  C10 UNL     1      16.092  66.739  15.177  1.00  0.00     0.069 C
HETATM   14  C2  UNL     1      15.335  65.669  15.897  1.00  0.00    -0.036 C
HETATM   15  C1  UNL     1      15.800  65.410  17.315  1.00  0.00     0.015 C
HETATM   16  C3  UNL     1      15.220  64.369  15.158  1.00  0.00     0.015 C
HETATM   17  C4  UNL     1      13.904  66.195  16.062  1.00  0.00     0.018 C
HETATM   18  C5  UNL     1      13.760  67.281  15.021  1.00  0.00     0.009 C
HETATM   19  C9  UNL     1      15.101  67.837  14.788  1.00  0.00     0.022 C
BRANCH  18  20
HETATM   20  C6  UNL     1      12.930  66.861  13.886  1.00  0.00    -0.024 C
HETATM   21  C7  UNL     1      11.702  67.259  13.568  1.00  0.00     0.000 C
BRANCH  21  22
HETATM   22  C8  UNL     1      10.930  68.243  14.351  1.00  0.00     0.249 C
HETATM   23  F1  UNL     1      11.448  69.526  14.094  1.00  0.00    -0.251 F
ENDBRANCH  21  22
ENDBRANCH  18  20
ENDBRANCH  11  13
BRANCH  11  24
HETATM   24  O1  UNL     1      18.254  66.588  16.027  1.00  0.00    -0.349 OA
ATOM     25  H1  UNL     1      18.209  65.892  16.673  1.00  0.00     0.219 HD
ENDBRANCH  11  24
ENDBRANCH   1  10
BRANCH   8  26
HETATM   26  C20 UNL     1      17.090  69.377  22.143  1.00  0.00     0.169 C
BRANCH  26  27
HETATM   27  N5  UNL     1      18.085  68.455  22.532  1.00  0.00    -0.389 N
HETATM   28  C21 UNL     1      17.356  67.303  23.151  1.00  0.00     0.122 C
HETATM   29  C22 UNL     1      16.823  67.734  24.460  1.00  0.00     0.020 C
HETATM   30  C23 UNL     1      17.743  67.342  25.603  1.00  0.00     0.002 C
HETATM   31  C24 UNL     1      19.184  67.266  25.125  1.00  0.00     0.005 C
HETATM   32  C25 UNL     1      19.581  68.529  24.444  1.00  0.00     0.044 C
HETATM   33  C26 UNL     1      19.354  68.509  22.932  1.00  0.00     0.058 C
ENDBRANCH  26  27
ENDBRANCH   8  26
BRANCH   5  34
HETATM   34  C14 UNL     1      14.983  72.435  17.513  1.00  0.00     0.134 C
HETATM   35  C15 UNL     1      15.536  73.464  16.586  1.00  0.00     0.259 C
HETATM   36  N4  UNL     1      14.946  74.515  17.405  1.00  0.00    -0.071 N
HETATM   37  C16 UNL     1      13.905  73.543  17.782  1.00  0.00     0.259 C
ATOM     38  H42 UNL     1      15.495  75.003  18.114  1.00  0.00     0.277 HD
ATOM     39  H41 UNL     1      14.703  75.421  17.005  1.00  0.00     0.277 HD
ENDBRANCH   5  34
BRANCH   7  40
HETATM   40  C18 UNL     1      16.349  71.957  21.232  1.00  0.00     0.422 C
HETATM   41  F2  UNL     1      16.861  73.169  20.945  1.00  0.00    -0.166 F
HETATM   42  F3  UNL     1      15.230  71.860  21.980  1.00  0.00    -0.166 F
HETATM   43  F4  UNL     1      17.344  71.576  22.305  1.00  0.00    -0.166 F
ENDBRANCH   7  40
TORSDOF 9
ENDMDL