MODEL 4
REMARK VINA RESULT: -7.237337898      4.257      7.293
REMARK  9 active torsions:
REMARK  status: ('A' for Active; 'I' for Inactive)
REMARK    1  A    between atoms: C5_5  and  C6_6
REMARK       I    between atoms: C6_6  and  N1_8
REMARK    2  A    between atoms: N1_8  and  C7_10
REMARK    3  A    between atoms: C10_13  and  C11_14
REMARK    4  A    between atoms: C11_14  and  N2_15
REMARK    5  A    between atoms: N2_15  and  C12_17
REMARK    6  A    between atoms: N3_23  and  C18_24
REMARK    7  A    between atoms: C18_24  and  O2_25
REMARK    8  A    between atoms: C18_24  and  C19_27
REMARK    9  A    between atoms: C26_37  and  C27_38
ROOT
HETATM    1  C7  UNL     1      17.083  71.844  21.214  1.00  0.00     0.084 C
HETATM    2  C8  UNL     1      15.610  71.722  21.164  1.00  0.00     0.026 C
HETATM    3  C9  UNL     1      14.934  72.980  20.764  1.00  0.00     0.012 C
HETATM    4  C10 UNL     1      15.951  73.925  20.135  1.00  0.00     0.024 C
HETATM    5  C23 UNL     1      17.039  74.321  21.050  1.00  0.00     0.012 C
HETATM    6  C24 UNL     1      17.566  73.128  21.834  1.00  0.00     0.026 C
ENDROOT
BRANCH   4   7
HETATM    7  C11 UNL     1      15.229  74.953  19.357  1.00  0.00     0.060 C
BRANCH   7   8
HETATM    8  N2  UNL     1      15.586  75.274  18.037  1.00  0.00    -0.397 N
ATOM      9  H2  UNL     1      16.376  75.894  17.860  1.00  0.00     0.159 HD
BRANCH   8  10
HETATM   10  C12 UNL     1      14.850  74.737  16.945  1.00  0.00     0.084 C
HETATM   11  C13 UNL     1      13.675  73.899  17.435  1.00  0.00     0.050 C
HETATM   12  C14 UNL     1      13.473  72.661  16.616  1.00  0.00     0.090 C
HETATM   13  C15 UNL     1      13.780  72.929  15.138  1.00  0.00     0.050 C
HETATM   14  N3  UNL     1      14.582  71.811  16.688  1.00  0.00    -0.350 N
HETATM   15  C16 UNL     1      15.160  72.659  15.577  1.00  0.00     0.090 C
HETATM   16  C17 UNL     1      15.806  73.882  16.120  1.00  0.00     0.050 C
BRANCH  14  17
HETATM   17  C18 UNL     1      15.197  70.717  17.299  1.00  0.00     0.168 C
BRANCH  17  18
HETATM   18  O2  UNL     1      16.317  71.037  17.959  1.00  0.00    -0.344 OA
ATOM     19  H2  UNL     1      16.932  70.316  18.029  1.00  0.00     0.219 HD
ENDBRANCH  17  18
BRANCH  17  20
HETATM   20  C19 UNL     1      14.908  69.320  17.387  1.00  0.00     0.102 A
HETATM   21  C20 UNL     1      15.396  68.463  18.406  1.00  0.00     0.054 A
HETATM   22  C21 UNL     1      14.920  67.201  18.188  1.00  0.00     0.110 A
HETATM   23  N4  UNL     1      14.174  67.259  17.093  1.00  0.00    -0.310 N
HETATM   24  N5  UNL     1      14.170  68.527  16.617  1.00  0.00    -0.293 N
ATOM     25  H4  UNL     1      13.681  66.471  16.675  1.00  0.00     0.186 HD
HETATM   26  C22 UNL     1      13.405  68.811  15.427  1.00  0.00     0.178 C
ENDBRANCH  17  20
ENDBRANCH  14  17
ENDBRANCH   8  10
ENDBRANCH   7   8
ENDBRANCH   4   7
BRANCH   1  27
HETATM   27  N1  UNL     1      17.617  70.715  21.953  1.00  0.00    -0.356 N
HETATM   28  C6  UNL     1      18.195  69.597  21.343  1.00  0.00     0.222 C
HETATM   29  O1  UNL     1      18.234  69.596  20.061  1.00  0.00    -0.273 OA
ATOM     30  H1  UNL     1      17.567  70.737  22.972  1.00  0.00     0.162 HD
BRANCH  28  31
HETATM   31  C5  UNL     1      18.766  68.423  22.016  1.00  0.00     0.078 C
HETATM   32  C4  UNL     1      19.917  68.806  22.931  1.00  0.00     0.014 C
HETATM   33  C3  UNL     1      20.295  67.603  23.758  1.00  0.00     0.006 C
HETATM   34  C2  UNL     1      19.244  67.321  24.811  1.00  0.00    -0.006 C
HETATM   35  C1  UNL     1      19.695  68.010  26.079  1.00  0.00     0.010 C
HETATM   36  C26 UNL     1      17.931  67.960  24.349  1.00  0.00     0.098 C
HETATM   37  C25 UNL     1      17.756  67.691  22.852  1.00  0.00     0.028 C
BRANCH  36  38
HETATM   38  C27 UNL     1      16.769  67.288  25.047  1.00  0.00     0.391 C
HETATM   39  F1  UNL     1      17.109  65.969  25.201  1.00  0.00    -0.171 F
HETATM   40  F2  UNL     1      16.443  67.888  26.245  1.00  0.00    -0.171 F
HETATM   41  F3  UNL     1      15.674  67.368  24.215  1.00  0.00    -0.171 F
ENDBRANCH  36  38
ENDBRANCH  28  31
ENDBRANCH   1  27
TORSDOF 9
ENDMDL