MODEL 4
REMARK VINA RESULT: -6.910185290      4.347      6.855
REMARK  8 active torsions:
REMARK  status: ('A' for Active; 'I' for Inactive)
REMARK    1  A    between atoms: C2_2  and  C3_3
REMARK    2  A    between atoms: C7_7  and  N1_8
REMARK    3  A    between atoms: N1_8  and  C8_10
REMARK    4  A    between atoms: C11_15  and  N3_16
REMARK    5  A    between atoms: N3_16  and  C12_18
REMARK    6  A    between atoms: N4_21  and  C15_22
REMARK    7  A    between atoms: C15_22  and  C16_23
REMARK    8  A    between atoms: C22_32  and  N6_33
ROOT
HETATM    1  C8  UNL     1      16.643  74.689  20.223  1.00  0.00     0.118 A
HETATM    2  C9  UNL     1      15.585  75.416  19.651  1.00  0.00     0.066 A
HETATM    3  C10 UNL     1      14.598  74.796  18.955  1.00  0.00     0.110 A
HETATM    4  N2  UNL     1      14.667  73.445  18.830  1.00  0.00    -0.202 N
ATOM      5  H2  UNL     1      13.938  72.953  18.312  1.00  0.00     0.183 HD
HETATM    6  C11 UNL     1      15.664  72.750  19.369  1.00  0.00     0.679 A
HETATM    7  N5  UNL     1      16.654  73.377  20.066  1.00  0.00    -0.177 N
ATOM      8  H5  UNL     1      17.412  72.827  20.470  1.00  0.00     0.185 HD
ENDROOT
BRANCH   1   9
HETATM    9  N1  UNL     1      17.479  75.346  20.831  1.00  0.00    -0.369 N
ATOM     10  H1  UNL     1      17.628  76.179  20.261  1.00  0.00     0.161 HD
BRANCH   9  11
HETATM   11  C7  UNL     1      18.311  75.498  21.911  1.00  0.00     0.120 C
HETATM   12  C5  UNL     1      18.219  76.885  22.515  1.00  0.00     0.007 C
HETATM   13  C4  UNL     1      19.632  77.386  22.746  1.00  0.00     0.013 C
HETATM   14  C6  UNL     1      17.565  76.878  23.893  1.00  0.00     0.012 C
HETATM   15  C3  UNL     1      20.533  76.149  22.576  1.00  0.00     0.021 C
HETATM   16  C22 UNL     1      19.771  75.467  21.482  1.00  0.00     0.250 C
BRANCH  15  17
HETATM   17  C2  UNL     1      20.514  75.452  23.893  1.00  0.00     0.002 C
HETATM   18  C1  UNL     1      21.857  75.150  24.496  1.00  0.00     0.005 C
ENDBRANCH  15  17
BRANCH  16  19
HETATM   19  N6  UNL     1      20.311  74.237  21.112  1.00  0.00     0.104 N
HETATM   20  C23 UNL     1      20.313  73.998  19.687  1.00  0.00     0.316 C
HETATM   21  C24 UNL     1      20.627  72.503  19.534  1.00  0.00     0.272 C
HETATM   22  F1  UNL     1      19.593  71.854  18.880  1.00  0.00    -0.241 F
HETATM   23  C25 UNL     1      20.624  71.977  20.958  1.00  0.00     0.301 C
HETATM   24  F2  UNL     1      21.892  71.993  21.466  1.00  0.00    -0.201 F
HETATM   25  F3  UNL     1      20.033  70.733  21.040  1.00  0.00    -0.201 F
HETATM   26  C26 UNL     1      19.756  73.045  21.643  1.00  0.00     0.355 C
ENDBRANCH  16  19
ENDBRANCH   9  11
ENDBRANCH   1   9
BRANCH   6  27
HETATM   27  N3  UNL     1      15.716  71.457  19.241  1.00  0.00    -0.221 N
ATOM     28  H3  UNL     1      15.096  70.992  18.579  1.00  0.00     0.178 HD
BRANCH  27  29
HETATM   29  C12 UNL     1      16.621  70.685  20.007  1.00  0.00     0.108 C
HETATM   30  C13 UNL     1      16.349  69.184  19.730  1.00  0.00     0.070 C
HETATM   31  C14 UNL     1      17.473  68.466  20.427  1.00  0.00     0.065 C
HETATM   32  N4  UNL     1      17.577  68.692  21.804  1.00  0.00    -0.370 N
HETATM   33  C20 UNL     1      17.255  69.962  22.321  1.00  0.00     0.065 C
HETATM   34  C21 UNL     1      16.352  70.810  21.488  1.00  0.00     0.070 C
BRANCH  32  35
HETATM   35  C15 UNL     1      18.709  68.025  22.345  1.00  0.00     0.166 C
BRANCH  35  36
HETATM   36  C16 UNL     1      18.577  67.782  23.847  1.00  0.00    -0.033 A
HETATM   37  C17 UNL     1      17.475  67.276  24.412  1.00  0.00     0.016 A
HETATM   38  C18 UNL     1      17.477  67.101  25.768  1.00  0.00     0.050 A
HETATM   39  S1  UNL     1      19.026  67.649  26.220  1.00  0.00    -0.113 SA
HETATM   40  C19 UNL     1      19.625  68.084  24.686  1.00  0.00     0.058 A
ENDBRANCH  35  36
ENDBRANCH  32  35
ENDBRANCH  27  29
ENDBRANCH   6  27
TORSDOF 8
ENDMDL