MODEL 3
REMARK VINA RESULT: -8.940281900      4.619      7.797
REMARK  6 active torsions:
REMARK  status: ('A' for Active; 'I' for Inactive)
REMARK       I    between atoms: C1_2  and  N1_3
REMARK    1  A    between atoms: C1_2  and  C21_31
REMARK    2  A    between atoms: N1_3  and  C2_5
REMARK    3  A    between atoms: C4_7  and  C5_8
REMARK    4  A    between atoms: C5_8  and  C6_9
REMARK    5  A    between atoms: C6_9  and  N2_10
REMARK       I    between atoms: N3_19  and  C13_20
REMARK    6  A    between atoms: C13_20  and  C14_22
ROOT
HETATM    1  C2  UNL     1      20.068  68.750  20.076  1.00  0.00     0.103 C
HETATM    2  C3  UNL     1      19.681  70.150  19.755  1.00  0.00     0.033 C
HETATM    3  C4  UNL     1      20.798  71.042  19.330  1.00  0.00     0.007 C
HETATM    4  C12 UNL     1      22.108  70.808  19.990  1.00  0.00     0.130 C
HETATM    5  N3  UNL     1      22.434  69.406  19.900  1.00  0.00    -0.349 N
HETATM    6  C13 UNL     1      23.795  69.032  20.024  1.00  0.00     0.224 C
HETATM    7  O2  UNL     1      24.676  69.937  20.217  1.00  0.00    -0.273 OA
HETATM    8  C20 UNL     1      21.464  68.369  19.702  1.00  0.00     0.150 C
ENDROOT
BRANCH   1   9
HETATM    9  N1  UNL     1      19.928  68.557  21.507  1.00  0.00    -0.349 N
HETATM   10  C1  UNL     1      18.705  68.192  22.102  1.00  0.00     0.275 C
HETATM   11  O1  UNL     1      17.662  68.011  21.429  1.00  0.00    -0.265 OA
ATOM     12  H1  UNL     1      20.746  68.689  22.103  1.00  0.00     0.163 HD
BRANCH  10  13
HETATM   13  C21 UNL     1      18.625  68.011  23.564  1.00  0.00     0.146 A
HETATM   14  C22 UNL     1      19.676  68.034  24.456  1.00  0.00     0.060 A
HETATM   15  C23 UNL     1      19.182  67.823  25.731  1.00  0.00     0.036 A
HETATM   16  C24 UNL     1      19.447  67.697  27.076  1.00  0.00     0.123 A
HETATM   17  C25 UNL     1      17.820  67.677  25.557  1.00  0.00     0.174 A
HETATM   18  N4  UNL     1      18.282  67.481  27.700  1.00  0.00    -0.309 N
HETATM   19  N5  UNL     1      17.328  67.471  26.791  1.00  0.00    -0.279 N
ATOM     20  H4  UNL     1      18.155  67.347  28.704  1.00  0.00     0.186 HD
ATOM     21  H5  UNL     1      16.340  67.326  26.998  1.00  0.00     0.189 HD
HETATM   22  O3  UNL     1      17.547  67.796  24.270  1.00  0.00    -0.286 OA
ENDBRANCH  10  13
ENDBRANCH   1   9
BRANCH   3  23
HETATM   23  C5  UNL     1      20.316  72.484  19.591  1.00  0.00     0.036 C
BRANCH  23  24
HETATM   24  C6  UNL     1      18.842  72.603  19.437  1.00  0.00     0.273 C
BRANCH  24  25
HETATM   25  N2  UNL     1      18.286  73.365  20.506  1.00  0.00     0.088 N
HETATM   26  C7  UNL     1      17.200  74.231  20.069  1.00  0.00     0.278 C
HETATM   27  C8  UNL     1      15.951  73.929  20.853  1.00  0.00     0.109 C
HETATM   28  C9  UNL     1      15.632  72.472  20.889  1.00  0.00     0.246 C
HETATM   29  F1  UNL     1      14.548  72.305  21.752  1.00  0.00    -0.206 F
HETATM   30  F2  UNL     1      15.245  71.946  19.685  1.00  0.00    -0.206 F
HETATM   31  C10 UNL     1      16.790  71.721  21.526  1.00  0.00     0.109 C
HETATM   32  C11 UNL     1      17.968  72.654  21.696  1.00  0.00     0.278 C
ENDBRANCH  24  25
ENDBRANCH  23  24
ENDBRANCH   3  23
BRANCH   6  33
HETATM   33  C14 UNL     1      24.247  67.615  19.936  1.00  0.00     0.078 C
HETATM   34  C15 UNL     1      25.013  67.242  21.197  1.00  0.00     0.020 C
HETATM   35  C16 UNL     1      25.181  65.748  21.153  1.00  0.00     0.080 C
HETATM   36  C17 UNL     1      26.024  65.374  19.986  1.00  0.00     0.243 C
HETATM   37  F3  UNL     1      25.456  64.287  19.336  1.00  0.00    -0.206 F
HETATM   38  F4  UNL     1      27.250  64.919  20.488  1.00  0.00    -0.206 F
HETATM   39  C18 UNL     1      26.310  66.507  19.063  1.00  0.00     0.080 C
HETATM   40  C19 UNL     1      25.095  67.344  18.711  1.00  0.00     0.020 C
ENDBRANCH   6  33
TORSDOF 6
ENDMDL