MODEL 2
REMARK VINA RESULT: -7.647717584      5.495     13.210
REMARK  6 active torsions:
REMARK  status: ('A' for Active; 'I' for Inactive)
REMARK       I    between atoms: C1_2  and  N1_3
REMARK       I    between atoms: C1_2  and  N3_20
REMARK    1  A    between atoms: N1_3  and  C2_5
REMARK    2  A    between atoms: C5_8  and  N2_9
REMARK    3  A    between atoms: N2_9  and  C6_11
REMARK    4  A    between atoms: C15_23  and  O2_24
REMARK    5  A    between atoms: O2_24  and  C16_25
REMARK    6  A    between atoms: N4_28  and  C19_29
ROOT
HETATM    1  O1  UNL     1      19.838  73.103  20.537  1.00  0.00    -0.247 OA
HETATM    2  C1  UNL     1      18.811  72.633  21.082  1.00  0.00     0.318 C
HETATM    3  N1  UNL     1      18.112  73.417  22.014  1.00  0.00    -0.338 N
ATOM      4  H1  UNL     1      17.275  73.043  22.462  1.00  0.00     0.164 HD
HETATM    5  N3  UNL     1      18.413  71.321  20.717  1.00  0.00    -0.331 N
HETATM    6  C13 UNL     1      19.130  70.534  19.740  1.00  0.00     0.130 C
HETATM    7  C14 UNL     1      18.137  69.541  19.123  1.00  0.00     0.055 C
HETATM    8  C15 UNL     1      17.581  68.592  20.169  1.00  0.00     0.159 C
HETATM    9  C25 UNL     1      17.626  69.221  21.522  1.00  0.00     0.217 C
HETATM   10  F4  UNL     1      16.775  68.662  22.442  1.00  0.00    -0.245 F
HETATM   11  C26 UNL     1      17.258  70.701  21.328  1.00  0.00     0.167 C
ENDROOT
BRANCH   3  12
HETATM   12  C2  UNL     1      18.569  74.754  22.348  1.00  0.00     0.086 C
HETATM   13  C3  UNL     1      19.734  74.626  23.287  1.00  0.00     0.027 C
HETATM   14  C4  UNL     1      20.300  75.973  23.680  1.00  0.00     0.027 C
HETATM   15  C5  UNL     1      19.350  77.033  23.946  1.00  0.00     0.077 C
HETATM   16  C11 UNL     1      17.946  76.857  23.412  1.00  0.00     0.027 C
HETATM   17  C12 UNL     1      17.499  75.467  23.186  1.00  0.00     0.027 C
BRANCH  15  18
HETATM   18  N2  UNL     1      19.727  78.365  23.708  1.00  0.00    -0.407 N
ATOM     19  H2  UNL     1      20.634  78.662  24.067  1.00  0.00     0.154 HD
BRANCH  18  20
HETATM   20  C6  UNL     1      18.982  79.306  23.033  1.00  0.00     0.149 C
HETATM   21  C7  UNL     1      19.050  80.696  23.580  1.00  0.00     0.031 C
HETATM   22  C8  UNL     1      20.473  81.106  23.163  1.00  0.00     0.008 C
HETATM   23  C9  UNL     1      20.726  80.364  21.870  1.00  0.00     0.081 C
HETATM   24  C10 UNL     1      19.493  79.566  21.603  1.00  0.00     0.263 C
HETATM   25  F1  UNL     1      18.560  80.385  20.999  1.00  0.00    -0.204 F
HETATM   26  F2  UNL     1      19.718  78.399  20.927  1.00  0.00    -0.204 F
ENDBRANCH  18  20
ENDBRANCH  15  18
ENDBRANCH   3  12
BRANCH   8  27
HETATM   27  O2  UNL     1      16.258  68.316  19.834  1.00  0.00    -0.376 OA
BRANCH  27  28
HETATM   28  C16 UNL     1      16.171  68.046  18.488  1.00  0.00     0.141 C
HETATM   29  C17 UNL     1      14.827  68.406  17.901  1.00  0.00     0.053 C
HETATM   30  C18 UNL     1      14.163  67.062  17.706  1.00  0.00     0.127 C
HETATM   31  N4  UNL     1      15.288  66.235  17.347  1.00  0.00    -0.365 N
HETATM   32  C24 UNL     1      16.357  66.548  18.255  1.00  0.00     0.156 C
BRANCH  31  33
HETATM   33  C19 UNL     1      15.318  65.299  16.296  1.00  0.00     0.105 A
HETATM   34  C20 UNL     1      14.933  65.681  15.021  1.00  0.00     0.048 A
HETATM   35  C21 UNL     1      14.931  64.834  13.931  1.00  0.00     0.008 A
HETATM   36  C22 UNL     1      15.341  63.526  14.151  1.00  0.00     0.061 A
HETATM   37  C23 UNL     1      15.719  63.165  15.431  1.00  0.00     0.189 A
HETATM   38  F3  UNL     1      16.121  61.893  15.656  1.00  0.00    -0.186 F
HETATM   39  N5  UNL     1      15.707  64.021  16.459  1.00  0.00    -0.319 N
ATOM     40  H5  UNL     1      15.998  63.700  17.383  1.00  0.00     0.169 HD
ENDBRANCH  31  33
ENDBRANCH  27  28
ENDBRANCH   8  27
TORSDOF 6
ENDMDL