MODEL 1
REMARK VINA RESULT: -7.796555774      0.000      0.000
REMARK  8 active torsions:
REMARK  status: ('A' for Active; 'I' for Inactive)
REMARK    1  A    between atoms: C7_8  and  N1_9
REMARK    2  A    between atoms: N2_12  and  C10_13
REMARK    3  A    between atoms: C10_13  and  C11_14
REMARK    4  A    between atoms: C11_14  and  N3_15
REMARK    5  A    between atoms: N3_15  and  C12_17
REMARK    6  A    between atoms: C15_22  and  N5_23
REMARK    7  A    between atoms: N5_23  and  C16_25
REMARK    8  A    between atoms: C16_25  and  C17_27
ROOT
HETATM    1  C12 UNL     1      15.754  67.306  18.460  1.00  0.00     0.681 A
HETATM    2  N4  UNL     1      15.003  68.151  17.739  1.00  0.00    -0.176 N
ATOM      3  H4  UNL     1      14.890  69.114  18.055  1.00  0.00     0.186 HD
HETATM    4  C13 UNL     1      14.398  67.755  16.610  1.00  0.00     0.130 A
HETATM    5  C14 UNL     1      14.560  66.446  16.197  1.00  0.00     0.049 A
HETATM    6  C15 UNL     1      15.331  65.557  16.930  1.00  0.00     0.130 A
HETATM    7  N6  UNL     1      15.900  66.037  18.042  1.00  0.00    -0.176 N
ATOM      8  H6  UNL     1      16.475  65.407  18.602  1.00  0.00     0.186 HD
HETATM    9  C20 UNL     1      13.901  66.007  14.966  1.00  0.00     0.124 C
HETATM   10 CL2  UNL     1      14.897  66.253  13.521  1.00  0.00    -0.120 Cl
HETATM   11  C21 UNL     1      12.600  66.729  14.753  1.00  0.00     0.045 C
HETATM   12  C22 UNL     1      12.648  68.202  14.937  1.00  0.00     0.125 C
HETATM   13  N7  UNL     1      13.614  68.684  15.879  1.00  0.00    -0.371 N
HETATM   14  C23 UNL     1      13.758  70.111  16.051  1.00  0.00     0.151 C
ENDROOT
BRANCH   1  15
HETATM   15  N3  UNL     1      16.340  67.660  19.537  1.00  0.00    -0.224 N
ATOM     16  H3  UNL     1      16.496  66.926  20.228  1.00  0.00     0.177 HD
BRANCH  15  17
HETATM   17  C11 UNL     1      16.804  68.965  19.884  1.00  0.00     0.157 C
BRANCH  17  18
HETATM   18  C10 UNL     1      18.256  69.190  19.482  1.00  0.00     0.137 C
BRANCH  18  19
HETATM   19  N2  UNL     1      18.919  69.981  20.481  1.00  0.00    -0.408 N
HETATM   20  C9  UNL     1      18.075  70.378  21.558  1.00  0.00     0.136 C
HETATM   21  C8  UNL     1      18.885  71.308  22.469  1.00  0.00     0.142 C
HETATM   22  N1  UNL     1      19.081  72.514  21.723  1.00  0.00    -0.377 N
HETATM   23  C25 UNL     1      19.443  72.395  20.335  1.00  0.00     0.142 C
HETATM   24  C24 UNL     1      19.788  70.978  19.951  1.00  0.00     0.136 C
BRANCH  22  25
HETATM   25  C7  UNL     1      18.931  73.773  22.306  1.00  0.00     0.037 A
HETATM   26  C2  UNL     1      17.723  74.428  22.226  1.00  0.00    -0.035 A
HETATM   27  C1  UNL     1      16.525  73.875  21.546  1.00  0.00     0.050 C
HETATM   28  C3  UNL     1      17.564  75.691  22.805  1.00  0.00     0.011 A
HETATM   29  C4  UNL     1      18.621  76.296  23.466  1.00  0.00     0.024 A
HETATM   30  C5  UNL     1      19.831  75.643  23.548  1.00  0.00     0.036 A
HETATM   31 CL1  UNL     1      21.145  76.437  24.389  1.00  0.00    -0.084 Cl
HETATM   32  C6  UNL     1      19.955  74.404  22.968  1.00  0.00     0.053 A
ENDBRANCH  22  25
ENDBRANCH  18  19
ENDBRANCH  17  18
ENDBRANCH  15  17
ENDBRANCH   1  15
BRANCH   6  33
HETATM   33  N5  UNL     1      15.426  64.369  16.476  1.00  0.00    -0.345 N
ATOM     34  H5  UNL     1      14.599  63.772  16.439  1.00  0.00     0.164 HD
BRANCH  33  35
HETATM   35  C16 UNL     1      16.693  63.870  16.015  1.00  0.00     0.273 C
HETATM   36  F1  UNL     1      17.528  63.638  17.101  1.00  0.00    -0.227 F
BRANCH  35  37
HETATM   37  C17 UNL     1      16.549  62.569  15.255  1.00  0.00     0.031 C
HETATM   38  C18 UNL     1      15.656  62.805  14.029  1.00  0.00     0.014 C
HETATM   39  C19 UNL     1      16.052  61.454  16.111  1.00  0.00     0.014 C
ENDBRANCH  35  37
ENDBRANCH  33  35
ENDBRANCH   6  33
TORSDOF 8
ENDMDL