MODEL 5
REMARK VINA RESULT: -7.320625183      3.914      8.653
REMARK  7 active torsions:
REMARK  status: ('A' for Active; 'I' for Inactive)
REMARK    1  A    between atoms: C1_2  and  C2_3
REMARK       I    between atoms: C1_2  and  N4_33
REMARK    2  A    between atoms: C2_3  and  C3_4
REMARK    3  A    between atoms: C8_9  and  N1_10
REMARK       I    between atoms: N1_10  and  C9_12
REMARK    4  A    between atoms: C9_12  and  C10_14
REMARK    5  A    between atoms: C10_14  and  O3_15
REMARK    6  A    between atoms: N2_20  and  C14_21
REMARK    7  A    between atoms: C14_21  and  C15_22
ROOT
HETATM    1  C10 UNL     1      17.130  74.284  20.948  1.00  0.00     0.140 C
HETATM    2  C11 UNL     1      15.972  73.653  21.640  1.00  0.00     0.049 C
HETATM    3  C12 UNL     1      15.527  72.488  20.733  1.00  0.00     0.023 C
HETATM    4  C13 UNL     1      16.055  71.206  21.462  1.00  0.00     0.122 C
HETATM    5  N2  UNL     1      17.351  71.046  21.074  1.00  0.00    -0.389 N
HETATM    6  C20 UNL     1      18.240  72.084  21.539  1.00  0.00     0.125 C
HETATM    7  C21 UNL     1      18.231  73.290  20.624  1.00  0.00     0.068 C
ENDROOT
BRANCH   1   8
HETATM    8  C9  UNL     1      17.707  75.448  21.660  1.00  0.00     0.252 C
HETATM    9  N1  UNL     1      17.785  75.577  23.054  1.00  0.00    -0.353 N
ATOM     10  H1  UNL     1      17.511  74.735  23.559  1.00  0.00     0.163 HD
HETATM   11  O2  UNL     1      18.122  76.368  20.917  1.00  0.00    -0.270 OA
BRANCH   9  12
HETATM   12  C8  UNL     1      18.163  76.628  23.888  1.00  0.00     0.089 C
HETATM   13  C3  UNL     1      18.787  77.895  23.642  1.00  0.00     0.017 C
HETATM   14  C4  UNL     1      17.843  79.024  23.272  1.00  0.00     0.007 C
HETATM   15  C5  UNL     1      17.188  79.495  24.594  1.00  0.00     0.001 C
HETATM   16  C6  UNL     1      16.964  78.231  25.393  1.00  0.00     0.002 C
HETATM   17  C7  UNL     1      16.723  77.065  24.502  1.00  0.00     0.025 C
BRANCH  13  18
HETATM   18  C2  UNL     1      20.072  78.054  22.882  1.00  0.00     0.109 C
BRANCH  18  19
HETATM   19  C1  UNL     1      21.027  77.113  23.589  1.00  0.00     0.220 C
HETATM   20  O1  UNL     1      21.480  77.399  24.752  1.00  0.00    -0.273 OA
HETATM   21  N4  UNL     1      21.448  75.897  23.028  1.00  0.00    -0.341 N
HETATM   22  C22 UNL     1      21.429  75.209  21.772  1.00  0.00     0.206 C
HETATM   23  C24 UNL     1      21.982  74.645  23.623  1.00  0.00     0.206 C
HETATM   24  C23 UNL     1      22.308  74.067  22.295  1.00  0.00     0.275 C
HETATM   25  F1  UNL     1      23.594  74.170  21.874  1.00  0.00    -0.203 F
HETATM   26  F2  UNL     1      21.786  72.813  22.018  1.00  0.00    -0.203 F
ENDBRANCH  18  19
ENDBRANCH  13  18
ENDBRANCH   9  12
ENDBRANCH   1   8
BRANCH   1  27
HETATM   27  O3  UNL     1      16.590  74.694  19.689  1.00  0.00    -0.380 OA
ATOM     28  H3  UNL     1      17.018  74.227  18.981  1.00  0.00     0.211 HD
ENDBRANCH   1  27
BRANCH   5  29
HETATM   29  C14 UNL     1      18.026  69.847  20.950  1.00  0.00     0.100 C
BRANCH  29  30
HETATM   30  C15 UNL     1      19.190  69.568  21.829  1.00  0.00     0.025 A
HETATM   31  C16 UNL     1      18.897  68.870  23.013  1.00  0.00     0.062 A
HETATM   32 CL1  UNL     1      17.222  68.522  23.396  1.00  0.00    -0.082 Cl
HETATM   33  C17 UNL     1      19.930  68.500  23.814  1.00  0.00     0.112 A
HETATM   34  N3  UNL     1      21.223  68.774  23.518  1.00  0.00    -0.372 N
HETATM   35  C18 UNL     1      21.488  69.428  22.396  1.00  0.00     0.112 A
ATOM     36  H3  UNL     1      21.975  68.485  24.143  1.00  0.00     0.164 HD
HETATM   37  C19 UNL     1      20.468  69.838  21.520  1.00  0.00     0.062 A
HETATM   38 CL2  UNL     1      20.976  70.457  19.945  1.00  0.00    -0.082 Cl
ENDBRANCH  29  30
ENDBRANCH   5  29
TORSDOF 7
ENDMDL