MODEL 1
REMARK VINA RESULT: -8.045261551      0.000      0.000
REMARK  7 active torsions:
REMARK  status: ('A' for Active; 'I' for Inactive)
REMARK    1  A    between atoms: N1_2  and  C10_18
REMARK    2  A    between atoms: C2_3  and  O1_4
REMARK    3  A    between atoms: C2_3  and  C3_6
REMARK    4  A    between atoms: C4_7  and  O2_8
REMARK    5  A    between atoms: O2_8  and  C5_9
REMARK    6  A    between atoms: C16_26  and  N3_27
REMARK       I    between atoms: N3_27  and  C17_29
REMARK    7  A    between atoms: C17_29  and  C18_31
ROOT
HETATM    1  C10 UNL     1      16.695  67.669  17.343  1.00  0.00     0.128 C
HETATM    2  C11 UNL     1      17.354  67.933  15.976  1.00  0.00     0.036 C
HETATM    3  C12 UNL     1      18.671  68.628  16.233  1.00  0.00     0.010 C
HETATM    4  C13 UNL     1      19.129  69.317  14.975  1.00  0.00     0.009 C
HETATM    5  C14 UNL     1      18.405  70.553  15.446  1.00  0.00     0.026 C
HETATM    6  C15 UNL     1      18.425  69.991  16.824  1.00  0.00     0.082 C
HETATM    7  N2  UNL     1      17.251  70.088  17.603  1.00  0.00    -0.395 N
ATOM      8  H2  UNL     1      16.840  71.006  17.770  1.00  0.00     0.155 HD
HETATM    9  C16 UNL     1      16.642  68.960  18.151  1.00  0.00     0.203 C
ENDROOT
BRANCH   1  10
HETATM   10  N1  UNL     1      15.397  67.218  17.048  1.00  0.00    -0.357 N
HETATM   11  C1  UNL     1      14.362  68.000  17.859  1.00  0.00     0.152 C
HETATM   12  C2  UNL     1      14.860  66.208  16.313  1.00  0.00     0.154 C
BRANCH  12  13
HETATM   13  O1  UNL     1      13.531  66.128  16.604  1.00  0.00    -0.345 OA
ATOM     14  H1  UNL     1      13.435  65.680  17.435  1.00  0.00     0.219 HD
ENDBRANCH  12  13
BRANCH  12  15
HETATM   15  C3  UNL     1      15.193  65.204  15.351  1.00  0.00     0.088 A
HETATM   16  C4  UNL     1      14.972  65.535  13.974  1.00  0.00     0.092 A
HETATM   17  C6  UNL     1      15.331  64.624  13.019  1.00  0.00     0.040 A
HETATM   18  C7  UNL     1      15.896  63.404  13.342  1.00  0.00     0.030 A
HETATM   19  C8  UNL     1      16.107  63.091  14.650  1.00  0.00     0.073 A
HETATM   20 CL1  UNL     1      16.818  61.565  15.125  1.00  0.00    -0.081 Cl
HETATM   21  C9  UNL     1      15.756  63.992  15.644  1.00  0.00     0.155 A
HETATM   22  F3  UNL     1      16.073  63.602  16.921  1.00  0.00    -0.203 F
BRANCH  16  23
HETATM   23  O2  UNL     1      14.407  66.748  13.655  1.00  0.00    -0.289 OA
BRANCH  23  24
HETATM   24  C5  UNL     1      13.155  66.927  13.119  1.00  0.00     0.505 C
HETATM   25  F1  UNL     1      12.183  66.144  13.746  1.00  0.00    -0.184 F
HETATM   26  F2  UNL     1      12.681  68.241  13.310  1.00  0.00    -0.184 F
ENDBRANCH  23  24
ENDBRANCH  16  23
ENDBRANCH  12  15
ENDBRANCH   1  10
BRANCH   9  27
HETATM   27  N3  UNL     1      17.254  68.685  19.435  1.00  0.00    -0.336 N
HETATM   28  C17 UNL     1      16.815  69.271  20.649  1.00  0.00     0.248 C
HETATM   29  O3  UNL     1      15.842  70.065  20.563  1.00  0.00    -0.271 OA
ATOM     30  H3  UNL     1      18.041  68.038  19.467  1.00  0.00     0.164 HD
BRANCH  28  31
HETATM   31  C18 UNL     1      17.477  68.958  21.959  1.00  0.00     0.213 C
HETATM   32  C19 UNL     1      18.974  68.972  21.662  1.00  0.00     0.044 C
HETATM   33  C20 UNL     1      19.680  67.839  22.396  1.00  0.00     0.038 C
HETATM   34  C21 UNL     1      19.661  68.063  23.900  1.00  0.00     0.159 A
HETATM   35  O4  UNL     1      18.876  69.125  24.290  1.00  0.00    -0.367 OA
HETATM   36  C22 UNL     1      18.261  67.938  24.462  1.00  0.00     0.105 A
HETATM   37  C23 UNL     1      18.149  67.485  25.924  1.00  0.00     0.051 C
HETATM   38  C24 UNL     1      17.411  67.217  23.523  1.00  0.00     0.209 C
HETATM   39  O5  UNL     1      17.122  67.716  22.324  1.00  0.00    -0.373 OA
ENDBRANCH  28  31
ENDBRANCH   9  27
TORSDOF 7
ENDMDL