MODEL 1
REMARK VINA RESULT: -5.883414140      0.000      0.000
REMARK  8 active torsions:
REMARK  status: ('A' for Active; 'I' for Inactive)
REMARK    1  A    between atoms: O1_2  and  C2_3
REMARK    2  A    between atoms: C2_3  and  C3_4
REMARK    3  A    between atoms: C2_3  and  C13_20
REMARK    4  A    between atoms: C10_13  and  O2_14
REMARK    5  A    between atoms: C13_20  and  O3_21
REMARK    6  A    between atoms: C13_20  and  C14_23
REMARK    7  A    between atoms: C14_23  and  C17_26
REMARK    8  A    between atoms: C17_26  and  O4_28
ROOT
HETATM    1  C3  UNL     1       6.102  33.386  21.823  1.00  0.00     0.025 C
HETATM    2  C4  UNL     1       6.780  34.369  22.753  1.00  0.00     0.009 C
HETATM    3  C5  UNL     1       7.635  35.305  21.925  1.00  0.00     0.016 C
HETATM    4  C6  UNL     1       8.745  34.383  21.401  1.00  0.00     0.062 C
HETATM    5 BR1  UNL     1      10.034  35.331  20.365  1.00  0.00    -0.091 Br
HETATM    6  C7  UNL     1       8.169  33.280  20.559  1.00  0.00     0.009 C
HETATM    7  C8  UNL     1       7.729  33.884  19.269  1.00  0.00     0.024 C
HETATM    8  C9  UNL     1       6.997  32.992  18.335  1.00  0.00     0.090 C
HETATM    9 BR2  UNL     1       6.120  34.117  17.007  1.00  0.00    -0.088 Br
HETATM   10  C10 UNL     1       5.903  32.222  19.046  1.00  0.00     0.171 C
HETATM   11  C11 UNL     1       6.617  31.511  20.202  1.00  0.00     0.144 C
HETATM   12 CL1  UNL     1       5.757  30.098  20.747  1.00  0.00    -0.098 Cl
HETATM   13 CL2  UNL     1       8.113  30.852  19.421  1.00  0.00    -0.098 Cl
HETATM   14  C12 UNL     1       7.082  32.468  21.261  1.00  0.00     0.039 C
ENDROOT
BRANCH   1  15
HETATM   15  C2  UNL     1       4.839  32.861  22.446  1.00  0.00     0.155 C
BRANCH  15  16
HETATM   16  O1  UNL     1       3.819  33.467  21.688  1.00  0.00    -0.388 OA
HETATM   17  C1  UNL     1       2.988  32.519  21.108  1.00  0.00     0.202 C
ENDBRANCH  15  16
BRANCH  15  18
HETATM   18  C13 UNL     1       4.631  33.185  23.858  1.00  0.00     0.157 C
BRANCH  18  19
HETATM   19  O3  UNL     1       3.424  33.857  24.122  1.00  0.00    -0.392 OA
ATOM     20  H3  UNL     1       3.423  34.348  24.935  1.00  0.00     0.210 HD
ENDBRANCH  18  19
BRANCH  18  21
HETATM   21  C14 UNL     1       4.620  32.042  24.849  1.00  0.00     0.006 C
HETATM   22  C15 UNL     1       3.104  31.723  24.982  1.00  0.00     0.020 C
HETATM   23  C16 UNL     1       5.211  30.761  24.334  1.00  0.00     0.020 C
BRANCH  21  24
HETATM   24  C17 UNL     1       5.037  32.414  26.234  1.00  0.00     0.124 C
HETATM   25  C18 UNL     1       3.817  32.323  27.129  1.00  0.00     0.040 C
BRANCH  24  26
HETATM   26  O4  UNL     1       5.403  33.762  26.233  1.00  0.00    -0.395 OA
ATOM     27  H4  UNL     1       5.586  34.022  27.128  1.00  0.00     0.210 HD
ENDBRANCH  24  26
ENDBRANCH  21  24
ENDBRANCH  18  21
ENDBRANCH  15  18
ENDBRANCH   1  15
BRANCH  10  28
HETATM   28  O2  UNL     1       5.416  31.246  18.183  1.00  0.00    -0.391 OA
ATOM     29  H2  UNL     1       6.054  31.109  17.492  1.00  0.00     0.210 HD
ENDBRANCH  10  28
TORSDOF 8
ENDMDL