MODEL 4
REMARK VINA RESULT: -7.315325435      2.828      5.080
REMARK  13 active torsions:
REMARK  status: ('A' for Active; 'I' for Inactive)
REMARK    1  A    between atoms: C2_2  and  C4_4
REMARK    2  A    between atoms: C4_4  and  N1_5
REMARK    3  A    between atoms: C4_4  and  C7_12
REMARK       I    between atoms: N1_5  and  C5_7
REMARK    4  A    between atoms: C5_7  and  C6_9
REMARK    5  A    between atoms: C7_12  and  C8_13
REMARK    6  A    between atoms: C7_12  and  N4_30
REMARK    7  A    between atoms: C9_14  and  C10_15
REMARK    8  A    between atoms: C10_15  and  C11_16
REMARK    9  A    between atoms: C11_16  and  C13_19
REMARK   10  A    between atoms: C13_19  and  O2_20
REMARK   11  A    between atoms: C13_19  and  N3_22
REMARK       I    between atoms: N4_30  and  C19_32
REMARK   12  A    between atoms: C19_32  and  O4_34
REMARK   13  A    between atoms: O4_34  and  C20_35
ROOT
HETATM    1  C11 UNL     1       4.985  33.764  17.436  1.00  0.00     0.103 C
HETATM    2  C12 UNL     1       4.214  34.804  16.863  1.00  0.00     0.104 C
HETATM    3  N2  UNL     1       3.552  35.640  16.379  1.00  0.00    -0.191 NA
ENDROOT
BRANCH   1   4
HETATM    4  C10 UNL     1       4.315  32.600  17.616  1.00  0.00     0.091 C
BRANCH   4   5
HETATM    5  C9  UNL     1       4.955  31.384  17.269  1.00  0.00    -0.075 C
HETATM    6  C8  UNL     1       5.491  30.361  16.954  1.00  0.00    -0.074 C
BRANCH   6   7
HETATM    7  C7  UNL     1       6.142  29.088  16.542  1.00  0.00     0.190 C
BRANCH   7   8
HETATM    8  C4  UNL     1       6.900  28.512  17.684  1.00  0.00     0.122 C
BRANCH   8   9
HETATM    9  C2  UNL     1       8.301  28.160  17.331  1.00  0.00     0.003 C
HETATM   10  C1  UNL     1       8.601  28.197  15.879  1.00  0.00     0.011 C
HETATM   11  C3  UNL     1       8.686  26.783  17.899  1.00  0.00     0.011 C
ENDBRANCH   8   9
BRANCH   8  12
HETATM   12  N1  UNL     1       6.181  27.433  18.322  1.00  0.00    -0.351 N
HETATM   13  C5  UNL     1       5.757  27.497  19.675  1.00  0.00     0.251 C
HETATM   14  O1  UNL     1       5.997  28.502  20.356  1.00  0.00    -0.271 OA
ATOM     15  H1  UNL     1       5.972  26.594  17.780  1.00  0.00     0.163 HD
BRANCH  13  16
HETATM   16  C6  UNL     1       5.023  26.337  20.246  1.00  0.00     0.269 C
HETATM   17 CL1  UNL     1       3.726  25.910  19.125  1.00  0.00    -0.098 Cl
HETATM   18 CL2  UNL     1       6.146  24.990  20.505  1.00  0.00    -0.098 Cl
ENDBRANCH  13  16
ENDBRANCH   8  12
ENDBRANCH   7   8
BRANCH   7  19
HETATM   19  N4  UNL     1       5.190  28.238  15.894  1.00  0.00    -0.320 N
HETATM   20  C19 UNL     1       4.936  28.341  14.480  1.00  0.00     0.362 C
HETATM   21  O3  UNL     1       5.546  29.182  13.785  1.00  0.00    -0.238 OA
ATOM     22  H4  UNL     1       4.681  27.546  16.445  1.00  0.00     0.166 HD
BRANCH  20  23
HETATM   23  O4  UNL     1       4.026  27.524  13.887  1.00  0.00    -0.294 OA
BRANCH  23  24
HETATM   24  C20 UNL     1       2.628  27.684  13.933  1.00  0.00     0.061 C
HETATM   25  C21 UNL     1       2.094  27.434  12.538  1.00  0.00     0.046 C
HETATM   26  C22 UNL     1       2.321  29.132  14.268  1.00  0.00     0.046 C
HETATM   27  C23 UNL     1       1.953  26.785  14.909  1.00  0.00     0.046 C
ENDBRANCH  23  24
ENDBRANCH  20  23
ENDBRANCH   7  19
ENDBRANCH   6   7
ENDBRANCH   4   5
ENDBRANCH   1   4
BRANCH   1  28
HETATM   28  C13 UNL     1       6.365  33.775  17.827  1.00  0.00     0.159 C
BRANCH  28  29
HETATM   29  O2  UNL     1       7.208  34.162  16.891  1.00  0.00    -0.345 OA
ATOM     30  H2  UNL     1       8.091  33.822  16.978  1.00  0.00     0.219 HD
ENDBRANCH  28  29
BRANCH  28  31
HETATM   31  N3  UNL     1       6.970  33.449  19.030  1.00  0.00    -0.360 N
HETATM   32  C14 UNL     1       6.575  33.889  20.321  1.00  0.00     0.131 C
HETATM   33  C15 UNL     1       7.586  34.975  20.703  1.00  0.00     0.099 C
HETATM   34  C16 UNL     1       8.975  34.478  20.484  1.00  0.00     0.246 C
HETATM   35  F1  UNL     1       9.616  35.347  19.590  1.00  0.00    -0.206 F
HETATM   36  F2  UNL     1       9.663  34.652  21.694  1.00  0.00    -0.206 F
HETATM   37  C17 UNL     1       9.125  33.049  20.106  1.00  0.00     0.099 C
HETATM   38  C18 UNL     1       8.173  32.580  19.028  1.00  0.00     0.131 C
ENDBRANCH  28  31
ENDBRANCH   1  28
TORSDOF 13
ENDMDL