MODEL 4
REMARK VINA RESULT: -8.730434843      2.786      4.500
REMARK  7 active torsions:
REMARK  status: ('A' for Active; 'I' for Inactive)
REMARK       I    between atoms: N2_3  and  C2_5
REMARK       I    between atoms: C2_5  and  N5_16
REMARK    1  A    between atoms: N3_6  and  C3_8
REMARK    2  A    between atoms: C3_8  and  C4_9
REMARK    3  A    between atoms: C4_9  and  N4_10
REMARK    4  A    between atoms: N5_16  and  C10_18
REMARK    5  A    between atoms: N6_21  and  C13_22
REMARK    6  A    between atoms: C16_25  and  C17_26
REMARK    7  A    between atoms: C21_34  and  N7_35
ROOT
HETATM    1  N1  UNL     1       8.971  28.928  13.738  1.00  0.00    -0.171 NA
HETATM    2  C1  UNL     1       8.170  28.272  14.302  1.00  0.00     0.196 C
HETATM    3  N2  UNL     1       7.215  27.525  14.985  1.00  0.00    -0.126 N
ATOM      4  H2  UNL     1       7.484  26.690  15.504  1.00  0.00     0.197 HD
HETATM    5  C2  UNL     1       5.821  27.957  14.946  1.00  0.00     0.687 C
HETATM    6  N3  UNL     1       5.313  27.917  13.814  1.00  0.00    -0.203 N
ATOM      7  H3  UNL     1       6.020  27.580  13.160  1.00  0.00     0.183 HD
HETATM    8  N5  UNL     1       5.184  28.387  16.145  1.00  0.00    -0.218 N
ATOM      9  H5  UNL     1       4.241  28.042  16.327  1.00  0.00     0.178 HD
ENDROOT
BRANCH   6  10
HETATM   10  C3  UNL     1       4.150  28.156  13.103  1.00  0.00     0.109 C
BRANCH  10  11
HETATM   11  C4  UNL     1       3.130  27.058  13.235  1.00  0.00     0.317 C
BRANCH  11  12
HETATM   12  N4  UNL     1       2.017  27.364  14.135  1.00  0.00     0.093 N
HETATM   13  C5  UNL     1       2.261  26.595  15.313  1.00  0.00     0.273 C
HETATM   14  C6  UNL     1       1.379  26.795  16.480  1.00  0.00     0.030 C
HETATM   15  C7  UNL     1       0.909  28.201  16.596  1.00  0.00     0.003 C
HETATM   16  C8  UNL     1       1.794  29.170  15.827  1.00  0.00     0.030 C
HETATM   17  C9  UNL     1       1.917  28.762  14.386  1.00  0.00     0.273 C
ENDBRANCH  11  12
ENDBRANCH  10  11
ENDBRANCH   6  10
BRANCH   8  18
HETATM   18  C10 UNL     1       5.758  29.261  17.110  1.00  0.00     0.139 C
HETATM   19  C11 UNL     1       5.102  30.649  17.102  1.00  0.00     0.048 C
HETATM   20  C12 UNL     1       6.222  31.571  17.525  1.00  0.00     0.130 C
HETATM   21  N6  UNL     1       6.863  31.114  18.776  1.00  0.00    -0.357 N
HETATM   22  C20 UNL     1       6.992  29.753  19.085  1.00  0.00     0.102 C
HETATM   23  C21 UNL     1       5.933  28.811  18.512  1.00  0.00     0.284 C
BRANCH  21  24
HETATM   24  C13 UNL     1       7.317  32.233  19.559  1.00  0.00     0.056 A
HETATM   25  C14 UNL     1       8.647  32.622  19.473  1.00  0.00     0.032 A
HETATM   26  C15 UNL     1       9.142  33.622  20.275  1.00  0.00     0.018 A
HETATM   27  C16 UNL     1       8.328  34.268  21.189  1.00  0.00     0.049 A
HETATM   28  C18 UNL     1       7.015  33.889  21.275  1.00  0.00     0.042 A
HETATM   29  C19 UNL     1       6.535  32.872  20.451  1.00  0.00     0.061 A
HETATM   30 CL1  UNL     1       4.862  32.456  20.638  1.00  0.00    -0.082 Cl
BRANCH  27  31
HETATM   31  C17 UNL     1       8.880  35.329  22.088  1.00  0.00     0.417 C
HETATM   32  F1  UNL     1       7.932  36.236  22.492  1.00  0.00    -0.166 F
HETATM   33  F2  UNL     1       9.416  34.762  23.226  1.00  0.00    -0.166 F
HETATM   34  F3  UNL     1       9.905  36.009  21.425  1.00  0.00    -0.166 F
ENDBRANCH  27  31
ENDBRANCH  21  24
BRANCH  23  35
HETATM   35  N7  UNL     1       4.723  28.854  19.345  1.00  0.00     0.100 N
HETATM   36  C22 UNL     1       3.990  27.622  19.090  1.00  0.00     0.273 C
HETATM   37  C23 UNL     1       2.931  27.327  20.143  1.00  0.00     0.030 C
HETATM   38  C24 UNL     1       3.687  27.036  21.427  1.00  0.00     0.003 C
HETATM   39  C25 UNL     1       4.349  28.354  21.762  1.00  0.00     0.030 C
HETATM   40  C26 UNL     1       5.240  28.875  20.703  1.00  0.00     0.273 C
ENDBRANCH  23  35
ENDBRANCH   8  18
TORSDOF 7
ENDMDL