MODEL 4
REMARK VINA RESULT: -8.446062172      1.898      2.866
REMARK  9 active torsions:
REMARK  status: ('A' for Active; 'I' for Inactive)
REMARK    1  A    between atoms: O1_2  and  C2_3
REMARK    2  A    between atoms: N2_14  and  C10_15
REMARK    3  A    between atoms: N3_18  and  C13_19
REMARK    4  A    between atoms: C13_19  and  C14_20
REMARK    5  A    between atoms: C14_20  and  O3_21
REMARK    6  A    between atoms: C14_20  and  C15_23
REMARK    7  A    between atoms: C15_23  and  N4_24
REMARK    8  A    between atoms: N4_24  and  C16_25
REMARK    9  A    between atoms: N4_24  and  C22_34
ROOT
HETATM    1  C10 UNL     1       6.115  29.429  16.848  1.00  0.00     0.088 C
HETATM    2  C11 UNL     1       4.811  28.997  17.468  1.00  0.00     0.055 C
HETATM    3  C12 UNL     1       4.493  29.663  18.782  1.00  0.00     0.274 C
HETATM    4  N3  UNL     1       4.582  31.087  18.730  1.00  0.00     0.091 N
HETATM    5  C26 UNL     1       5.091  31.538  17.473  1.00  0.00     0.274 C
HETATM    6  C27 UNL     1       6.438  30.819  17.287  1.00  0.00     0.055 C
ENDROOT
BRANCH   4   7
HETATM    7  C13 UNL     1       3.365  31.691  19.167  1.00  0.00     0.305 C
BRANCH   7   8
HETATM    8  C14 UNL     1       3.562  32.602  20.376  1.00  0.00     0.164 C
BRANCH   8   9
HETATM    9  O3  UNL     1       3.873  33.889  19.831  1.00  0.00    -0.392 OA
ATOM     10  H3  UNL     1       3.432  34.513  20.396  1.00  0.00     0.210 HD
ENDBRANCH   8   9
BRANCH   8  11
HETATM   11  C15 UNL     1       4.828  32.206  21.118  1.00  0.00     0.151 C
BRANCH  11  12
HETATM   12  N4  UNL     1       5.420  33.197  21.933  1.00  0.00    -0.398 N
BRANCH  12  13
HETATM   13  C16 UNL     1       6.761  33.453  21.561  1.00  0.00     0.083 C
HETATM   14  C17 UNL     1       7.203  33.003  20.206  1.00  0.00     0.031 C
HETATM   15  C18 UNL     1       8.737  32.944  20.198  1.00  0.00     0.084 C
HETATM   16  C19 UNL     1       9.242  34.334  20.420  1.00  0.00     0.274 C
HETATM   17  F1  UNL     1      10.611  34.282  20.586  1.00  0.00    -0.203 F
HETATM   18  F2  UNL     1       9.026  35.140  19.317  1.00  0.00    -0.203 F
HETATM   19  C20 UNL     1       8.659  34.977  21.655  1.00  0.00     0.244 C
HETATM   20  F3  UNL     1       9.004  36.334  21.583  1.00  0.00    -0.243 F
HETATM   21  C21 UNL     1       7.149  34.921  21.667  1.00  0.00     0.068 C
ENDBRANCH  12  13
BRANCH  12  22
HETATM   22  C22 UNL     1       4.980  33.188  23.238  1.00  0.00     0.017 C
HETATM   23  C23 UNL     1       5.547  31.935  23.937  1.00  0.00     0.037 C
HETATM   24  C24 UNL     1       3.523  33.146  23.544  1.00  0.00     0.037 C
HETATM   25  C25 UNL     1       5.548  34.337  24.100  1.00  0.00     0.037 C
ENDBRANCH  12  22
ENDBRANCH  11  12
ENDBRANCH   8  11
ENDBRANCH   7   8
ENDBRANCH   4   7
BRANCH   1  26
HETATM   26  N2  UNL     1       7.201  28.473  17.039  1.00  0.00    -0.365 N
HETATM   27  C5  UNL     1       8.058  28.174  15.934  1.00  0.00     0.058 A
HETATM   28  C4  UNL     1       8.087  28.950  14.785  1.00  0.00     0.034 A
HETATM   29  C6  UNL     1       8.909  27.092  15.929  1.00  0.00     0.064 A
HETATM   30  C3  UNL     1       8.907  28.667  13.702  1.00  0.00     0.039 A
HETATM   31  C2  UNL     1       9.738  27.578  13.741  1.00  0.00     0.070 A
HETATM   32  C7  UNL     1       9.745  26.770  14.874  1.00  0.00     0.068 A
HETATM   33  N1  UNL     1       8.977  26.254  17.065  1.00  0.00    -0.324 N
HETATM   34  C8  UNL     1       8.173  26.542  18.186  1.00  0.00     0.240 C
ATOM     35  H1  UNL     1       9.602  25.448  17.073  1.00  0.00     0.169 HD
HETATM   36  O2  UNL     1       8.064  25.661  19.096  1.00  0.00    -0.271 OA
HETATM   37  C9  UNL     1       7.475  27.841  18.299  1.00  0.00     0.226 C
BRANCH  31  38
HETATM   38  O1  UNL     1      10.580  27.240  12.695  1.00  0.00    -0.356 OA
HETATM   39  C1  UNL     1      11.698  27.991  12.322  1.00  0.00     0.210 C
ENDBRANCH  31  38
ENDBRANCH   1  26
TORSDOF 9
ENDMDL