MODEL 1
REMARK VINA RESULT: -6.864948114      0.000      0.000
REMARK  8 active torsions:
REMARK  status: ('A' for Active; 'I' for Inactive)
REMARK    1  A    between atoms: C2_2  and  N1_4
REMARK    2  A    between atoms: N2_7  and  C5_8
REMARK    3  A    between atoms: C5_8  and  C6_9
REMARK    4  A    between atoms: C6_9  and  C7_10
REMARK    5  A    between atoms: C7_10  and  O1_11
REMARK    6  A    between atoms: O1_11  and  C8_12
REMARK    7  A    between atoms: C13_19  and  O2_20
REMARK    8  A    between atoms: C16_25  and  C17_26
ROOT
HETATM    1  C7  UNL     1       6.519  31.998  19.767  1.00  0.00     0.181 C
ENDROOT
BRANCH   1   2
HETATM    2  C6  UNL     1       7.247  30.984  18.987  1.00  0.00     0.071 C
BRANCH   2   3
HETATM    3  C5  UNL     1       6.785  30.766  17.587  1.00  0.00     0.060 C
BRANCH   3   4
HETATM    4  N2  UNL     1       6.060  29.647  17.205  1.00  0.00    -0.390 N
HETATM    5  C4  UNL     1       4.680  29.686  16.953  1.00  0.00     0.141 C
HETATM    6  C3  UNL     1       4.449  30.032  15.469  1.00  0.00     0.143 C
HETATM    7  N1  UNL     1       5.031  28.796  14.794  1.00  0.00    -0.367 N
HETATM    8  C16 UNL     1       6.423  28.693  14.997  1.00  0.00     0.116 C
HETATM    9  C15 UNL     1       6.778  28.626  16.471  1.00  0.00     0.148 C
BRANCH   7  10
HETATM   10  C2  UNL     1       4.109  28.009  14.136  1.00  0.00     0.072 C
HETATM   11  C1  UNL     1       3.780  28.292  12.691  1.00  0.00     0.081 C
HETATM   12  S1  UNL     1       3.300  26.796  14.836  1.00  0.00    -0.066 SA
ENDBRANCH   7  10
BRANCH   8  13
HETATM   13  C17 UNL     1       7.180  27.753  14.189  1.00  0.00     0.141 C
HETATM   14 CL1  UNL     1       8.631  28.532  13.491  1.00  0.00    -0.128 Cl
ENDBRANCH   8  13
ENDBRANCH   3   4
ENDBRANCH   2   3
ENDBRANCH   1   2
BRANCH   1  15
HETATM   15  O1  UNL     1       7.101  32.344  21.000  1.00  0.00    -0.346 OA
BRANCH  15  16
HETATM   16  C8  UNL     1       7.667  33.489  21.420  1.00  0.00     0.128 A
HETATM   17  C9  UNL     1       8.813  33.979  20.847  1.00  0.00     0.158 A
HETATM   18  F1  UNL     1       9.431  33.334  19.815  1.00  0.00    -0.203 F
HETATM   19  C10 UNL     1       9.430  35.149  21.243  1.00  0.00    -0.000 A
HETATM   20  C11 UNL     1      10.678  35.649  20.596  1.00  0.00     0.053 C
HETATM   21  C12 UNL     1       8.857  35.858  22.272  1.00  0.00     0.054 A
HETATM   22 BR1  UNL     1       9.681  37.490  22.851  1.00  0.00    -0.047 Br
HETATM   23  C13 UNL     1       7.698  35.400  22.879  1.00  0.00     0.103 A
HETATM   24  C14 UNL     1       7.106  34.231  22.465  1.00  0.00     0.082 A
HETATM   25 BR2  UNL     1       5.501  33.644  23.340  1.00  0.00    -0.045 Br
BRANCH  23  26
HETATM   26  O2  UNL     1       7.120  36.136  23.931  1.00  0.00    -0.358 OA
ATOM     27  H2  UNL     1       6.218  36.427  23.866  1.00  0.00     0.217 HD
ENDBRANCH  23  26
ENDBRANCH  15  16
ENDBRANCH   1  15
TORSDOF 8
ENDMDL