MODEL 5
REMARK VINA RESULT: -8.026130221      4.438      9.103
REMARK  8 active torsions:
REMARK  status: ('A' for Active; 'I' for Inactive)
REMARK    1  A    between atoms: S1_2  and  C2_4
REMARK    2  A    between atoms: C3_6  and  C4_7
REMARK    3  A    between atoms: C6_11  and  N1_12
REMARK    4  A    between atoms: C9_15  and  C10_17
REMARK    5  A    between atoms: C10_17  and  C11_18
REMARK       I    between atoms: C11_18  and  N2_20
REMARK    6  A    between atoms: N2_20  and  C12_22
REMARK    7  A    between atoms: C20_30  and  O4_31
REMARK    8  A    between atoms: O4_31  and  C21_32
ROOT
HETATM    1  C10 UNL     1       2.329  33.733  15.893  1.00  0.00     0.146 C
ENDROOT
BRANCH   1   2
HETATM    2  C9  UNL     1       3.727  33.978  16.497  1.00  0.00     0.114 C
HETATM    3  C8  UNL     1       4.665  33.015  15.890  1.00  0.00     0.064 C
HETATM    4  C7  UNL     1       5.562  32.241  16.796  1.00  0.00     0.126 C
HETATM    5  N1  UNL     1       5.626  32.750  18.146  1.00  0.00    -0.378 N
HETATM    6  C24 UNL     1       4.326  32.994  18.761  1.00  0.00     0.126 C
HETATM    7  C23 UNL     1       3.542  33.977  17.966  1.00  0.00     0.064 C
HETATM    8  F3  UNL     1       4.023  35.293  16.051  1.00  0.00    -0.242 F
BRANCH   5   9
HETATM    9  C6  UNL     1       6.856  32.992  18.808  1.00  0.00     0.076 A
HETATM   10  C2  UNL     1       7.762  32.107  19.348  1.00  0.00     0.168 A
HETATM   11  O2  UNL     1       8.772  32.792  19.870  1.00  0.00    -0.298 OA
HETATM   12  C3  UNL     1       8.613  34.063  19.721  1.00  0.00     0.120 A
HETATM   13  C5  UNL     1       7.424  34.250  19.060  1.00  0.00     0.071 A
BRANCH  10  14
HETATM   14  S1  UNL     1       7.600  30.380  19.339  1.00  0.00     0.072 S
HETATM   15  C1  UNL     1       7.601  29.673  17.729  1.00  0.00     0.135 C
HETATM   16  O1  UNL     1       6.317  29.858  20.274  1.00  0.00    -0.251 OA
ENDBRANCH  10  14
BRANCH  12  17
HETATM   17  C4  UNL     1       9.550  35.120  20.186  1.00  0.00     0.410 C
HETATM   18  F1  UNL     1      10.742  34.524  20.557  1.00  0.00    -0.207 F
HETATM   19  F2  UNL     1       9.014  35.764  21.291  1.00  0.00    -0.207 F
ENDBRANCH  12  17
ENDBRANCH   5   9
ENDBRANCH   1   2
BRANCH   1  20
HETATM   20  C11 UNL     1       2.103  32.277  15.738  1.00  0.00     0.221 C
HETATM   21  O3  UNL     1       1.552  31.641  16.678  1.00  0.00    -0.273 OA
HETATM   22  N2  UNL     1       2.481  31.567  14.572  1.00  0.00    -0.356 N
ATOM     23  H2  UNL     1       2.928  32.056  13.797  1.00  0.00     0.162 HD
BRANCH  22  24
HETATM   24  C12 UNL     1       2.232  30.151  14.489  1.00  0.00     0.089 C
HETATM   25  C13 UNL     1       1.998  29.817  13.044  1.00  0.00     0.030 C
HETATM   26  C14 UNL     1       1.883  28.365  12.744  1.00  0.00    -0.009 C
HETATM   27  C15 UNL     1       3.236  27.865  12.306  1.00  0.00     0.012 C
HETATM   28  C22 UNL     1       1.517  27.507  13.915  1.00  0.00     0.044 C
HETATM   29  C16 UNL     1       3.891  27.571  13.646  1.00  0.00     0.022 C
HETATM   30  C17 UNL     1       4.410  28.934  14.131  1.00  0.00     0.014 C
HETATM   31  C20 UNL     1       2.823  27.210  14.609  1.00  0.00     0.076 C
HETATM   32  C18 UNL     1       3.401  29.438  15.097  1.00  0.00     0.012 C
HETATM   33  C19 UNL     1       2.912  28.206  15.775  1.00  0.00     0.045 C
BRANCH  31  34
HETATM   34  O4  UNL     1       2.903  25.949  15.175  1.00  0.00    -0.295 OA
BRANCH  34  35
HETATM   35  C21 UNL     1       2.213  25.461  16.250  1.00  0.00     0.373 C
HETATM   36  N3  UNL     1       2.706  25.497  17.591  1.00  0.00    -0.032 NA
HETATM   37  O5  UNL     1       1.096  24.960  16.038  1.00  0.00    -0.242 OA
ENDBRANCH  34  35
ENDBRANCH  31  34
ENDBRANCH  22  24
ENDBRANCH   1  20
TORSDOF 8
ENDMDL