MODEL 2
REMARK VINA RESULT: -7.921850839      2.262      7.943
REMARK  8 active torsions:
REMARK  status: ('A' for Active; 'I' for Inactive)
REMARK    1  A    between atoms: O1_2  and  C2_3
REMARK    2  A    between atoms: C2_3  and  C3_4
REMARK    3  A    between atoms: C3_4  and  N1_6
REMARK    4  A    between atoms: N1_6  and  C5_8
REMARK    5  A    between atoms: C7_12  and  N3_13
REMARK    6  A    between atoms: N3_13  and  C8_15
REMARK    7  A    between atoms: C11_19  and  C12_20
REMARK    8  A    between atoms: C12_20  and  N4_21
ROOT
HETATM    1  C5  UNL     1       6.192  33.940  19.800  1.00  0.00     0.124 A
HETATM    2  N2  UNL     1       5.803  33.218  18.745  1.00  0.00    -0.336 N
ATOM      3  H2  UNL     1       6.458  33.127  17.968  1.00  0.00     0.168 HD
HETATM    4  C6  UNL     1       4.600  32.597  18.631  1.00  0.00     0.105 A
HETATM    5  C7  UNL     1       4.282  31.815  17.576  1.00  0.00     0.136 A
HETATM    6  N5  UNL     1       3.089  31.198  17.631  1.00  0.00    -0.337 N
ATOM      7  H5  UNL     1       2.846  30.607  16.836  1.00  0.00     0.168 HD
HETATM    8  C19 UNL     1       2.191  31.274  18.610  1.00  0.00     0.182 A
HETATM    9  N6  UNL     1       2.518  32.058  19.654  1.00  0.00    -0.350 N
ATOM     10  H6  UNL     1       1.861  32.153  20.429  1.00  0.00     0.166 HD
HETATM   11  C20 UNL     1       3.673  32.712  19.702  1.00  0.00     0.065 A
HETATM   12  C21 UNL     1       4.034  33.448  20.803  1.00  0.00     0.059 A
HETATM   13  C22 UNL     1       5.251  34.043  20.851  1.00  0.00     0.080 A
HETATM   14 CL3  UNL     1       5.670  34.971  22.259  1.00  0.00    -0.080 Cl
ENDROOT
BRANCH   5  15
HETATM   15  N3  UNL     1       5.079  31.733  16.488  1.00  0.00    -0.339 N
ATOM     16  H3  UNL     1       5.298  32.466  15.813  1.00  0.00     0.167 HD
BRANCH  15  17
HETATM   17  C8  UNL     1       5.568  30.312  16.502  1.00  0.00     0.060 A
HETATM   18  C9  UNL     1       6.600  29.960  17.308  1.00  0.00     0.056 A
HETATM   19  C10 UNL     1       7.347  28.811  17.004  1.00  0.00     0.051 A
HETATM   20 CL1  UNL     1       8.676  28.335  18.037  1.00  0.00    -0.083 Cl
HETATM   21  C11 UNL     1       7.054  28.035  15.906  1.00  0.00     0.042 A
HETATM   22  C17 UNL     1       5.951  28.443  15.123  1.00  0.00     0.153 A
HETATM   23  F1  UNL     1       5.569  27.748  14.041  1.00  0.00    -0.203 F
HETATM   24  C18 UNL     1       5.204  29.579  15.416  1.00  0.00     0.100 A
HETATM   25 CL2  UNL     1       3.844  30.066  14.443  1.00  0.00    -0.079 Cl
BRANCH  21  26
HETATM   26  C12 UNL     1       8.106  27.219  15.296  1.00  0.00     0.110 C
BRANCH  26  27
HETATM   27  N4  UNL     1       9.199  27.666  14.584  1.00  0.00    -0.327 N
HETATM   28  C13 UNL     1       8.998  28.758  13.494  1.00  0.00     0.132 C
HETATM   29  C14 UNL     1       9.835  28.164  12.378  1.00  0.00     0.029 C
HETATM   30  C15 UNL     1      11.136  27.988  13.181  1.00  0.00     0.105 C
HETATM   31  C16 UNL     1      10.531  27.282  14.392  1.00  0.00     0.223 C
HETATM   32  O2  UNL     1      11.242  26.485  15.041  1.00  0.00    -0.273 OA
ENDBRANCH  26  27
ENDBRANCH  21  26
ENDBRANCH  15  17
ENDBRANCH   5  15
BRANCH   1  33
HETATM   33  N1  UNL     1       7.272  34.524  19.949  1.00  0.00    -0.369 N
ATOM     34  H1  UNL     1       7.207  35.444  19.514  1.00  0.00     0.161 HD
BRANCH  33  35
HETATM   35  C3  UNL     1       8.525  34.382  20.489  1.00  0.00     0.103 C
HETATM   36  C4  UNL     1       9.038  32.981  20.063  1.00  0.00     0.034 C
BRANCH  35  37
HETATM   37  C2  UNL     1       9.620  35.332  20.070  1.00  0.00     0.191 C
BRANCH  37  38
HETATM   38  O1  UNL     1      10.309  35.637  21.223  1.00  0.00    -0.394 OA
HETATM   39  C1  UNL     1       9.511  36.092  22.247  1.00  0.00     0.201 C
ENDBRANCH  37  38
ENDBRANCH  35  37
ENDBRANCH  33  35
ENDBRANCH   1  33
TORSDOF 8
ENDMDL