MODEL 3
REMARK VINA RESULT: -7.373756117      0.128      1.421
REMARK  8 active torsions:
REMARK  status: ('A' for Active; 'I' for Inactive)
REMARK    1  A    between atoms: C2_2  and  C3_3
REMARK       I    between atoms: N1_5  and  C5_6
REMARK    2  A    between atoms: C5_6  and  C6_8
REMARK    3  A    between atoms: C10_12  and  O2_13
REMARK    4  A    between atoms: N2_15  and  C12_16
REMARK    5  A    between atoms: C15_20  and  C16_21
REMARK    6  A    between atoms: C15_20  and  C17_28
REMARK    7  A    between atoms: C16_21  and  O3_22
REMARK    8  A    between atoms: N3_24  and  O4_26
ROOT
HETATM    1  C12 UNL     1       6.479  30.334  19.447  1.00  0.00     0.229 C
HETATM    2  C13 UNL     1       5.281  31.208  19.402  1.00  0.00     0.053 C
HETATM    3  C14 UNL     1       5.725  32.367  20.313  1.00  0.00     0.081 C
HETATM    4 BR1  UNL     1       6.063  31.769  22.098  1.00  0.00    -0.089 Br
HETATM    5  C15 UNL     1       7.057  32.692  19.590  1.00  0.00     0.069 C
HETATM    6  C23 UNL     1       7.646  31.327  19.517  1.00  0.00     0.060 C
ENDROOT
BRANCH   1   7
HETATM    7  N2  UNL     1       6.717  29.482  18.335  1.00  0.00     0.129 N
HETATM    8  C3  UNL     1       5.588  29.067  17.572  1.00  0.00     0.244 C
HETATM    9  C4  UNL     1       4.433  28.606  18.426  1.00  0.00     0.161 C
HETATM   10  N1  UNL     1       4.927  27.450  19.172  1.00  0.00    -0.345 N
HETATM   11  C5  UNL     1       4.089  26.320  19.349  1.00  0.00     0.224 C
HETATM   12  C9  UNL     1       6.243  27.498  19.704  1.00  0.00     0.190 C
HETATM   13  O1  UNL     1       2.926  26.358  18.840  1.00  0.00    -0.273 OA
HETATM   14  C10 UNL     1       7.266  28.232  18.897  1.00  0.00     0.377 C
BRANCH   8  15
HETATM   15  C2  UNL     1       5.203  30.006  16.467  1.00  0.00     0.033 C
HETATM   16  C1  UNL     1       5.261  29.387  15.092  1.00  0.00     0.007 C
ENDBRANCH   8  15
BRANCH  11  17
HETATM   17  C6  UNL     1       4.442  25.093  20.076  1.00  0.00     0.078 A
HETATM   18  C7  UNL     1       3.348  24.206  20.618  1.00  0.00     0.015 A
HETATM   19  C8  UNL     1       4.055  25.106  21.562  1.00  0.00     0.015 A
ENDBRANCH  11  17
BRANCH  14  20
HETATM   20  O2  UNL     1       7.677  27.492  17.785  1.00  0.00    -0.361 OA
HETATM   21  C11 UNL     1       9.069  27.604  17.658  1.00  0.00     0.204 C
ENDBRANCH  14  20
ENDBRANCH   1   7
BRANCH   5  22
HETATM   22  C16 UNL     1       6.682  33.148  18.221  1.00  0.00     0.150 C
HETATM   23  N3  UNL     1       5.646  33.942  18.074  1.00  0.00    -0.250 N
ATOM     24  H3  UNL     1       5.128  34.223  18.906  1.00  0.00     0.196 HD
BRANCH  22  25
HETATM   25  O3  UNL     1       7.341  32.803  17.062  1.00  0.00    -0.347 OA
ATOM     26  H3  UNL     1       8.276  32.886  16.919  1.00  0.00     0.219 HD
ENDBRANCH  22  25
BRANCH  23  27
HETATM   27  O4  UNL     1       5.232  34.405  16.872  1.00  0.00    -0.288 OA
ATOM     28  H4  UNL     1       4.391  34.826  16.738  1.00  0.00     0.244 HD
ENDBRANCH  23  27
ENDBRANCH   5  22
BRANCH   5  29
HETATM   29  C17 UNL     1       7.813  33.701  20.323  1.00  0.00    -0.034 A
HETATM   30  C18 UNL     1       9.159  33.886  20.169  1.00  0.00     0.050 A
HETATM   31  C19 UNL     1       9.808  34.848  20.926  1.00  0.00     0.119 A
HETATM   32  F1  UNL     1      11.163  35.040  20.776  1.00  0.00    -0.206 F
HETATM   33  C20 UNL     1       9.159  35.643  21.842  1.00  0.00     0.084 A
HETATM   34  C21 UNL     1       7.809  35.455  21.995  1.00  0.00     0.119 A
HETATM   35  F2  UNL     1       7.129  36.210  22.881  1.00  0.00    -0.206 F
HETATM   36  C22 UNL     1       7.153  34.493  21.240  1.00  0.00     0.050 A
ENDBRANCH   5  29
TORSDOF 8
ENDMDL