MODEL 4
REMARK VINA RESULT: -8.321880344      1.424      1.960
REMARK  12 active torsions:
REMARK  status: ('A' for Active; 'I' for Inactive)
REMARK    1  A    between atoms: C5_5  and  C6_6
REMARK    2  A    between atoms: C6_6  and  C7_7
REMARK    3  A    between atoms: C7_7  and  C8_8
REMARK    4  A    between atoms: C7_7  and  C19_24
REMARK    5  A    between atoms: C7_7  and  C25_34
REMARK    6  A    between atoms: C9_9  and  C10_10
REMARK    7  A    between atoms: C10_10  and  C11_11
REMARK    8  A    between atoms: C11_11  and  O1_12
REMARK    9  A    between atoms: C11_11  and  C12_14
REMARK   10  A    between atoms: C13_15  and  C14_16
REMARK   11  A    between atoms: C18_21  and  O2_22
REMARK   12  A    between atoms: C19_24  and  O3_25
ROOT
HETATM    1  C7  UNL     1       5.699  29.902  17.931  1.00  0.00     0.203 C
ENDROOT
BRANCH   1   2
HETATM    2  C6  UNL     1       6.056  31.209  17.458  1.00  0.00     0.016 C
BRANCH   2   3
HETATM    3  C5  UNL     1       6.910  32.187  18.120  1.00  0.00    -0.078 C
HETATM    4  C4  UNL     1       6.983  33.584  17.655  1.00  0.00     0.061 C
HETATM    5  C3  UNL     1       7.560  34.384  18.808  1.00  0.00    -0.020 C
HETATM    6  C2  UNL     1       8.268  33.853  19.764  1.00  0.00    -0.087 C
HETATM    7  C1  UNL     1       8.782  34.754  20.849  1.00  0.00     0.043 C
HETATM    8  C27 UNL     1       8.624  32.411  19.887  1.00  0.00     0.038 C
HETATM    9  C26 UNL     1       8.285  31.681  18.568  1.00  0.00     0.038 C
ENDBRANCH   2   3
ENDBRANCH   1   2
BRANCH   1  10
HETATM   10  C8  UNL     1       6.868  28.998  17.508  1.00  0.00    -0.074 C
HETATM   11  C9  UNL     1       7.803  28.309  17.198  1.00  0.00    -0.102 C
BRANCH  11  12
HETATM   12  C10 UNL     1       8.947  27.493  16.804  1.00  0.00     0.129 C
BRANCH  12  13
HETATM   13  C11 UNL     1       8.633  26.735  15.512  1.00  0.00     0.151 C
BRANCH  13  14
HETATM   14  O1  UNL     1       7.374  27.107  15.108  1.00  0.00    -0.391 OA
ATOM     15  H1  UNL     1       7.415  28.018  14.842  1.00  0.00     0.210 HD
ENDBRANCH  13  14
BRANCH  13  16
HETATM   16  C12 UNL     1       9.691  26.942  14.524  1.00  0.00     0.002 C
HETATM   17  C13 UNL     1       9.442  27.672  13.443  1.00  0.00    -0.021 C
BRANCH  17  18
HETATM   18  C14 UNL     1      10.524  27.884  12.430  1.00  0.00     0.038 C
HETATM   19  C15 UNL     1      11.870  27.778  13.131  1.00  0.00     0.031 C
HETATM   20  C16 UNL     1      12.670  28.964  12.680  1.00  0.00     0.085 C
HETATM   21 CL1  UNL     1      14.282  28.506  12.131  1.00  0.00    -0.125 Cl
HETATM   22  C17 UNL     1      11.910  29.559  11.499  1.00  0.00     0.052 C
HETATM   23  C18 UNL     1      10.481  29.293  11.904  1.00  0.00     0.127 C
BRANCH  23  24
HETATM   24  O2  UNL     1       9.612  29.324  10.824  1.00  0.00    -0.395 OA
ATOM     25  H2  UNL     1       9.736  30.148  10.370  1.00  0.00     0.210 HD
ENDBRANCH  23  24
ENDBRANCH  17  18
ENDBRANCH  13  16
ENDBRANCH  12  13
ENDBRANCH  11  12
ENDBRANCH   1  10
BRANCH   1  26
HETATM   26  C19 UNL     1       4.539  29.382  17.158  1.00  0.00     0.148 C
HETATM   27  N1  UNL     1       3.252  29.797  17.008  1.00  0.00    -0.360 N
HETATM   28  C20 UNL     1       2.369  28.976  16.113  1.00  0.00     0.155 C
HETATM   29  C24 UNL     1       2.576  30.907  17.564  1.00  0.00     0.155 C
HETATM   30  C21 UNL     1       1.279  29.873  15.613  1.00  0.00     0.291 C
HETATM   31  N2  UNL     1       1.803  31.169  15.305  1.00  0.00     0.087 N
HETATM   32  C22 UNL     1       0.743  31.946  14.653  1.00  0.00     0.310 C
HETATM   33  C23 UNL     1       2.205  31.926  16.479  1.00  0.00     0.291 C
BRANCH  26  34
HETATM   34  O3  UNL     1       4.826  28.278  16.471  1.00  0.00    -0.348 OA
ATOM     35  H3  UNL     1       4.530  28.315  15.570  1.00  0.00     0.219 HD
ENDBRANCH  26  34
ENDBRANCH   1  26
BRANCH   1  36
HETATM   36  C25 UNL     1       5.469  29.604  19.365  1.00  0.00     0.417 C
HETATM   37  F1  UNL     1       4.749  30.705  19.900  1.00  0.00    -0.168 F
HETATM   38  F2  UNL     1       4.498  28.581  19.525  1.00  0.00    -0.168 F
HETATM   39  F3  UNL     1       6.510  29.400  20.172  1.00  0.00    -0.168 F
ENDBRANCH   1  36
TORSDOF 12
ENDMDL