MODEL 2
REMARK VINA RESULT: -7.727700016      7.495      9.043
REMARK  6 active torsions:
REMARK  status: ('A' for Active; 'I' for Inactive)
REMARK    1  A    between atoms: C2_2  and  C3_3
REMARK    2  A    between atoms: C4_6  and  C5_7
REMARK    3  A    between atoms: C4_6  and  C10_15
REMARK    4  A    between atoms: N2_10  and  C8_11
REMARK    5  A    between atoms: C12_24  and  C13_25
REMARK       I    between atoms: C13_25  and  N5_27
REMARK    6  A    between atoms: N6_30  and  C16_31
ROOT
HETATM    1  C3  UNL     1       5.137  25.663  22.670  1.00  0.00     0.005 C
HETATM    2  N1  UNL     1       5.663  24.924  23.533  1.00  0.00    -0.361 N
ATOM      3  H1  UNL     1       6.265  24.183  23.173  1.00  0.00     0.162 HD
HETATM    4  C4  UNL     1       5.532  24.979  24.966  1.00  0.00     0.198 C
HETATM    5  N3  UNL     1       4.668  26.073  25.336  1.00  0.00    -0.344 N
ATOM      6  H3  UNL     1       4.746  26.497  26.260  1.00  0.00     0.163 HD
HETATM    7  C11 UNL     1       3.688  26.566  24.388  1.00  0.00     0.091 C
HETATM    8  N4  UNL     1       2.460  26.732  24.746  1.00  0.00    -0.388 N
ATOM      9  H41 UNL     1       1.771  27.079  24.079  1.00  0.00     0.157 HD
ATOM     10  H42 UNL     1       2.091  26.560  25.681  1.00  0.00     0.157 HD
HETATM   11  C12 UNL     1       4.225  26.815  23.031  1.00  0.00     0.190 C
ENDROOT
BRANCH  11  12
HETATM   12  C13 UNL     1       4.928  28.089  22.966  1.00  0.00     0.238 C
HETATM   13  O1  UNL     1       5.758  28.304  23.938  1.00  0.00    -0.272 OA
HETATM   14  N5  UNL     1       4.859  29.119  22.031  1.00  0.00    -0.324 N
HETATM   15  C14 UNL     1       4.047  29.228  20.857  1.00  0.00     0.158 C
HETATM   16  C26 UNL     1       5.686  30.352  22.071  1.00  0.00     0.401 C
HETATM   17  C15 UNL     1       4.622  30.404  20.115  1.00  0.00     0.295 C
HETATM   18  N6  UNL     1       5.934  30.535  20.652  1.00  0.00     0.117 N
BRANCH  18  19
HETATM   19  C16 UNL     1       6.595  31.765  20.340  1.00  0.00     0.163 C
HETATM   20  C17 UNL     1       6.811  32.489  21.675  1.00  0.00     0.046 C
HETATM   21  C18 UNL     1       7.359  33.871  21.421  1.00  0.00    -0.011 C
HETATM   22  C19 UNL     1       8.683  33.786  20.713  1.00  0.00     0.009 C
HETATM   23  C23 UNL     1       6.375  34.630  20.585  1.00  0.00     0.009 C
HETATM   24  C20 UNL     1       8.470  33.021  19.427  1.00  0.00    -0.011 C
HETATM   25  C21 UNL     1       7.561  33.810  18.532  1.00  0.00     0.009 C
HETATM   26  C25 UNL     1       7.937  31.619  19.706  1.00  0.00     0.046 C
HETATM   27  C22 UNL     1       6.227  33.975  19.229  1.00  0.00    -0.011 C
HETATM   28  C24 UNL     1       5.669  32.582  19.452  1.00  0.00     0.046 C
ENDBRANCH  18  19
ENDBRANCH  11  12
BRANCH   1  29
HETATM   29  C2  UNL     1       5.403  25.435  21.230  1.00  0.00     0.049 C
HETATM   30  C1  UNL     1       6.811  24.868  21.019  1.00  0.00     0.011 C
ENDBRANCH   1  29
BRANCH   4  31
HETATM   31  C5  UNL     1       4.904  23.709  25.409  1.00  0.00     0.053 A
HETATM   32  C6  UNL     1       5.311  22.993  26.515  1.00  0.00     0.034 A
HETATM   33  C7  UNL     1       4.491  21.880  26.647  1.00  0.00     0.095 A
HETATM   34  N2  UNL     1       3.596  21.906  25.644  1.00  0.00    -0.320 N
HETATM   35  C9  UNL     1       3.845  23.019  24.888  1.00  0.00     0.202 A
HETATM   36  F1  UNL     1       3.098  23.283  23.789  1.00  0.00    -0.185 F
BRANCH  34  37
HETATM   37  C8  UNL     1       2.555  20.925  25.411  1.00  0.00     0.245 C
HETATM   38 CL1  UNL     1       0.955  21.640  25.802  1.00  0.00    -0.108 Cl
ENDBRANCH  34  37
ENDBRANCH   4  31
BRANCH   4  39
HETATM   39  C10 UNL     1       6.917  25.063  25.571  1.00  0.00     0.406 C
HETATM   40  F2  UNL     1       7.071  25.959  26.563  1.00  0.00    -0.209 F
HETATM   41  F3  UNL     1       7.826  25.243  24.535  1.00  0.00    -0.209 F
ENDBRANCH   4  39
TORSDOF 6
ENDMDL