MODEL 2
REMARK VINA RESULT: -7.044860580      2.134      2.846
REMARK  11 active torsions:
REMARK  status: ('A' for Active; 'I' for Inactive)
REMARK    1  A    between atoms: C2_2  and  O1_5
REMARK    2  A    between atoms: O1_5  and  C5_6
REMARK       I    between atoms: C5_6  and  N1_8
REMARK    3  A    between atoms: N1_8  and  C6_10
REMARK    4  A    between atoms: C6_10  and  C7_11
REMARK    5  A    between atoms: N2_17  and  C10_18
REMARK    6  A    between atoms: C10_18  and  O3_19
REMARK    7  A    between atoms: C10_18  and  C11_21
REMARK    8  A    between atoms: C11_21  and  N3_22
REMARK    9  A    between atoms: N3_22  and  C12_24
REMARK   10  A    between atoms: C12_24  and  C13_25
REMARK       I    between atoms: C13_25  and  N4_27
REMARK   11  A    between atoms: N4_27  and  C14_29
ROOT
HETATM    1  C10 UNL     1       5.420  40.611  62.192  1.00  0.00     0.142 C
ENDROOT
BRANCH   1   2
HETATM    2  N2  UNL     1       5.783  40.597  60.848  1.00  0.00    -0.363 N
HETATM    3  C9  UNL     1       4.917  39.884  59.869  1.00  0.00     0.127 C
HETATM    4  C8  UNL     1       5.763  38.755  59.299  1.00  0.00     0.060 C
HETATM    5  C6  UNL     1       6.985  39.274  58.558  1.00  0.00     0.135 C
HETATM    6  C22 UNL     1       7.126  40.763  58.811  1.00  0.00     0.060 C
HETATM    7  C21 UNL     1       6.914  41.216  60.224  1.00  0.00     0.127 C
BRANCH   5   8
HETATM    8  N1  UNL     1       6.717  39.077  57.160  1.00  0.00    -0.319 N
HETATM    9  C5  UNL     1       5.888  39.816  56.296  1.00  0.00     0.362 C
HETATM   10  O2  UNL     1       5.220  40.818  56.617  1.00  0.00    -0.238 OA
ATOM     11  H1  UNL     1       7.199  38.287  56.731  1.00  0.00     0.166 HD
BRANCH   9  12
HETATM   12  O1  UNL     1       5.751  39.450  54.939  1.00  0.00    -0.294 OA
BRANCH  12  13
HETATM   13  C2  UNL     1       5.051  38.315  54.540  1.00  0.00     0.061 C
HETATM   14  C1  UNL     1       3.760  38.107  55.305  1.00  0.00     0.046 C
HETATM   15  C3  UNL     1       5.826  37.040  54.548  1.00  0.00     0.046 C
HETATM   16  C4  UNL     1       4.628  38.567  53.083  1.00  0.00     0.046 C
ENDBRANCH  12  13
ENDBRANCH   9  12
ENDBRANCH   5   8
BRANCH   5  17
HETATM   17  C7  UNL     1       8.234  38.563  58.958  1.00  0.00     0.412 C
HETATM   18  F1  UNL     1       9.374  39.274  58.989  1.00  0.00    -0.168 F
HETATM   19  F2  UNL     1       8.416  37.382  58.217  1.00  0.00    -0.168 F
HETATM   20  F3  UNL     1       8.039  38.078  60.271  1.00  0.00    -0.168 F
ENDBRANCH   5  17
ENDBRANCH   1   2
BRANCH   1  21
HETATM   21  O3  UNL     1       5.771  39.488  62.803  1.00  0.00    -0.348 OA
ATOM     22  H3  UNL     1       5.625  39.541  63.740  1.00  0.00     0.219 HD
ENDBRANCH   1  21
BRANCH   1  23
HETATM   23  C11 UNL     1       4.749  41.630  62.993  1.00  0.00     0.098 C
HETATM   24  C17 UNL     1       3.717  41.065  63.907  1.00  0.00     0.042 C
HETATM   25  C18 UNL     1       2.864  42.288  64.300  1.00  0.00     0.045 C
HETATM   26  C19 UNL     1       2.931  43.213  63.104  1.00  0.00     0.116 C
HETATM   27 CL1  UNL     1       3.397  44.825  63.731  1.00  0.00    -0.102 Cl
HETATM   28 CL2  UNL     1       1.349  43.407  62.321  1.00  0.00    -0.102 Cl
HETATM   29  C20 UNL     1       3.987  42.672  62.161  1.00  0.00     0.082 C
BRANCH  23  30
HETATM   30  N3  UNL     1       5.724  42.326  63.811  1.00  0.00    -0.378 N
ATOM     31  H3  UNL     1       5.836  42.099  64.799  1.00  0.00     0.160 HD
BRANCH  30  32
HETATM   32  C12 UNL     1       6.511  43.320  63.206  1.00  0.00     0.159 C
BRANCH  32  33
HETATM   33  C13 UNL     1       7.273  44.039  64.297  1.00  0.00     0.256 C
HETATM   34  O4  UNL     1       6.935  45.196  64.577  1.00  0.00    -0.267 OA
HETATM   35  N4  UNL     1       8.336  43.423  64.982  1.00  0.00    -0.352 N
ATOM     36  H4  UNL     1       8.608  42.470  64.741  1.00  0.00     0.163 HD
BRANCH  35  37
HETATM   37  C14 UNL     1       9.046  44.128  66.026  1.00  0.00     0.084 A
HETATM   38  C15 UNL     1      10.356  44.694  65.674  1.00  0.00     0.027 A
HETATM   39  C16 UNL     1      10.307  43.419  66.456  1.00  0.00     0.027 A
ENDBRANCH  35  37
ENDBRANCH  32  33
ENDBRANCH  30  32
ENDBRANCH  23  30
ENDBRANCH   1  23
TORSDOF 11
ENDMDL