MODEL 2
REMARK VINA RESULT: -7.559780533      5.869      9.711
REMARK  10 active torsions:
REMARK  status: ('A' for Active; 'I' for Inactive)
REMARK    1  A    between atoms: N1_2  and  C2_3
REMARK    2  A    between atoms: N1_2  and  C22_35
REMARK    3  A    between atoms: C2_3  and  C3_4
REMARK    4  A    between atoms: C3_4  and  N2_5
REMARK    5  A    between atoms: N2_5  and  C4_7
REMARK    6  A    between atoms: C11_20  and  C12_21
REMARK    7  A    between atoms: C13_22  and  C14_23
REMARK    8  A    between atoms: C14_23  and  O1_24
REMARK    9  A    between atoms: C22_35  and  C23_36
REMARK   10  A    between atoms: C23_36  and  C24_38
ROOT
HETATM    1  C4  UNL     1       7.285  43.709  63.425  1.00  0.00     0.678 A
HETATM    2  N3  UNL     1       6.345  42.727  63.376  1.00  0.00    -0.191 N
ATOM      3  H3  UNL     1       6.484  41.935  62.748  1.00  0.00     0.184 HD
HETATM    4  C5  UNL     1       5.242  42.776  64.131  1.00  0.00     0.069 A
HETATM    5  C6  UNL     1       5.014  43.823  64.989  1.00  0.00    -0.014 A
HETATM    6  C7  UNL     1       5.969  44.817  65.037  1.00  0.00     0.115 A
HETATM    7  N4  UNL     1       7.087  44.745  64.257  1.00  0.00    -0.201 N
ATOM      8  H4  UNL     1       7.783  45.489  64.305  1.00  0.00     0.183 HD
HETATM    9  C8  UNL     1       3.839  43.958  65.849  1.00  0.00     0.048 A
HETATM   10  C9  UNL     1       2.835  42.877  65.782  1.00  0.00     0.062 A
HETATM   11  C10 UNL     1       3.140  41.797  64.848  1.00  0.00     0.023 A
HETATM   12  N5  UNL     1       2.421  40.694  64.573  1.00  0.00    -0.352 N
ATOM     13  H5  UNL     1       1.526  40.460  65.003  1.00  0.00     0.166 HD
HETATM   14  C11 UNL     1       3.046  39.949  63.657  1.00  0.00     0.088 A
HETATM   15  C20 UNL     1       4.234  40.568  63.296  1.00  0.00     0.054 A
HETATM   16  C21 UNL     1       4.265  41.724  64.060  1.00  0.00     0.017 A
ENDROOT
BRANCH   1  17
HETATM   17  N2  UNL     1       8.325  43.600  62.671  1.00  0.00    -0.224 N
ATOM     18  H2  UNL     1       8.959  42.824  62.860  1.00  0.00     0.177 HD
BRANCH  17  19
HETATM   19  C3  UNL     1       8.663  44.476  61.594  1.00  0.00     0.157 C
BRANCH  19  20
HETATM   20  C2  UNL     1       8.621  43.789  60.250  1.00  0.00     0.137 C
BRANCH  20  21
HETATM   21  N1  UNL     1       7.453  42.973  60.129  1.00  0.00    -0.408 N
HETATM   22  C1  UNL     1       6.260  43.660  59.744  1.00  0.00     0.143 C
BRANCH  21  23
HETATM   23  C22 UNL     1       7.660  41.709  59.493  1.00  0.00     0.195 C
BRANCH  23  24
HETATM   24  C23 UNL     1       7.786  40.607  60.464  1.00  0.00     0.158 C
HETATM   25  O2  UNL     1       8.089  40.797  61.650  1.00  0.00    -0.295 OA
BRANCH  24  26
HETATM   26  C24 UNL     1       7.552  39.204  60.050  1.00  0.00     0.089 A
HETATM   27  C25 UNL     1       6.798  38.370  61.060  1.00  0.00     0.030 C
HETATM   28  C26 UNL     1       7.236  38.945  58.614  1.00  0.00     0.103 A
HETATM   29  C27 UNL     1       8.609  38.581  59.211  1.00  0.00     0.259 A
HETATM   30  F3  UNL     1       8.888  37.271  59.452  1.00  0.00    -0.205 F
HETATM   31  F4  UNL     1       9.650  39.409  58.786  1.00  0.00    -0.205 F
ENDBRANCH  24  26
ENDBRANCH  23  24
ENDBRANCH  21  23
ENDBRANCH  20  21
ENDBRANCH  19  20
ENDBRANCH  17  19
ENDBRANCH   1  17
BRANCH  14  32
HETATM   32  C12 UNL     1       2.630  38.694  63.078  1.00  0.00    -0.046 C
HETATM   33  C13 UNL     1       2.278  37.656  62.576  1.00  0.00    -0.061 C
BRANCH  33  34
HETATM   34  C14 UNL     1       1.852  36.391  61.957  1.00  0.00     0.121 C
HETATM   35  C15 UNL     1       3.093  35.695  61.439  1.00  0.00     0.057 C
HETATM   36  C16 UNL     1       3.714  34.998  62.642  1.00  0.00     0.083 C
HETATM   37  C17 UNL     1       2.899  33.758  62.905  1.00  0.00     0.244 C
HETATM   38  F1  UNL     1       3.110  32.911  61.808  1.00  0.00    -0.206 F
HETATM   39  F2  UNL     1       3.312  33.114  64.054  1.00  0.00    -0.206 F
HETATM   40  C18 UNL     1       1.452  34.110  62.917  1.00  0.00     0.083 C
HETATM   41  C19 UNL     1       1.158  35.577  63.023  1.00  0.00     0.057 C
BRANCH  34  42
HETATM   42  O1  UNL     1       1.039  36.670  60.870  1.00  0.00    -0.378 OA
ATOM     43  H1  UNL     1       1.371  37.440  60.423  1.00  0.00     0.211 HD
ENDBRANCH  34  42
ENDBRANCH  33  34
ENDBRANCH  14  32
TORSDOF 10
ENDMDL