MODEL 1
REMARK VINA RESULT: -6.437010965      0.000      0.000
REMARK  8 active torsions:
REMARK  status: ('A' for Active; 'I' for Inactive)
REMARK    1  A    between atoms: C2_2  and  C5_5
REMARK    2  A    between atoms: N2_11  and  C9_12
REMARK    3  A    between atoms: C9_12  and  C10_13
REMARK    4  A    between atoms: C9_12  and  C11_16
REMARK    5  A    between atoms: C11_16  and  N3_17
REMARK    6  A    between atoms: C11_16  and  C19_30
REMARK       I    between atoms: N3_17  and  C12_19
REMARK    7  A    between atoms: C12_19  and  C13_21
REMARK    8  A    between atoms: C21_34  and  C22_35
ROOT
HETATM    1  C9  UNL     1       5.504  43.818  59.854  1.00  0.00     0.376 C
ENDROOT
BRANCH   1   2
HETATM    2  N2  UNL     1       4.461  43.228  60.619  1.00  0.00     0.152 N
HETATM    3  C6  UNL     1       3.373  44.096  60.911  1.00  0.00     0.227 C
HETATM    4  N1  UNL     1       3.465  44.363  62.315  1.00  0.00    -0.360 N
HETATM    5  C7  UNL     1       1.985  43.560  60.645  1.00  0.00     0.073 C
HETATM    6  C8  UNL     1       3.414  45.495  60.299  1.00  0.00     0.073 C
HETATM    7  C5  UNL     1       4.252  43.597  62.911  1.00  0.00     0.031 C
ATOM      8  H1  UNL     1       2.941  45.104  62.782  1.00  0.00     0.161 HD
HETATM    9  C21 UNL     1       4.775  42.663  61.871  1.00  0.00     0.338 C
BRANCH   7  10
HETATM   10  C2  UNL     1       4.532  43.676  64.380  1.00  0.00    -0.011 C
HETATM   11  C1  UNL     1       3.454  42.861  65.103  1.00  0.00     0.021 C
HETATM   12  C3  UNL     1       4.302  45.128  64.862  1.00  0.00     0.021 C
HETATM   13  C4  UNL     1       5.890  43.309  64.832  1.00  0.00     0.021 C
ENDBRANCH   7  10
BRANCH   9  14
HETATM   14  C22 UNL     1       4.249  41.291  62.152  1.00  0.00     0.392 C
HETATM   15  F2  UNL     1       5.050  40.544  63.026  1.00  0.00    -0.212 F
HETATM   16  F3  UNL     1       3.970  40.482  61.114  1.00  0.00    -0.212 F
ENDBRANCH   9  14
ENDBRANCH   1   2
BRANCH   1  17
HETATM   17  C10 UNL     1       5.245  43.278  58.452  1.00  0.00     0.213 C
HETATM   18  O1  UNL     1       5.552  43.838  57.397  1.00  0.00    -0.646 OA
HETATM   19  O2  UNL     1       4.604  42.035  58.272  1.00  0.00    -0.646 OA
ENDBRANCH   1  17
BRANCH   1  20
HETATM   20  C11 UNL     1       6.914  43.524  60.117  1.00  0.00     0.084 C
BRANCH  20  21
HETATM   21  N3  UNL     1       7.392  42.328  59.532  1.00  0.00    -0.326 N
HETATM   22  C12 UNL     1       7.835  41.152  60.139  1.00  0.00     0.253 C
HETATM   23  O3  UNL     1       7.828  41.111  61.409  1.00  0.00    -0.271 OA
ATOM     24  H3  UNL     1       7.417  42.325  58.512  1.00  0.00     0.168 HD
BRANCH  22  25
HETATM   25  C13 UNL     1       8.316  39.944  59.482  1.00  0.00     0.281 C
HETATM   26  N4  UNL     1       7.775  39.854  58.114  1.00  0.00    -0.058 N
HETATM   27  C14 UNL     1       7.327  38.495  57.934  1.00  0.00     0.187 C
ATOM     28  H42 UNL     1       7.051  40.546  57.921  1.00  0.00     0.278 HD
ATOM     29  H41 UNL     1       8.437  40.159  57.400  1.00  0.00     0.278 HD
HETATM   30  C15 UNL     1       6.040  38.324  58.711  1.00  0.00     0.033 C
HETATM   31  C18 UNL     1       8.294  37.756  58.873  1.00  0.00     0.040 C
HETATM   32  C16 UNL     1       6.476  38.387  60.158  1.00  0.00     0.009 C
HETATM   33  C17 UNL     1       7.955  38.637  60.097  1.00  0.00     0.028 C
ENDBRANCH  22  25
ENDBRANCH  20  21
BRANCH  20  34
HETATM   34  C19 UNL     1       7.835  44.685  60.187  1.00  0.00     0.197 C
HETATM   35  C20 UNL     1       7.505  45.987  59.621  1.00  0.00     0.072 C
HETATM   36  F1  UNL     1       9.124  44.360  59.783  1.00  0.00    -0.224 F
HETATM   37 BR1  UNL     1       8.119  45.075  62.109  1.00  0.00    -0.042 Br
ENDBRANCH  20  34
ENDBRANCH   1  20
TORSDOF 8
ENDMDL