MODEL 3
REMARK VINA RESULT: -7.554813887      2.710      3.485
REMARK  7 active torsions:
REMARK  status: ('A' for Active; 'I' for Inactive)
REMARK    1  A    between atoms: N1_2  and  C2_3
REMARK    2  A    between atoms: N1_2  and  C14_25
REMARK    3  A    between atoms: C2_3  and  C3_4
REMARK       I    between atoms: C3_4  and  N2_6
REMARK    4  A    between atoms: C6_10  and  O2_11
REMARK    5  A    between atoms: C6_10  and  N3_13
REMARK       I    between atoms: N3_13  and  C7_15
REMARK    6  A    between atoms: C7_15  and  C8_17
REMARK    7  A    between atoms: C14_25  and  C15_26
ROOT
HETATM    1  C3  UNL     1       7.064  42.939  61.867  1.00  0.00     0.265 C
HETATM    2  O1  UNL     1       8.253  42.563  61.983  1.00  0.00    -0.266 OA
HETATM    3  N2  UNL     1       6.212  42.230  60.979  1.00  0.00    -0.292 N
HETATM    4  C4  UNL     1       4.821  42.556  60.771  1.00  0.00     0.088 C
HETATM    5  S1  UNL     1       3.921  43.768  61.337  1.00  0.00    -0.065 SA
HETATM    6  C5  UNL     1       4.223  41.513  59.854  1.00  0.00     0.133 C
HETATM    7  C6  UNL     1       5.440  41.207  59.028  1.00  0.00     0.166 C
HETATM    8  C9  UNL     1       6.486  41.108  60.148  1.00  0.00     0.091 C
HETATM    9  C10 UNL     1       6.184  39.794  60.838  1.00  0.00     0.037 C
HETATM   10  C11 UNL     1       7.567  39.263  61.113  1.00  0.00     0.003 C
HETATM   11  C12 UNL     1       8.321  39.642  59.880  1.00  0.00     0.003 C
HETATM   12  C13 UNL     1       7.801  41.008  59.505  1.00  0.00     0.037 C
ENDROOT
BRANCH   1  13
HETATM   13  C2  UNL     1       6.620  44.085  62.652  1.00  0.00     0.165 C
BRANCH  13  14
HETATM   14  N1  UNL     1       6.558  43.900  64.043  1.00  0.00    -0.365 N
HETATM   15  C1  UNL     1       6.057  42.716  64.587  1.00  0.00     0.155 C
BRANCH  14  16
HETATM   16  C14 UNL     1       7.107  44.886  64.862  1.00  0.00     0.103 C
BRANCH  16  17
HETATM   17  C15 UNL     1       8.574  44.769  65.019  1.00  0.00     0.003 A
HETATM   18  C16 UNL     1       9.153  43.936  65.928  1.00  0.00     0.038 A
HETATM   19  C17 UNL     1      10.551  43.864  65.992  1.00  0.00     0.035 A
HETATM   20 CL3  UNL     1      11.267  42.786  67.168  1.00  0.00    -0.084 Cl
HETATM   21  C18 UNL     1      11.372  44.603  65.170  1.00  0.00     0.025 A
HETATM   22  C19 UNL     1      10.756  45.425  64.273  1.00  0.00     0.026 A
HETATM   23  C20 UNL     1       9.399  45.530  64.172  1.00  0.00     0.045 A
HETATM   24 CL4  UNL     1       8.672  46.605  62.997  1.00  0.00    -0.083 Cl
ENDBRANCH  16  17
ENDBRANCH  14  16
ENDBRANCH  13  14
ENDBRANCH   1  13
BRANCH   7  25
HETATM   25  O2  UNL     1       5.334  39.969  58.382  1.00  0.00    -0.368 OA
ATOM     26  H2  UNL     1       6.011  39.853  57.726  1.00  0.00     0.212 HD
ENDBRANCH   7  25
BRANCH   7  27
HETATM   27  N3  UNL     1       5.765  42.261  58.108  1.00  0.00    -0.325 N
HETATM   28  C7  UNL     1       5.027  42.390  56.910  1.00  0.00     0.253 C
HETATM   29  O3  UNL     1       4.091  41.610  56.607  1.00  0.00    -0.270 OA
ATOM     30  H3  UNL     1       6.522  42.912  58.317  1.00  0.00     0.165 HD
BRANCH  28  31
HETATM   31  C8  UNL     1       5.355  43.487  55.954  1.00  0.00     0.269 C
HETATM   32 CL1  UNL     1       3.835  44.408  55.713  1.00  0.00    -0.098 Cl
HETATM   33 CL2  UNL     1       5.959  42.791  54.454  1.00  0.00    -0.098 Cl
ENDBRANCH  28  31
ENDBRANCH   7  27
TORSDOF 7
ENDMDL