MODEL 2
REMARK VINA RESULT: -7.092497175      2.530      3.881
REMARK  8 active torsions:
REMARK  status: ('A' for Active; 'I' for Inactive)
REMARK    1  A    between atoms: C2_2  and  N1_3
REMARK    2  A    between atoms: N1_3  and  C3_5
REMARK    3  A    between atoms: C3_5  and  C4_6
REMARK    4  A    between atoms: C4_6  and  C5_7
REMARK    5  A    between atoms: C5_7  and  N2_8
REMARK       I    between atoms: N2_8  and  C7_10
REMARK    6  A    between atoms: C7_10  and  C8_12
REMARK    7  A    between atoms: C8_12  and  O2_13
REMARK    8  A    between atoms: C8_12  and  C9_15
ROOT
HETATM    1  C9  UNL     1       5.722  42.318  60.171  1.00  0.00     0.101 C
HETATM    2  C10 UNL     1       5.679  41.154  61.078  1.00  0.00     0.148 C
HETATM    3  O3  UNL     1       6.215  41.023  62.139  1.00  0.00    -0.296 OA
HETATM    4  C11 UNL     1       4.825  40.031  60.505  1.00  0.00     0.129 C
HETATM    5 BR1  UNL     1       5.446  38.325  61.164  1.00  0.00    -0.083 Br
HETATM    6  C12 UNL     1       4.773  40.112  59.013  1.00  0.00     0.038 C
HETATM    7  C13 UNL     1       6.000  40.687  58.357  1.00  0.00    -0.007 C
HETATM    8  C14 UNL     1       5.457  41.243  57.014  1.00  0.00     0.021 C
HETATM    9  C15 UNL     1       6.898  39.595  57.929  1.00  0.00    -0.017 A
HETATM   10  C16 UNL     1       6.470  38.697  56.975  1.00  0.00     0.054 A
HETATM   11  C17 UNL     1       7.327  37.661  56.578  1.00  0.00     0.141 A
HETATM   12  F1  UNL     1       6.931  36.765  55.645  1.00  0.00    -0.204 F
HETATM   13  C18 UNL     1       8.586  37.518  57.117  1.00  0.00     0.113 A
HETATM   14 CL1  UNL     1       9.671  36.214  56.622  1.00  0.00    -0.078 Cl
HETATM   15  C19 UNL     1       9.005  38.423  58.071  1.00  0.00     0.168 A
HETATM   16  F2  UNL     1      10.235  38.294  58.605  1.00  0.00    -0.202 F
HETATM   17  C20 UNL     1       8.143  39.436  58.446  1.00  0.00     0.076 A
HETATM   18  N3  UNL     1       8.584  40.354  59.419  1.00  0.00    -0.387 N
ATOM     19  H3  UNL     1       9.362  40.083  60.020  1.00  0.00     0.159 HD
HETATM   20  C21 UNL     1       8.000  41.642  59.607  1.00  0.00     0.126 C
HETATM   21  C22 UNL     1       6.647  41.833  59.038  1.00  0.00     0.030 C
ENDROOT
BRANCH   1  22
HETATM   22  C8  UNL     1       6.097  43.624  60.737  1.00  0.00     0.221 C
BRANCH  22  23
HETATM   23  C7  UNL     1       6.053  43.682  62.201  1.00  0.00     0.249 C
HETATM   24  N2  UNL     1       7.169  43.767  63.066  1.00  0.00    -0.354 N
HETATM   25  C6  UNL     1       8.532  43.783  62.614  1.00  0.00     0.152 C
HETATM   26  O1  UNL     1       4.922  43.657  62.807  1.00  0.00    -0.270 OA
BRANCH  24  27
HETATM   27  C5  UNL     1       6.943  43.832  64.499  1.00  0.00     0.127 C
BRANCH  27  28
HETATM   28  C4  UNL     1       8.088  44.447  65.236  1.00  0.00     0.039 C
BRANCH  28  29
HETATM   29  C3  UNL     1       8.768  43.433  66.126  1.00  0.00     0.115 C
BRANCH  29  30
HETATM   30  N1  UNL     1      10.118  43.769  66.477  1.00  0.00    -0.421 N
ATOM     31  H1  UNL     1      10.635  43.271  67.202  1.00  0.00     0.153 HD
BRANCH  30  32
HETATM   32  C2  UNL     1      10.686  44.853  65.732  1.00  0.00     0.109 C
HETATM   33  C1  UNL     1      12.105  44.483  65.389  1.00  0.00     0.026 C
ENDBRANCH  30  32
ENDBRANCH  29  30
ENDBRANCH  28  29
ENDBRANCH  27  28
ENDBRANCH  24  27
ENDBRANCH  22  23
BRANCH  22  34
HETATM   34  O2  UNL     1       5.306  44.592  60.114  1.00  0.00    -0.385 OA
ATOM     35  H2  UNL     1       5.654  45.473  60.187  1.00  0.00     0.210 HD
ENDBRANCH  22  34
ENDBRANCH   1  22
TORSDOF 8
ENDMDL