MODEL 5
REMARK VINA RESULT: -8.291567589      4.040      7.906
REMARK  9 active torsions:
REMARK  status: ('A' for Active; 'I' for Inactive)
REMARK    1  A    between atoms: C8_9  and  C9_10
REMARK    2  A    between atoms: C9_10  and  C10_11
REMARK       I    between atoms: N2_18  and  C15_19
REMARK    3  A    between atoms: C15_19  and  C16_21
REMARK    4  A    between atoms: C16_21  and  C17_22
REMARK    5  A    between atoms: C17_22  and  C18_23
REMARK    6  A    between atoms: C17_22  and  C20_28
REMARK    7  A    between atoms: C18_23  and  C19_24
REMARK    8  A    between atoms: C20_28  and  O3_29
REMARK    9  A    between atoms: N3_31  and  O4_33
ROOT
HETATM    1  C1  UNL     1       9.144  45.557  64.619  1.00  0.00     0.309 C
HETATM    2  N1  UNL     1       8.391  44.873  63.561  1.00  0.00     0.085 N
HETATM    3  C2  UNL     1       7.688  43.730  64.092  1.00  0.00     0.272 C
HETATM    4  C3  UNL     1       6.192  43.942  63.834  1.00  0.00     0.034 C
HETATM    5  C4  UNL     1       5.508  42.606  64.089  1.00  0.00     0.028 C
HETATM    6  C5  UNL     1       4.272  42.566  63.265  1.00  0.00    -0.031 C
HETATM    7  C6  UNL     1       3.738  41.398  62.853  1.00  0.00    -0.030 C
HETATM    8  C7  UNL     1       4.362  40.075  63.202  1.00  0.00     0.041 C
HETATM    9  C8  UNL     1       5.302  39.540  62.170  1.00  0.00     0.082 C
HETATM   10  C14 UNL     1       4.858  39.861  60.760  1.00  0.00     0.231 C
HETATM   11  O1  UNL     1       3.626  39.941  60.577  1.00  0.00    -0.273 OA
HETATM   12  N2  UNL     1       5.715  40.068  59.658  1.00  0.00    -0.288 N
HETATM   13  C15 UNL     1       5.405  39.427  58.392  1.00  0.00     0.227 C
HETATM   14  O2  UNL     1       4.356  38.713  58.342  1.00  0.00    -0.273 OA
HETATM   15  C21 UNL     1       6.907  40.875  59.673  1.00  0.00     0.136 C
HETATM   16  C22 UNL     1       6.713  42.206  60.360  1.00  0.00     0.048 C
HETATM   17  C23 UNL     1       7.532  43.287  59.693  1.00  0.00     0.234 C
HETATM   18  N4  UNL     1       8.749  43.467  60.427  1.00  0.00    -0.073 N
ATOM     19  H41 UNL     1       9.564  43.356  59.823  1.00  0.00     0.277 HD
ATOM     20  H42 UNL     1       8.912  42.689  61.066  1.00  0.00     0.277 HD
HETATM   21  C24 UNL     1       8.790  44.743  61.132  1.00  0.00     0.262 C
HETATM   22  C25 UNL     1       9.326  44.506  62.524  1.00  0.00     0.299 C
ENDROOT
BRANCH  13  23
HETATM   23  C16 UNL     1       6.251  39.575  57.189  1.00  0.00     0.116 C
BRANCH  23  24
HETATM   24  C17 UNL     1       7.199  38.459  56.938  1.00  0.00     0.079 C
BRANCH  24  25
HETATM   25  C18 UNL     1       7.830  37.777  58.084  1.00  0.00     0.130 C
BRANCH  25  26
HETATM   26  C19 UNL     1       9.291  37.950  58.283  1.00  0.00     0.388 C
HETATM   27  F2  UNL     1       9.883  37.735  57.023  1.00  0.00    -0.171 F
HETATM   28  F3  UNL     1       9.830  36.927  59.071  1.00  0.00    -0.171 F
HETATM   29  F4  UNL     1       9.732  39.165  58.701  1.00  0.00    -0.171 F
ENDBRANCH  25  26
ENDBRANCH  24  25
BRANCH  24  30
HETATM   30  C20 UNL     1       6.567  37.452  55.987  1.00  0.00     0.140 C
HETATM   31  N3  UNL     1       7.280  36.952  55.049  1.00  0.00    -0.251 N
ATOM     32  H3  UNL     1       8.256  37.233  54.949  1.00  0.00     0.196 HD
BRANCH  30  33
HETATM   33  O3  UNL     1       5.249  37.067  56.112  1.00  0.00    -0.348 OA
ATOM     34  H3  UNL     1       4.802  37.087  56.950  1.00  0.00     0.219 HD
ENDBRANCH  30  33
BRANCH  31  35
HETATM   35  O4  UNL     1       6.743  36.047  54.180  1.00  0.00    -0.288 OA
ATOM     36  H4  UNL     1       6.384  35.227  54.500  1.00  0.00     0.244 HD
ENDBRANCH  31  35
ENDBRANCH  24  30
ENDBRANCH  23  24
ENDBRANCH  13  23
BRANCH   9  37
HETATM   37  C9  UNL     1       5.312  38.039  62.204  1.00  0.00     0.019 C
BRANCH  37  38
HETATM   38  C10 UNL     1       4.116  37.259  62.417  1.00  0.00    -0.008 C
HETATM   39  C11 UNL     1       3.412  36.600  61.250  1.00  0.00     0.042 C
HETATM   40  C12 UNL     1       2.753  35.691  62.309  1.00  0.00     0.170 C
HETATM   41  F1  UNL     1       2.641  34.382  61.958  1.00  0.00    -0.249 F
HETATM   42  C13 UNL     1       4.028  35.985  63.154  1.00  0.00     0.042 C
ENDBRANCH  37  38
ENDBRANCH   9  37
TORSDOF 9
ENDMDL