MODEL 4
REMARK VINA RESULT: -7.932668260      4.039      5.289
REMARK  7 active torsions:
REMARK  status: ('A' for Active; 'I' for Inactive)
REMARK    1  A    between atoms: C2_2  and  C3_3
REMARK    2  A    between atoms: C2_2  and  N1_10
REMARK    3  A    between atoms: C3_3  and  O1_4
REMARK    4  A    between atoms: O1_4  and  C4_5
REMARK    5  A    between atoms: C4_5  and  C5_6
REMARK    6  A    between atoms: N1_10  and  C6_12
REMARK    7  A    between atoms: C9_20  and  C10_21
ROOT
HETATM    1  C6  UNL     1       8.007  44.543  62.187  1.00  0.00     0.688 C
HETATM    2  N2  UNL     1       7.441  43.456  61.548  1.00  0.00    -0.154 N
ATOM      3  H2  UNL     1       7.600  42.563  62.014  1.00  0.00     0.187 HD
HETATM    4  C7  UNL     1       6.719  43.374  60.419  1.00  0.00     0.288 C
HETATM    5  O2  UNL     1       6.126  42.257  60.197  1.00  0.00    -0.265 OA
HETATM    6  C8  UNL     1       6.511  44.319  59.447  1.00  0.00     0.135 A
HETATM    7  N3  UNL     1       5.723  44.190  58.362  1.00  0.00    -0.339 N
ATOM      8  H3  UNL     1       5.169  43.369  58.117  1.00  0.00     0.167 HD
HETATM    9  C9  UNL     1       5.797  45.337  57.659  1.00  0.00     0.091 A
HETATM   10  N4  UNL     1       6.642  46.162  58.329  1.00  0.00    -0.339 N
ATOM     11  H4  UNL     1       6.893  47.105  58.031  1.00  0.00     0.167 HD
HETATM   12  C20 UNL     1       7.101  45.561  59.444  1.00  0.00     0.135 A
HETATM   13  C21 UNL     1       7.991  46.104  60.355  1.00  0.00     0.288 C
HETATM   14  O3  UNL     1       8.386  47.268  60.094  1.00  0.00    -0.265 OA
HETATM   15  N5  UNL     1       8.505  45.577  61.490  1.00  0.00    -0.154 N
ATOM     16  H5  UNL     1       9.356  46.007  61.852  1.00  0.00     0.187 HD
ENDROOT
BRANCH   1  17
HETATM   17  N1  UNL     1       8.028  44.517  63.409  1.00  0.00    -0.197 N
ATOM     18  H1  UNL     1       8.904  44.936  63.721  1.00  0.00     0.183 HD
BRANCH  17  19
HETATM   19  C2  UNL     1       7.309  44.133  64.537  1.00  0.00     0.024 C
HETATM   20  C1  UNL     1       6.048  44.810  64.883  1.00  0.00     0.066 C
BRANCH  19  21
HETATM   21  C3  UNL     1       8.239  43.839  65.731  1.00  0.00     0.220 C
BRANCH  21  22
HETATM   22  O1  UNL     1       9.485  43.490  65.446  1.00  0.00    -0.377 OA
BRANCH  22  23
HETATM   23  C4  UNL     1      10.603  43.927  65.979  1.00  0.00     0.285 C
BRANCH  23  24
HETATM   24  C5  UNL     1      11.472  44.879  65.184  1.00  0.00     0.408 C
HETATM   25  F1  UNL     1      11.577  46.103  65.877  1.00  0.00    -0.169 F
HETATM   26  F2  UNL     1      12.754  44.370  65.116  1.00  0.00    -0.169 F
HETATM   27  F3  UNL     1      11.057  45.109  63.896  1.00  0.00    -0.169 F
ENDBRANCH  23  24
ENDBRANCH  22  23
ENDBRANCH  21  22
ENDBRANCH  19  21
ENDBRANCH  17  19
ENDBRANCH   1  17
BRANCH   9  28
HETATM   28  C10 UNL     1       5.130  45.705  56.385  1.00  0.00     0.021 C
HETATM   29  C11 UNL     1       6.136  45.850  55.268  1.00  0.00     0.022 C
HETATM   30  C12 UNL     1       5.379  46.137  54.015  1.00  0.00    -0.012 C
HETATM   31  C13 UNL     1       4.607  47.414  54.092  1.00  0.00     0.009 C
HETATM   32  C17 UNL     1       4.388  45.039  53.650  1.00  0.00     0.025 C
HETATM   33  C14 UNL     1       3.633  47.282  55.237  1.00  0.00    -0.012 C
HETATM   34  C15 UNL     1       2.620  46.213  55.007  1.00  0.00     0.025 C
HETATM   35  C19 UNL     1       4.376  47.007  56.520  1.00  0.00     0.022 C
HETATM   36  C16 UNL     1       3.379  44.898  54.795  1.00  0.00     0.020 C
HETATM   37 BR1  UNL     1       2.182  43.473  54.394  1.00  0.00    -0.085 Br
HETATM   38  C18 UNL     1       4.176  44.565  56.011  1.00  0.00     0.038 C
ENDBRANCH   9  28
TORSDOF 7
ENDMDL