MODEL 3
REMARK VINA RESULT: -7.714878393      3.659      4.892
REMARK  8 active torsions:
REMARK  status: ('A' for Active; 'I' for Inactive)
REMARK    1  A    between atoms: N2_5  and  C4_6
REMARK    2  A    between atoms: C4_6  and  C5_7
REMARK       I    between atoms: C5_7  and  N3_9
REMARK    3  A    between atoms: N3_9  and  C6_11
REMARK    4  A    between atoms: C6_11  and  C8_13
REMARK    5  A    between atoms: C6_11  and  C15_28
REMARK       I    between atoms: C8_13  and  N4_15
REMARK    6  A    between atoms: N4_15  and  C9_17
REMARK    7  A    between atoms: C12_22  and  S1_23
REMARK    8  A    between atoms: S1_23  and  C13_24
ROOT
HETATM    1  C6  UNL     1       6.757  44.768  59.740  1.00  0.00     0.140 C
HETATM    2  C7  UNL     1       7.924  45.273  58.996  1.00  0.00     0.054 C
ENDROOT
BRANCH   1   3
HETATM    3  N3  UNL     1       7.059  44.819  61.165  1.00  0.00    -0.338 N
HETATM    4  C5  UNL     1       7.954  45.881  61.574  1.00  0.00     0.247 C
HETATM    5  O1  UNL     1       8.429  46.693  60.746  1.00  0.00    -0.272 OA
ATOM      6  H3  UNL     1       6.665  44.152  61.829  1.00  0.00     0.164 HD
BRANCH   4   7
HETATM    7  C4  UNL     1       8.329  46.024  63.001  1.00  0.00     0.374 C
BRANCH   7   8
HETATM    8  N2  UNL     1       8.525  44.710  63.563  1.00  0.00     0.100 N
HETATM    9  C3  UNL     1       8.098  44.671  64.926  1.00  0.00     0.303 C
HETATM   10  C2  UNL     1       9.132  43.989  65.800  1.00  0.00     0.302 C
HETATM   11  N1  UNL     1      10.357  44.725  65.735  1.00  0.00     0.087 N
HETATM   12  C1  UNL     1      11.410  43.936  66.336  1.00  0.00     0.310 C
HETATM   13  C20 UNL     1      10.729  45.102  64.382  1.00  0.00     0.302 C
HETATM   14  C19 UNL     1       9.914  44.336  63.389  1.00  0.00     0.303 C
ENDBRANCH   7   8
ENDBRANCH   4   7
ENDBRANCH   1   3
BRANCH   1  15
HETATM   15  C8  UNL     1       6.682  43.285  59.431  1.00  0.00     0.251 C
HETATM   16  O2  UNL     1       6.138  43.022  58.309  1.00  0.00    -0.270 OA
HETATM   17  N4  UNL     1       7.120  42.220  60.187  1.00  0.00    -0.354 N
ATOM     18  H4  UNL     1       7.571  42.408  61.083  1.00  0.00     0.163 HD
BRANCH  17  19
HETATM   19  C9  UNL     1       6.964  40.821  59.753  1.00  0.00     0.092 C
HETATM   20  C10 UNL     1       6.221  40.016  60.759  1.00  0.00     0.045 C
HETATM   21  C11 UNL     1       7.048  38.974  61.476  1.00  0.00     0.122 C
HETATM   22  N5  UNL     1       7.662  38.110  60.481  1.00  0.00    -0.388 N
HETATM   23  C12 UNL     1       8.152  38.764  59.326  1.00  0.00     0.049 C
ATOM     24  H5  UNL     1       7.735  37.100  60.608  1.00  0.00     0.159 HD
HETATM   25  C14 UNL     1       8.298  40.228  59.373  1.00  0.00     0.089 C
BRANCH  23  26
HETATM   26  S1  UNL     1       8.554  37.963  57.974  1.00  0.00    -0.048 SA
BRANCH  26  27
HETATM   27  C13 UNL     1      10.100  36.962  57.902  1.00  0.00     0.421 C
HETATM   28  F1  UNL     1      11.196  37.761  58.174  1.00  0.00    -0.202 F
HETATM   29  F2  UNL     1      10.185  36.445  56.632  1.00  0.00    -0.202 F
ENDBRANCH  26  27
ENDBRANCH  23  26
ENDBRANCH  17  19
ENDBRANCH   1  15
BRANCH   1  30
HETATM   30  C15 UNL     1       5.469  45.463  59.471  1.00  0.00     0.010 A
HETATM   31  C16 UNL     1       5.386  46.553  58.662  1.00  0.00     0.043 A
HETATM   32  C17 UNL     1       4.168  47.158  58.540  1.00  0.00     0.076 A
HETATM   33 CL1  UNL     1       3.721  48.579  57.579  1.00  0.00    -0.076 Cl
HETATM   34  S2  UNL     1       3.160  46.223  59.534  1.00  0.00    -0.065 SA
HETATM   35  C18 UNL     1       4.285  45.089  60.083  1.00  0.00     0.085 A
HETATM   36 CL2  UNL     1       3.913  43.735  61.130  1.00  0.00    -0.076 Cl
ENDBRANCH   1  30
TORSDOF 8
ENDMDL