MODEL 5
REMARK VINA RESULT: -7.872071988      3.046      4.845
REMARK  9 active torsions:
REMARK  status: ('A' for Active; 'I' for Inactive)
REMARK    1  A    between atoms: C2_2  and  O1_5
REMARK    2  A    between atoms: O1_5  and  C4_6
REMARK       I    between atoms: C4_6  and  N1_8
REMARK    3  A    between atoms: N1_8  and  C5_10
REMARK    4  A    between atoms: C5_10  and  C6_11
REMARK    5  A    between atoms: C5_10  and  C13_18
REMARK    6  A    between atoms: C6_11  and  C7_12
REMARK    7  A    between atoms: C13_18  and  O3_19
REMARK    8  A    between atoms: C13_18  and  N2_21
REMARK    9  A    between atoms: C17_26  and  N3_27
REMARK       I    between atoms: N3_27  and  C18_29
REMARK       I    between atoms: C18_29  and  N4_31
ROOT
HETATM    1  C13 UNL     1       6.712  41.163  59.097  1.00  0.00     0.410 C
ENDROOT
BRANCH   1   2
HETATM    2  C5  UNL     1       6.624  39.693  59.320  1.00  0.00     0.069 C
BRANCH   2   3
HETATM    3  N1  UNL     1       5.755  39.378  60.421  1.00  0.00    -0.302 N
HETATM    4  C4  UNL     1       6.042  38.561  61.528  1.00  0.00     0.366 C
HETATM    5  O2  UNL     1       7.149  38.009  61.661  1.00  0.00    -0.238 OA
ATOM      6  H1  UNL     1       4.825  39.796  60.397  1.00  0.00     0.171 HD
BRANCH   4   7
HETATM    7  O1  UNL     1       5.070  38.362  62.489  1.00  0.00    -0.277 OA
BRANCH   7   8
HETATM    8  C2  UNL     1       3.977  37.504  62.388  1.00  0.00     0.141 C
HETATM    9  C1  UNL     1       4.187  36.175  63.050  1.00  0.00     0.064 C
HETATM   10  C3  UNL     1       2.758  38.186  62.979  1.00  0.00     0.064 C
HETATM   11 CL1  UNL     1       3.573  37.206  60.660  1.00  0.00    -0.088 Cl
ENDBRANCH   7   8
ENDBRANCH   4   7
ENDBRANCH   2   3
BRANCH   2  12
HETATM   12  C6  UNL     1       6.592  38.801  58.151  1.00  0.00     0.007 C
BRANCH  12  13
HETATM   13  C7  UNL     1       7.666  37.837  57.875  1.00  0.00     0.010 C
HETATM   14  C8  UNL     1       9.016  38.480  58.344  1.00  0.00     0.008 C
HETATM   15  C9  UNL     1      10.018  37.373  58.508  1.00  0.00     0.001 C
HETATM   16  C10 UNL     1      10.043  36.518  57.252  1.00  0.00     0.000 C
HETATM   17  C11 UNL     1       9.422  37.296  56.133  1.00  0.00     0.001 C
HETATM   18  C12 UNL     1       7.936  37.503  56.433  1.00  0.00     0.008 C
ENDBRANCH  12  13
ENDBRANCH   2  12
ENDBRANCH   1   2
BRANCH   1  19
HETATM   19  O3  UNL     1       6.544  41.490  57.775  1.00  0.00    -0.363 OA
ATOM     20  H3  UNL     1       5.658  41.782  57.593  1.00  0.00     0.212 HD
ENDBRANCH   1  19
BRANCH   1  21
HETATM   21  N2  UNL     1       5.895  41.997  59.938  1.00  0.00     0.148 N
HETATM   22  C14 UNL     1       6.002  43.371  59.478  1.00  0.00     0.316 C
HETATM   23  C15 UNL     1       7.266  43.916  60.116  1.00  0.00     0.202 C
HETATM   24  F1  UNL     1       6.936  45.134  60.679  1.00  0.00    -0.247 F
HETATM   25  C16 UNL     1       7.689  42.909  61.139  1.00  0.00     0.096 C
HETATM   26  C17 UNL     1       6.408  42.063  61.284  1.00  0.00     0.332 C
BRANCH  26  27
HETATM   27  N3  UNL     1       5.541  42.845  62.115  1.00  0.00    -0.312 N
HETATM   28  C18 UNL     1       4.204  42.437  62.435  1.00  0.00     0.320 C
HETATM   29  O4  UNL     1       3.809  41.349  61.943  1.00  0.00    -0.247 OA
HETATM   30  N4  UNL     1       3.367  43.220  63.275  1.00  0.00    -0.334 N
HETATM   31  C19 UNL     1       3.907  44.481  63.741  1.00  0.00     0.133 C
HETATM   32  C23 UNL     1       2.072  42.726  63.626  1.00  0.00     0.133 C
HETATM   33  C20 UNL     1       2.851  45.209  64.566  1.00  0.00     0.099 C
HETATM   34  C21 UNL     1       2.423  44.220  65.629  1.00  0.00     0.246 C
HETATM   35  F2  UNL     1       1.659  44.798  66.603  1.00  0.00    -0.206 F
HETATM   36  F3  UNL     1       3.533  43.678  66.272  1.00  0.00    -0.206 F
HETATM   37  C22 UNL     1       1.585  43.157  64.974  1.00  0.00     0.099 C
ATOM     38  H3  UNL     1       5.888  43.726  62.493  1.00  0.00     0.166 HD
ENDBRANCH  26  27
ENDBRANCH   1  21
TORSDOF 9
ENDMDL