MODEL 4
REMARK VINA RESULT: -5.917893948      0.890      1.297
REMARK  11 active torsions:
REMARK  status: ('A' for Active; 'I' for Inactive)
REMARK    1  A    between atoms: C4_7  and  N3_8
REMARK    2  A    between atoms: N3_8  and  C5_10
REMARK    3  A    between atoms: C5_10  and  C6_11
REMARK    4  A    between atoms: C7_12  and  N4_13
REMARK    5  A    between atoms: C11_23  and  N8_24
REMARK       I    between atoms: N8_24  and  C12_26
REMARK    6  A    between atoms: C12_26  and  C13_28
REMARK    7  A    between atoms: C13_28  and  N9_29
REMARK    8  A    between atoms: C16_38  and  C17_39
REMARK    9  A    between atoms: N13_44  and  C19_46
REMARK   10  A    between atoms: C19_46  and  C20_47
REMARK   11  A    between atoms: C20_47  and  O2_48
ROOT
HETATM    1  C6  UNL     1     -15.617   8.913 -29.026  1.00  0.00     0.002 A
HETATM    2  C7  UNL     1     -14.926   9.880 -28.353  1.00  0.00     0.068 A
HETATM    3  C9  UNL     1     -14.278   9.541 -27.179  1.00  0.00     0.034 A
HETATM    4  C10 UNL     1     -14.328   8.260 -26.705  1.00  0.00     0.033 A
HETATM    5  C11 UNL     1     -15.013   7.244 -27.348  1.00  0.00     0.046 A
HETATM    6  C16 UNL     1     -15.661   7.575 -28.514  1.00  0.00     0.014 A
ENDROOT
BRANCH   1   7
HETATM    7  C5  UNL     1     -16.197   9.186 -30.367  1.00  0.00     0.163 C
BRANCH   7   8
HETATM    8  N3  UNL     1     -17.656   9.155 -30.327  1.00  0.00    -0.369 N
ATOM      9  H3  UNL     1     -18.139   8.379 -30.778  1.00  0.00     0.161 HD
BRANCH   8  10
HETATM   10  C4  UNL     1     -18.357  10.059 -29.752  1.00  0.00     0.148 A
HETATM   11  C3  UNL     1     -19.461   9.773 -28.963  1.00  0.00     0.123 A
HETATM   12  N2  UNL     1     -20.037   8.651 -28.550  1.00  0.00    -0.346 N
HETATM   13  C21 UNL     1     -20.234  10.783 -28.419  1.00  0.00     0.154 A
HETATM   14  C2  UNL     1     -21.116   8.878 -27.788  1.00  0.00     0.184 A
ATOM     15  H2  UNL     1     -19.696   7.718 -28.786  1.00  0.00     0.167 HD
HETATM   16  N1  UNL     1     -21.247  10.220 -27.702  1.00  0.00    -0.331 N
HETATM   17  C1  UNL     1     -22.309  10.886 -26.951  1.00  0.00     0.158 C
HETATM   18  N14 UNL     1     -19.927  12.066 -28.642  1.00  0.00    -0.174 N
HETATM   19  C18 UNL     1     -18.861  12.351 -29.402  1.00  0.00     0.681 A
ATOM     20  H14 UNL     1     -20.494  12.814 -28.241  1.00  0.00     0.186 HD
HETATM   21  N12 UNL     1     -18.083  11.359 -29.954  1.00  0.00    -0.175 N
HETATM   22  N13 UNL     1     -18.552  13.569 -29.633  1.00  0.00    -0.224 N
ATOM     23  H12 UNL     1     -17.281  11.617 -30.529  1.00  0.00     0.186 HD
ATOM     24  H13 UNL     1     -17.733  13.720 -30.221  1.00  0.00     0.177 HD
BRANCH  22  25
HETATM   25  C19 UNL     1     -19.213  14.741 -29.169  1.00  0.00     0.164 C
BRANCH  25  26
HETATM   26  C20 UNL     1     -18.567  15.219 -27.879  1.00  0.00     0.184 C
BRANCH  26  27
HETATM   27  O2  UNL     1     -19.307  14.671 -26.818  1.00  0.00    -0.399 OA
ATOM     28  H2  UNL     1     -19.887  15.353 -26.501  1.00  0.00     0.209 HD
ENDBRANCH  26  27
ENDBRANCH  25  26
ENDBRANCH  22  25
ENDBRANCH   8  10
ENDBRANCH   7   8
ENDBRANCH   1   7
BRANCH   2  29
HETATM   29  N4  UNL     1     -14.864  11.208 -28.843  1.00  0.00    -0.235 N
HETATM   30  C8  UNL     1     -15.265  12.308 -28.204  1.00  0.00     0.226 A
HETATM   31  N5  UNL     1     -15.042  13.384 -29.017  1.00  0.00    -0.279 N
HETATM   32  N6  UNL     1     -14.509  12.923 -30.133  1.00  0.00    -0.227 N
ATOM     33  H5  UNL     1     -15.249  14.359 -28.802  1.00  0.00     0.189 HD
HETATM   34  N7  UNL     1     -14.410  11.585 -30.005  1.00  0.00    -0.220 N
ATOM     35  H6  UNL     1     -14.225  13.477 -30.942  1.00  0.00     0.210 HD
ATOM     36  H7  UNL     1     -14.034  10.958 -30.717  1.00  0.00     0.210 HD
ENDBRANCH   2  29
BRANCH   6  37
HETATM   37  C17 UNL     1     -16.388   6.572 -29.301  1.00  0.00     0.114 C
HETATM   38  N11 UNL     1     -17.725   6.280 -29.010  1.00  0.00    -0.114 NA
ENDBRANCH   6  37
BRANCH   5  39
HETATM   39  N8  UNL     1     -15.036   5.995 -26.723  1.00  0.00    -0.324 N
HETATM   40  C12 UNL     1     -16.110   5.469 -25.934  1.00  0.00     0.262 C
HETATM   41  O1  UNL     1     -17.132   6.078 -25.724  1.00  0.00    -0.270 OA
ATOM     42  H8  UNL     1     -14.213   5.403 -26.839  1.00  0.00     0.169 HD
BRANCH  40  43
HETATM   43  C13 UNL     1     -16.024   4.104 -25.297  1.00  0.00     0.250 C
HETATM   44  C14 UNL     1     -17.007   3.210 -26.080  1.00  0.00     0.283 C
HETATM   45  N10 UNL     1     -15.911   2.695 -26.838  1.00  0.00    -0.069 N
HETATM   46  C15 UNL     1     -14.989   3.211 -25.858  1.00  0.00     0.283 C
ATOM     47 2H10 UNL     1     -15.886   1.708 -27.092  1.00  0.00     0.277 HD
ATOM     48 1H10 UNL     1     -15.806   2.950 -27.821  1.00  0.00     0.277 HD
BRANCH  43  49
HETATM   49  N9  UNL     1     -16.293   4.065 -23.883  1.00  0.00    -0.058 N
ATOM     50  H93 UNL     1     -17.186   4.517 -23.684  1.00  0.00     0.275 HD
ATOM     51  H92 UNL     1     -16.505   3.110 -23.593  1.00  0.00     0.275 HD
ATOM     52  H91 UNL     1     -15.563   4.457 -23.288  1.00  0.00     0.275 HD
ENDBRANCH  43  49
ENDBRANCH  40  43
ENDBRANCH   5  39
TORSDOF 11
ENDMDL