MODEL 1
REMARK VINA RESULT: -6.333812929      0.000      0.000
REMARK  13 active torsions:
REMARK  status: ('A' for Active; 'I' for Inactive)
REMARK    1  A    between atoms: C2_2  and  O1_3
REMARK    2  A    between atoms: C2_2  and  C10_19
REMARK    3  A    between atoms: O1_3  and  C3_4
REMARK       I    between atoms: C3_4  and  N1_6
REMARK       I    between atoms: N1_6  and  C4_8
REMARK    4  A    between atoms: C4_8  and  C5_10
REMARK    5  A    between atoms: C5_10  and  N2_11
REMARK    6  A    between atoms: C5_10  and  C6_15
REMARK       I    between atoms: C10_19  and  N3_21
REMARK       I    between atoms: N3_21  and  C11_23
REMARK       I    between atoms: C11_23  and  N4_25
REMARK    7  A    between atoms: N4_25  and  C12_27
REMARK    8  A    between atoms: C12_27  and  C13_28
REMARK    9  A    between atoms: C13_28  and  O6_29
REMARK   10  A    between atoms: O6_29  and  C14_30
REMARK   11  A    between atoms: N6_36  and  O8_37
REMARK   12  A    between atoms: N7_41  and  C19_42
REMARK   13  A    between atoms: C19_42  and  O10_43
ROOT
HETATM    1  C14 UNL     1     -16.132   8.777 -28.807  1.00  0.00     0.177 A
HETATM    2  C15 UNL     1     -15.107   8.030 -28.296  1.00  0.00     0.166 A
HETATM    3  C16 UNL     1     -15.053   6.605 -28.538  1.00  0.00     0.110 C
HETATM    4  N5  UNL     1     -14.998   5.493 -28.758  1.00  0.00    -0.191 NA
HETATM    5  C17 UNL     1     -14.030   8.578 -27.625  1.00  0.00     0.300 A
HETATM    6  O7  UNL     1     -13.081   7.847 -27.154  1.00  0.00    -0.264 OA
HETATM    7  N6  UNL     1     -13.950   9.908 -27.448  1.00  0.00    -0.132 N
HETATM    8  C18 UNL     1     -14.950  10.629 -27.958  1.00  0.00     0.359 A
HETATM    9  O9  UNL     1     -14.875  11.892 -27.796  1.00  0.00    -0.244 OA
HETATM   10  N7  UNL     1     -15.992  10.146 -28.607  1.00  0.00    -0.254 N
ENDROOT
BRANCH   1  11
HETATM   11  O6  UNL     1     -17.222   8.329 -29.460  1.00  0.00    -0.329 OA
BRANCH  11  12
HETATM   12  C13 UNL     1     -18.398   7.681 -29.018  1.00  0.00     0.222 C
BRANCH  12  13
HETATM   13  C12 UNL     1     -18.783   6.581 -29.921  1.00  0.00     0.092 C
BRANCH  13  14
HETATM   14  N4  UNL     1     -17.874   5.629 -30.362  1.00  0.00    -0.320 N
HETATM   15  C11 UNL     1     -17.987   4.130 -30.079  1.00  0.00     0.326 C
HETATM   16  N3  UNL     1     -16.876   3.465 -30.441  1.00  0.00    -0.277 N
HETATM   17  O5  UNL     1     -19.058   3.908 -29.576  1.00  0.00    -0.247 OA
HETATM   18  C10 UNL     1     -17.218   1.986 -29.595  1.00  0.00     0.255 C
ATOM     19  H3  UNL     1     -16.085   3.740 -31.024  1.00  0.00     0.173 HD
HETATM   20  O4  UNL     1     -18.283   1.944 -29.206  1.00  0.00    -0.270 OA
ATOM     21  H4  UNL     1     -17.077   5.951 -30.912  1.00  0.00     0.169 HD
BRANCH  18  22
HETATM   22  C2  UNL     1     -16.056   1.126 -29.562  1.00  0.00     0.222 C
HETATM   23  C1  UNL     1     -16.361  -0.072 -28.586  1.00  0.00     0.050 C
BRANCH  22  24
HETATM   24  O1  UNL     1     -14.951   1.768 -29.040  1.00  0.00    -0.289 OA
BRANCH  24  25
HETATM   25  C3  UNL     1     -14.444   1.918 -27.821  1.00  0.00     0.368 C
HETATM   26  O2  UNL     1     -13.536   1.242 -27.397  1.00  0.00    -0.238 OA
HETATM   27  N1  UNL     1     -15.018   2.954 -26.945  1.00  0.00    -0.271 N
HETATM   28  C4  UNL     1     -14.702   3.224 -25.677  1.00  0.00     0.257 C
ATOM     29  H1  UNL     1     -15.745   3.538 -27.358  1.00  0.00     0.174 HD
HETATM   30  O3  UNL     1     -13.713   2.716 -25.006  1.00  0.00    -0.271 OA
BRANCH  28  31
HETATM   31  C5  UNL     1     -15.543   4.233 -24.865  1.00  0.00     0.282 C
BRANCH  31  32
HETATM   32  N2  UNL     1     -15.222   4.154 -23.474  1.00  0.00    -0.066 N
ATOM     33  H23 UNL     1     -14.554   3.407 -23.283  1.00  0.00     0.275 HD
ATOM     34  H22 UNL     1     -14.658   4.947 -23.170  1.00  0.00     0.275 HD
ATOM     35  H21 UNL     1     -16.069   4.056 -22.914  1.00  0.00     0.275 HD
ENDBRANCH  31  32
BRANCH  31  36
HETATM   36  C6  UNL     1     -16.993   3.867 -25.015  1.00  0.00    -0.014 C
HETATM   37  C7  UNL     1     -17.525   4.114 -26.424  1.00  0.00     0.017 C
HETATM   38  C8  UNL     1     -17.284   2.461 -24.613  1.00  0.00     0.017 C
HETATM   39  C9  UNL     1     -17.831   4.793 -24.135  1.00  0.00     0.017 C
ENDBRANCH  31  36
ENDBRANCH  28  31
ENDBRANCH  24  25
ENDBRANCH  22  24
ENDBRANCH  18  22
ENDBRANCH  13  14
ENDBRANCH  12  13
ENDBRANCH  11  12
ENDBRANCH   1  11
BRANCH  10  40
HETATM   40  C19 UNL     1     -16.978  11.001 -29.262  1.00  0.00     0.302 C
BRANCH  40  41
HETATM   41  O10 UNL     1     -16.712  10.933 -30.681  1.00  0.00    -0.382 OA
ATOM     42  H10 UNL     1     -16.790  11.819 -31.017  1.00  0.00     0.211 HD
ENDBRANCH  40  41
ENDBRANCH  10  40
BRANCH   7  43
HETATM   43  O8  UNL     1     -12.874  10.405 -26.746  1.00  0.00    -0.276 OA
ATOM     44  H8  UNL     1     -12.382  11.122 -27.129  1.00  0.00     0.245 HD
ENDBRANCH   7  43
TORSDOF 13
ENDMDL