MODEL 2
REMARK VINA RESULT: -6.122246893      5.281      7.826
REMARK  13 active torsions:
REMARK  status: ('A' for Active; 'I' for Inactive)
REMARK    1  A    between atoms: C2_2  and  C4_4
REMARK    2  A    between atoms: C4_4  and  O1_5
REMARK    3  A    between atoms: C4_4  and  C5_7
REMARK    4  A    between atoms: C5_7  and  O2_8
REMARK    5  A    between atoms: C5_7  and  N1_10
REMARK    6  A    between atoms: N1_10  and  C6_12
REMARK    7  A    between atoms: C6_12  and  C7_13
REMARK    8  A    between atoms: C7_13  and  C8_14
REMARK       I    between atoms: C8_14  and  N2_16
REMARK    9  A    between atoms: N2_16  and  N3_18
REMARK   10  A    between atoms: N3_18  and  C9_20
REMARK   11  A    between atoms: C10_23  and  N5_24
REMARK   12  A    between atoms: N5_24  and  C11_26
REMARK   13  A    between atoms: N6_36  and  O7_37
ROOT
HETATM    1  C9  UNL     1     -15.528  12.600 -28.141  1.00  0.00     0.700 A
HETATM    2  N4  UNL     1     -16.567  12.118 -28.844  1.00  0.00    -0.174 N
ATOM      3  H4  UNL     1     -17.265  12.773 -29.195  1.00  0.00     0.186 HD
HETATM    4  C10 UNL     1     -16.721  10.824 -29.100  1.00  0.00     0.138 A
HETATM    5  C16 UNL     1     -15.744   9.947 -28.601  1.00  0.00     0.123 A
HETATM    6  C17 UNL     1     -15.848   8.577 -28.830  1.00  0.00     0.293 A
HETATM    7  O6  UNL     1     -16.817   8.156 -29.483  1.00  0.00    -0.264 OA
HETATM    8  N6  UNL     1     -14.908   7.752 -28.346  1.00  0.00    -0.133 N
HETATM    9  C18 UNL     1     -13.881   8.274 -27.644  1.00  0.00     0.357 A
HETATM   10  O8  UNL     1     -12.988   7.493 -27.184  1.00  0.00    -0.244 OA
HETATM   11  N7  UNL     1     -13.763   9.592 -27.412  1.00  0.00    -0.286 N
HETATM   12  C19 UNL     1     -12.641  10.109 -26.654  1.00  0.00     0.163 C
HETATM   13  C20 UNL     1     -14.689  10.467 -27.883  1.00  0.00     0.146 A
HETATM   14  N8  UNL     1     -14.576  11.793 -27.650  1.00  0.00    -0.174 N
ATOM     15  H8  UNL     1     -13.792  12.168 -27.119  1.00  0.00     0.186 HD
ENDROOT
BRANCH   1  16
HETATM   16  N3  UNL     1     -15.411  13.883 -27.912  1.00  0.00    -0.129 N
ATOM     17  H3  UNL     1     -15.980  14.317 -27.185  1.00  0.00     0.205 HD
BRANCH  16  18
HETATM   18  N2  UNL     1     -14.518  14.670 -28.646  1.00  0.00    -0.255 N
HETATM   19  C8  UNL     1     -14.788  15.054 -29.980  1.00  0.00     0.241 C
HETATM   20  O3  UNL     1     -15.828  14.726 -30.595  1.00  0.00    -0.271 OA
ATOM     21  H2  UNL     1     -13.649  14.974 -28.208  1.00  0.00     0.190 HD
BRANCH  19  22
HETATM   22  C7  UNL     1     -13.803  15.885 -30.700  1.00  0.00     0.148 C
BRANCH  22  23
HETATM   23  C6  UNL     1     -13.172  15.156 -31.876  1.00  0.00     0.067 C
BRANCH  23  24
HETATM   24  N1  UNL     1     -12.918  13.799 -31.592  1.00  0.00    -0.374 N
ATOM     25  H1  UNL     1     -12.336  13.545 -30.794  1.00  0.00     0.161 HD
BRANCH  24  26
HETATM   26  C5  UNL     1     -13.462  12.805 -32.399  1.00  0.00     0.246 C
BRANCH  26  27
HETATM   27  C4  UNL     1     -14.318  11.743 -31.787  1.00  0.00     0.170 C
BRANCH  27  28
HETATM   28  C2  UNL     1     -14.882  10.728 -32.723  1.00  0.00     0.010 C
HETATM   29  C1  UNL     1     -14.828   9.323 -32.246  1.00  0.00     0.012 C
HETATM   30  C3  UNL     1     -16.333  11.024 -33.075  1.00  0.00     0.012 C
ENDBRANCH  27  28
BRANCH  27  31
HETATM   31  O1  UNL     1     -13.426  10.982 -30.922  1.00  0.00    -0.391 OA
ATOM     32  H1  UNL     1     -12.906  11.642 -30.479  1.00  0.00     0.210 HD
ENDBRANCH  27  31
ENDBRANCH  26  27
BRANCH  26  33
HETATM   33  O2  UNL     1     -12.453  12.099 -33.123  1.00  0.00    -0.374 OA
ATOM     34  H2  UNL     1     -12.074  12.743 -33.711  1.00  0.00     0.212 HD
ENDBRANCH  26  33
ENDBRANCH  24  26
ENDBRANCH  23  24
ENDBRANCH  22  23
ENDBRANCH  19  22
ENDBRANCH  16  18
ENDBRANCH   1  16
BRANCH   4  35
HETATM   35  N5  UNL     1     -17.657  10.277 -29.752  1.00  0.00    -0.347 N
ATOM     36  H5  UNL     1     -17.366   9.480 -30.318  1.00  0.00     0.163 HD
BRANCH  35  37
HETATM   37  C11 UNL     1     -19.030  10.578 -29.831  1.00  0.00     0.249 C
HETATM   38  C12 UNL     1     -19.454  11.399 -31.030  1.00  0.00     0.225 C
HETATM   39  O4  UNL     1     -20.724  11.822 -30.621  1.00  0.00    -0.351 OA
HETATM   40  C13 UNL     1     -20.842  11.561 -29.267  1.00  0.00     0.159 C
HETATM   41  C14 UNL     1     -21.526  12.743 -28.598  1.00  0.00     0.078 C
HETATM   42  C15 UNL     1     -21.582  10.289 -28.952  1.00  0.00     0.078 C
HETATM   43  O5  UNL     1     -19.521  11.395 -28.788  1.00  0.00    -0.330 OA
ENDBRANCH  35  37
ENDBRANCH   4  35
BRANCH   8  44
HETATM   44  O7  UNL     1     -15.048   6.409 -28.593  1.00  0.00    -0.276 OA
ATOM     45  H7  UNL     1     -14.523   5.807 -28.079  1.00  0.00     0.245 HD
ENDBRANCH   8  44
TORSDOF 13
ENDMDL