MODEL 4
REMARK VINA RESULT: -6.229181851      5.540     10.420
REMARK  12 active torsions:
REMARK  status: ('A' for Active; 'I' for Inactive)
REMARK       I    between atoms: N2_3  and  C2_5
REMARK       I    between atoms: C2_5  and  N4_7
REMARK    1  A    between atoms: N4_7  and  C3_9
REMARK    2  A    between atoms: C4_14  and  S1_15
REMARK    3  A    between atoms: S1_15  and  C5_16
REMARK    4  A    between atoms: C5_16  and  C6_17
REMARK    5  A    between atoms: C6_17  and  O1_18
REMARK    6  A    between atoms: O1_18  and  N7_19
REMARK    7  A    between atoms: N7_19  and  C7_21
REMARK    8  A    between atoms: C7_21  and  C8_22
REMARK       I    between atoms: C8_22  and  N8_24
REMARK    9  A    between atoms: N8_24  and  C9_26
REMARK   10  A    between atoms: C11_28  and  N9_29
REMARK   11  A    between atoms: C14_34  and  N11_35
REMARK   12  A    between atoms: C17_47  and  O3_48
ROOT
HETATM    1  N1  UNL     1     -12.626  11.067 -25.959  1.00  0.00    -0.172 NA
HETATM    2  C1  UNL     1     -13.397  10.293 -26.370  1.00  0.00     0.184 C
HETATM    3  N2  UNL     1     -14.302   9.358 -26.877  1.00  0.00    -0.267 N
ATOM      4  H2  UNL     1     -15.305   9.547 -26.882  1.00  0.00     0.180 HD
HETATM    5  C2  UNL     1     -13.836   8.251 -27.338  1.00  0.00     0.215 C
HETATM    6  N3  UNL     1     -12.447   7.981 -27.337  1.00  0.00    -0.062 NA
HETATM    7  N4  UNL     1     -14.763   7.317 -27.846  1.00  0.00    -0.161 N
ATOM      8  H4  UNL     1     -14.773   6.381 -27.442  1.00  0.00     0.187 HD
ENDROOT
BRANCH   7   9
HETATM    9  C3  UNL     1     -15.606   7.581 -28.798  1.00  0.00     0.701 A
HETATM   10  N5  UNL     1     -16.913   7.815 -28.599  1.00  0.00    -0.130 N
HETATM   11  N6  UNL     1     -17.442   8.044 -29.786  1.00  0.00    -0.265 N
ATOM     12  H5  UNL     1     -17.402   7.815 -27.704  1.00  0.00     0.205 HD
HETATM   13  C4  UNL     1     -16.526   7.969 -30.761  1.00  0.00     0.174 A
ATOM     14  H6  UNL     1     -18.428   8.253 -29.943  1.00  0.00     0.189 HD
HETATM   15  N15 UNL     1     -15.351   7.672 -30.111  1.00  0.00    -0.168 N
ATOM     16  H15 UNL     1     -14.441   7.541 -30.553  1.00  0.00     0.186 HD
BRANCH  13  17
HETATM   17  S1  UNL     1     -16.614   8.148 -32.511  1.00  0.00    -0.090 SA
BRANCH  17  18
HETATM   18  C5  UNL     1     -17.178   6.663 -33.327  1.00  0.00     0.111 C
BRANCH  18  19
HETATM   19  C6  UNL     1     -18.201   5.936 -32.512  1.00  0.00     0.211 C
BRANCH  19  20
HETATM   20  O1  UNL     1     -18.143   4.558 -32.670  1.00  0.00    -0.280 OA
BRANCH  20  21
HETATM   21  N7  UNL     1     -17.732   3.725 -31.712  1.00  0.00    -0.273 N
ATOM     22  H7  UNL     1     -17.072   3.005 -32.005  1.00  0.00     0.193 HD
BRANCH  21  23
HETATM   23  C7  UNL     1     -18.048   3.712 -30.509  1.00  0.00     0.188 C
BRANCH  23  24
HETATM   24  C8  UNL     1     -17.242   4.050 -29.388  1.00  0.00     0.259 C
HETATM   25  O2  UNL     1     -16.031   4.426 -29.628  1.00  0.00    -0.267 OA
HETATM   26  N8  UNL     1     -17.674   4.004 -28.046  1.00  0.00    -0.347 N
ATOM     27  H8  UNL     1     -18.621   3.713 -27.804  1.00  0.00     0.163 HD
BRANCH  26  28
HETATM   28  C9  UNL     1     -16.712   4.389 -27.015  1.00  0.00     0.144 C
HETATM   29  C10 UNL     1     -16.214   3.199 -26.217  1.00  0.00     0.084 C
HETATM   30  C11 UNL     1     -15.868   3.918 -24.923  1.00  0.00     0.298 C
HETATM   31  N14 UNL     1     -17.100   4.623 -24.665  1.00  0.00    -0.025 N
HETATM   32  C17 UNL     1     -17.346   5.262 -25.955  1.00  0.00     0.344 C
ATOM     33 2H14 UNL     1     -17.865   4.048 -24.311  1.00  0.00     0.282 HD
ATOM     34 1H14 UNL     1     -17.080   5.254 -23.863  1.00  0.00     0.282 HD
BRANCH  30  35
HETATM   35  N9  UNL     1     -15.395   3.096 -23.878  1.00  0.00    -0.297 N
HETATM   36  C12 UNL     1     -14.100   3.121 -23.449  1.00  0.00     0.187 A
HETATM   37  N10 UNL     1     -13.944   2.236 -22.449  1.00  0.00    -0.346 N
HETATM   38  C13 UNL     1     -15.125   1.629 -22.216  1.00  0.00     0.122 A
ATOM     39  H10 UNL     1     -13.074   2.054 -21.949  1.00  0.00     0.167 HD
HETATM   40  C14 UNL     1     -15.565   0.661 -21.337  1.00  0.00     0.131 A
HETATM   41  C16 UNL     1     -16.007   2.193 -23.129  1.00  0.00     0.142 A
HETATM   42  N12 UNL     1     -16.850   0.273 -21.376  1.00  0.00    -0.337 N
HETATM   43  C15 UNL     1     -17.707   0.829 -22.272  1.00  0.00     0.183 A
ATOM     44  H12 UNL     1     -17.184  -0.443 -20.731  1.00  0.00     0.168 HD
HETATM   45  N13 UNL     1     -17.291   1.774 -23.136  1.00  0.00    -0.336 N
ATOM     46  H13 UNL     1     -17.951   2.177 -23.800  1.00  0.00     0.168 HD
BRANCH  40  47
HETATM   47  N11 UNL     1     -14.711   0.164 -20.505  1.00  0.00    -0.383 N
ATOM     48 2H11 UNL     1     -14.497   0.600 -19.608  1.00  0.00     0.157 HD
ATOM     49 1H11 UNL     1     -14.236  -0.701 -20.765  1.00  0.00     0.157 HD
ENDBRANCH  40  47
ENDBRANCH  30  35
BRANCH  32  50
HETATM   50  O3  UNL     1     -18.693   5.490 -26.187  1.00  0.00    -0.368 OA
ATOM     51  H3  UNL     1     -18.970   5.205 -27.051  1.00  0.00     0.212 HD
ENDBRANCH  32  50
ENDBRANCH  26  28
ENDBRANCH  23  24
ENDBRANCH  21  23
ENDBRANCH  20  21
ENDBRANCH  19  20
ENDBRANCH  18  19
ENDBRANCH  17  18
ENDBRANCH  13  17
ENDBRANCH   7   9
TORSDOF 12
ENDMDL