MODEL 3
REMARK VINA RESULT: -6.326350118      1.506      1.897
REMARK  15 active torsions:
REMARK  status: ('A' for Active; 'I' for Inactive)
REMARK    1  A    between atoms: O1_2  and  C2_3
REMARK    2  A    between atoms: C2_3  and  C3_5
REMARK    3  A    between atoms: C3_5  and  N1_7
REMARK    4  A    between atoms: C3_5  and  C5_11
REMARK       I    between atoms: C5_11  and  N2_13
REMARK    5  A    between atoms: N2_13  and  N3_15
REMARK    6  A    between atoms: N3_15  and  C6_17
REMARK    7  A    between atoms: C6_17  and  O4_18
REMARK    8  A    between atoms: C6_17  and  C7_20
REMARK    9  A    between atoms: C9_28  and  C10_29
REMARK   10  A    between atoms: C10_29  and  S1_30
REMARK   11  A    between atoms: S1_30  and  C11_31
REMARK   12  A    between atoms: N10_38  and  C12_39
REMARK   13  A    between atoms: C12_39  and  C13_40
REMARK   14  A    between atoms: C13_40  and  C14_41
REMARK   15  A    between atoms: C14_41  and  N11_42
ROOT
HETATM    1  C7  UNL     1     -14.835   8.416 -28.119  1.00  0.00     0.209 C
HETATM    2  N4  UNL     1     -14.253   9.474 -27.280  1.00  0.00    -0.212 N
ATOM      3  H4  UNL     1     -13.620   9.366 -26.487  1.00  0.00     0.178 HD
HETATM    4  C8  UNL     1     -14.775  10.685 -27.826  1.00  0.00     0.672 C
HETATM    5  N5  UNL     1     -14.450  11.854 -27.372  1.00  0.00    -0.235 N
ATOM      6  H51 UNL     1     -14.823  12.719 -27.761  1.00  0.00     0.174 HD
ATOM      7  H52 UNL     1     -13.814  12.085 -26.609  1.00  0.00     0.174 HD
HETATM    8  N6  UNL     1     -15.681  10.355 -28.913  1.00  0.00    -0.196 N
HETATM    9  C9  UNL     1     -16.215  10.895 -30.111  1.00  0.00     0.122 C
HETATM   10  C15 UNL     1     -16.393   9.820 -31.155  1.00  0.00     0.102 C
HETATM   11  S2  UNL     1     -16.757   8.380 -30.121  1.00  0.00    -0.138 SA
HETATM   12  C16 UNL     1     -16.119   9.018 -28.555  1.00  0.00     0.196 C
ENDROOT
BRANCH   1  13
HETATM   13  C6  UNL     1     -14.935   7.171 -27.408  1.00  0.00     0.157 C
BRANCH  13  14
HETATM   14  N3  UNL     1     -16.019   6.312 -27.335  1.00  0.00    -0.279 N
ATOM     15  H3  UNL     1     -16.808   6.558 -26.737  1.00  0.00     0.189 HD
BRANCH  14  16
HETATM   16  N2  UNL     1     -16.059   5.095 -28.073  1.00  0.00    -0.266 N
HETATM   17  C5  UNL     1     -15.412   3.929 -27.643  1.00  0.00     0.282 C
HETATM   18  O3  UNL     1     -14.748   3.950 -26.573  1.00  0.00    -0.268 OA
ATOM     19  H2  UNL     1     -16.579   5.071 -28.950  1.00  0.00     0.190 HD
BRANCH  17  20
HETATM   20  C3  UNL     1     -15.528   2.695 -28.459  1.00  0.00     0.287 C
HETATM   21  C4  UNL     1     -16.399   1.672 -27.706  1.00  0.00     0.068 C
BRANCH  20  22
HETATM   22  C2  UNL     1     -14.216   2.056 -28.676  1.00  0.00     0.304 C
HETATM   23  O2  UNL     1     -13.452   2.456 -29.590  1.00  0.00    -0.262 OA
BRANCH  22  24
HETATM   24  O1  UNL     1     -13.763   0.995 -27.896  1.00  0.00    -0.324 OA
HETATM   25  C1  UNL     1     -12.372   0.747 -27.733  1.00  0.00     0.213 C
ENDBRANCH  22  24
ENDBRANCH  20  22
BRANCH  20  26
HETATM   26  N1  UNL     1     -16.219   2.956 -29.712  1.00  0.00    -0.052 N
ATOM     27  H13 UNL     1     -16.465   3.941 -29.802  1.00  0.00     0.276 HD
ATOM     28  H12 UNL     1     -15.586   2.876 -30.508  1.00  0.00     0.276 HD
ATOM     29  H11 UNL     1     -17.036   2.357 -29.828  1.00  0.00     0.276 HD
ENDBRANCH  20  26
ENDBRANCH  17  20
ENDBRANCH  14  16
ENDBRANCH  13  14
BRANCH  13  30
HETATM   30  O4  UNL     1     -13.857   6.823 -26.750  1.00  0.00    -0.347 OA
ATOM     31  H4  UNL     1     -13.887   6.901 -25.804  1.00  0.00     0.219 HD
ENDBRANCH  13  30
ENDBRANCH   1  13
BRANCH   9  32
HETATM   32  C10 UNL     1     -15.193  11.891 -30.658  1.00  0.00     0.109 C
BRANCH  32  33
HETATM   33  S1  UNL     1     -15.766  13.568 -30.795  1.00  0.00    -0.089 SA
BRANCH  33  34
HETATM   34  C11 UNL     1     -15.542  14.534 -29.302  1.00  0.00     0.178 A
HETATM   35  N7  UNL     1     -14.506  15.274 -28.903  1.00  0.00    -0.263 N
HETATM   36  N8  UNL     1     -14.769  15.801 -27.734  1.00  0.00    -0.226 N
ATOM     37  H7  UNL     1     -13.643  15.408 -29.428  1.00  0.00     0.190 HD
HETATM   38  N9  UNL     1     -15.981  15.389 -27.394  1.00  0.00    -0.224 N
ATOM     39  H8  UNL     1     -14.159  16.410 -27.190  1.00  0.00     0.210 HD
HETATM   40  N10 UNL     1     -16.495  14.613 -28.319  1.00  0.00    -0.254 N
ATOM     41  H9  UNL     1     -16.454  15.642 -26.526  1.00  0.00     0.210 HD
BRANCH  40  42
HETATM   42  C12 UNL     1     -17.804  13.974 -28.386  1.00  0.00     0.154 C
BRANCH  42  43
HETATM   43  C13 UNL     1     -18.891  14.877 -27.892  1.00  0.00     0.049 C
BRANCH  43  44
HETATM   44  C14 UNL     1     -20.064  14.037 -27.427  1.00  0.00     0.231 C
BRANCH  44  45
HETATM   45  N11 UNL     1     -19.753  12.654 -27.438  1.00  0.00    -0.079 N
ATOM     46 3H11 UNL     1     -18.847  12.473 -27.007  1.00  0.00     0.274 HD
ATOM     47 2H11 UNL     1     -20.344  12.135 -26.789  1.00  0.00     0.274 HD
ATOM     48 1H11 UNL     1     -19.802  12.265 -28.379  1.00  0.00     0.274 HD
ENDBRANCH  44  45
ENDBRANCH  43  44
ENDBRANCH  42  43
ENDBRANCH  40  42
ENDBRANCH  33  34
ENDBRANCH  32  33
ENDBRANCH   9  32
TORSDOF 15
ENDMDL