MODEL 5
REMARK VINA RESULT: -6.551681525      4.089      9.299
REMARK  11 active torsions:
REMARK  status: ('A' for Active; 'I' for Inactive)
REMARK    1  A    between atoms: N1_2  and  S1_4
REMARK    2  A    between atoms: S1_4  and  C2_7
REMARK    3  A    between atoms: C4_9  and  C5_10
REMARK    4  A    between atoms: N4_15  and  C6_16
REMARK    5  A    between atoms: C6_16  and  C7_17
REMARK    6  A    between atoms: C7_17  and  O3_18
REMARK    7  A    between atoms: C7_17  and  C8_20
REMARK    8  A    between atoms: C8_20  and  N5_21
REMARK    9  A    between atoms: C12_28  and  C13_29
REMARK   10  A    between atoms: C13_29  and  N7_30
REMARK   11  A    between atoms: N10_35  and  O5_37
ROOT
HETATM    1  C7  UNL     1     -15.307   6.645 -28.589  1.00  0.00     0.157 C
ENDROOT
BRANCH   1   2
HETATM    2  C6  UNL     1     -14.978   7.138 -27.219  1.00  0.00     0.204 C
BRANCH   2   3
HETATM    3  N4  UNL     1     -14.747   8.598 -27.316  1.00  0.00    -0.215 N
HETATM    4  N3  UNL     1     -13.887   9.329 -26.638  1.00  0.00    -0.224 N
HETATM    5  N2  UNL     1     -13.968  10.594 -26.997  1.00  0.00    -0.268 N
ATOM      6  H3  UNL     1     -13.246   8.966 -25.932  1.00  0.00     0.210 HD
HETATM    7  C5  UNL     1     -14.915  10.675 -27.938  1.00  0.00     0.148 A
ATOM      8  H2  UNL     1     -13.414  11.366 -26.627  1.00  0.00     0.190 HD
HETATM    9  N11 UNL     1     -15.382   9.433 -28.120  1.00  0.00    -0.266 N
ATOM     10  H11 UNL     1     -16.115   9.171 -28.779  1.00  0.00     0.190 HD
BRANCH   7  11
HETATM   11  C4  UNL     1     -15.335  11.928 -28.627  1.00  0.00     0.019 A
HETATM   12  C3  UNL     1     -15.180  13.166 -28.111  1.00  0.00     0.048 A
HETATM   13  C2  UNL     1     -15.617  14.218 -28.863  1.00  0.00     0.120 A
HETATM   14  S2  UNL     1     -16.230  13.474 -30.261  1.00  0.00    -0.087 SA
HETATM   15  C15 UNL     1     -15.921  11.846 -29.866  1.00  0.00     0.066 A
BRANCH  13  16
HETATM   16  S1  UNL     1     -15.557  15.938 -28.471  1.00  0.00     0.265 S
HETATM   17  O1  UNL     1     -16.026  16.692 -29.657  1.00  0.00    -0.200 OA
HETATM   18  O2  UNL     1     -14.169  16.357 -28.111  1.00  0.00    -0.200 OA
BRANCH  16  19
HETATM   19  N1  UNL     1     -16.612  16.198 -27.149  1.00  0.00    -0.319 N
HETATM   20  C1  UNL     1     -17.222  17.495 -27.189  1.00  0.00     0.159 C
ATOM     21  H1  UNL     1     -16.786  15.509 -26.417  1.00  0.00     0.171 HD
ENDBRANCH  16  19
ENDBRANCH  13  16
ENDBRANCH   7  11
ENDBRANCH   2   3
ENDBRANCH   1   2
BRANCH   1  22
HETATM   22  O3  UNL     1     -14.192   7.074 -29.393  1.00  0.00    -0.392 OA
ATOM     23  H3  UNL     1     -14.570   7.221 -30.252  1.00  0.00     0.210 HD
ENDBRANCH   1  22
BRANCH   1  24
HETATM   24  C8  UNL     1     -15.341   5.178 -28.781  1.00  0.00     0.160 C
BRANCH  24  25
HETATM   25  N5  UNL     1     -16.008   4.359 -27.835  1.00  0.00    -0.335 N
HETATM   26  C9  UNL     1     -17.435   4.328 -27.760  1.00  0.00     0.237 C
HETATM   27  O4  UNL     1     -18.094   5.363 -27.983  1.00  0.00    -0.272 OA
HETATM   28  C10 UNL     1     -18.181   3.089 -27.422  1.00  0.00     0.217 C
HETATM   29  N6  UNL     1     -17.360   2.107 -26.776  1.00  0.00    -0.411 N
HETATM   30  C11 UNL     1     -15.981   2.091 -27.190  1.00  0.00     0.147 C
ATOM     31  H6  UNL     1     -17.726   1.467 -26.072  1.00  0.00     0.153 HD
HETATM   32  C12 UNL     1     -15.321   3.460 -26.939  1.00  0.00     0.174 C
BRANCH  32  33
HETATM   33  C13 UNL     1     -15.364   3.798 -25.522  1.00  0.00     0.128 C
HETATM   34  N10 UNL     1     -14.532   3.275 -24.651  1.00  0.00    -0.255 N
ATOM     35  H10 UNL     1     -14.605   3.545 -23.670  1.00  0.00     0.195 HD
BRANCH  33  36
HETATM   36  N7  UNL     1     -16.302   4.704 -24.966  1.00  0.00    -0.319 N
HETATM   37  C14 UNL     1     -17.245   4.421 -24.169  1.00  0.00     0.202 C
HETATM   38  N8  UNL     1     -17.525   3.114 -23.689  1.00  0.00    -0.066 NA
HETATM   39  N9  UNL     1     -18.081   5.512 -23.731  1.00  0.00    -0.066 NA
ATOM     40  H7  UNL     1     -16.208   5.683 -25.235  1.00  0.00     0.169 HD
ENDBRANCH  33  36
BRANCH  34  41
HETATM   41  O5  UNL     1     -13.566   2.375 -25.026  1.00  0.00    -0.288 OA
ATOM     42  H5  UNL     1     -13.380   1.598 -24.511  1.00  0.00     0.244 HD
ENDBRANCH  34  41
ENDBRANCH  32  33
ENDBRANCH  24  25
ENDBRANCH   1  24
TORSDOF 11
ENDMDL