MODEL 1
REMARK VINA RESULT: -6.926835944      0.000      0.000
REMARK  10 active torsions:
REMARK  status: ('A' for Active; 'I' for Inactive)
REMARK    1  A    between atoms: C3_7  and  O2_8
REMARK    2  A    between atoms: C4_10  and  C5_11
REMARK    3  A    between atoms: C5_11  and  O3_12
REMARK    4  A    between atoms: C5_11  and  C6_14
REMARK    5  A    between atoms: C5_11  and  C10_23
REMARK    6  A    between atoms: C6_14  and  C7_15
REMARK    7  A    between atoms: C7_15  and  N3_16
REMARK    8  A    between atoms: C10_23  and  N6_24
REMARK       I    between atoms: N6_24  and  C11_26
REMARK    9  A    between atoms: C11_26  and  C12_28
REMARK   10  A    between atoms: C17_37  and  C18_38
ROOT
HETATM    1  C5  UNL     1     -16.048   2.417 -26.984  1.00  0.00     0.112 C
ENDROOT
BRANCH   1   2
HETATM    2  C4  UNL     1     -15.638   2.459 -25.536  1.00  0.00     0.097 A
HETATM    3  C3  UNL     1     -14.518   3.166 -25.168  1.00  0.00     0.159 A
HETATM    4  N2  UNL     1     -14.193   3.159 -23.838  1.00  0.00    -0.288 N
HETATM    5  C2  UNL     1     -14.918   2.504 -22.921  1.00  0.00     0.331 A
ATOM      6  H2  UNL     1     -13.367   3.673 -23.533  1.00  0.00     0.172 HD
HETATM    7  N1  UNL     1     -16.015   1.811 -23.273  1.00  0.00    -0.270 N
HETATM    8  O1  UNL     1     -14.569   2.532 -21.699  1.00  0.00    -0.246 OA
HETATM    9  C1  UNL     1     -16.790   1.106 -22.276  1.00  0.00     0.164 C
HETATM   10  C19 UNL     1     -16.380   1.782 -24.567  1.00  0.00     0.264 A
HETATM   11  O8  UNL     1     -17.421   1.126 -24.912  1.00  0.00    -0.267 OA
BRANCH   3  12
HETATM   12  O2  UNL     1     -13.759   3.846 -26.080  1.00  0.00    -0.345 OA
ATOM     13  H2  UNL     1     -13.609   3.501 -26.951  1.00  0.00     0.219 HD
ENDBRANCH   3  12
ENDBRANCH   1   2
BRANCH   1  14
HETATM   14  O3  UNL     1     -16.907   1.272 -27.031  1.00  0.00    -0.383 OA
ATOM     15  H3  UNL     1     -17.744   1.631 -26.763  1.00  0.00     0.211 HD
ENDBRANCH   1  14
BRANCH   1  16
HETATM   16  C6  UNL     1     -14.924   2.125 -27.882  1.00  0.00     0.066 C
BRANCH  16  17
HETATM   17  C7  UNL     1     -14.600   0.707 -28.183  1.00  0.00     0.153 C
BRANCH  17  18
HETATM   18  N3  UNL     1     -13.151   0.559 -27.973  1.00  0.00    -0.287 N
HETATM   19  C8  UNL     1     -12.438  -0.504 -28.371  1.00  0.00     0.201 A
HETATM   20  N4  UNL     1     -11.135  -0.317 -28.021  1.00  0.00    -0.346 N
HETATM   21  C9  UNL     1     -11.061   0.863 -27.410  1.00  0.00     0.198 A
ATOM     22  H4  UNL     1     -10.362  -0.960 -28.194  1.00  0.00     0.167 HD
HETATM   23  N5  UNL     1     -12.301   1.377 -27.393  1.00  0.00    -0.293 N
ATOM     24  H5  UNL     1     -12.549   2.278 -26.985  1.00  0.00     0.188 HD
ENDBRANCH  17  18
ENDBRANCH  16  17
ENDBRANCH   1  16
BRANCH   1  25
HETATM   25  C10 UNL     1     -16.919   3.577 -27.233  1.00  0.00     0.166 C
BRANCH  25  26
HETATM   26  N6  UNL     1     -16.290   4.783 -27.694  1.00  0.00    -0.352 N
HETATM   27  C11 UNL     1     -16.355   5.910 -26.832  1.00  0.00     0.274 C
HETATM   28  O4  UNL     1     -16.926   5.886 -25.712  1.00  0.00    -0.266 OA
ATOM     29  H6  UNL     1     -15.820   4.829 -28.598  1.00  0.00     0.162 HD
BRANCH  27  30
HETATM   30  C12 UNL     1     -15.721   7.153 -27.282  1.00  0.00     0.169 A
HETATM   31  N7  UNL     1     -14.560   7.567 -26.748  1.00  0.00    -0.353 N
HETATM   32  C13 UNL     1     -14.010   8.701 -27.180  1.00  0.00     0.137 A
ATOM     33  H7  UNL     1     -14.104   7.018 -26.020  1.00  0.00     0.165 HD
HETATM   34  C14 UNL     1     -14.595   9.471 -28.162  1.00  0.00     0.122 A
HETATM   35  N8  UNL     1     -15.759   9.041 -28.686  1.00  0.00    -0.295 N
HETATM   36  N9  UNL     1     -14.220  10.711 -28.796  1.00  0.00    -0.359 N
HETATM   37  C15 UNL     1     -16.322   7.914 -28.269  1.00  0.00     0.281 A
HETATM   38  C16 UNL     1     -16.202  10.004 -29.707  1.00  0.00     0.170 C
HETATM   39  O5  UNL     1     -17.427   7.506 -28.766  1.00  0.00    -0.265 OA
HETATM   40  C17 UNL     1     -15.453  11.244 -29.312  1.00  0.00     0.203 C
ATOM     41  H9  UNL     1     -13.288  11.120 -28.864  1.00  0.00     0.162 HD
BRANCH  40  42
HETATM   42  C18 UNL     1     -15.263  12.195 -30.409  1.00  0.00     0.198 C
HETATM   43  O6  UNL     1     -16.000  13.180 -30.544  1.00  0.00    -0.646 OA
HETATM   44  O7  UNL     1     -14.233  11.978 -31.312  1.00  0.00    -0.646 OA
ENDBRANCH  40  42
ENDBRANCH  27  30
ENDBRANCH  25  26
ENDBRANCH   1  25
TORSDOF 10
ENDMDL