MODEL 2
REMARK VINA RESULT: -6.638304191      1.779      2.517
REMARK  14 active torsions:
REMARK  status: ('A' for Active; 'I' for Inactive)
REMARK    1  A    between atoms: O1_2  and  C2_3
REMARK    2  A    between atoms: C2_3  and  C3_5
REMARK    3  A    between atoms: C3_5  and  C4_7
REMARK    4  A    between atoms: C4_7  and  O4_8
REMARK    5  A    between atoms: C4_7  and  C5_10
REMARK    6  A    between atoms: C5_10  and  N1_12
REMARK       I    between atoms: N1_12  and  C7_14
REMARK    7  A    between atoms: C7_14  and  C8_16
REMARK    8  A    between atoms: C8_16  and  C10_18
REMARK    9  A    between atoms: C10_18  and  O6_19
REMARK   10  A    between atoms: C10_18  and  N2_21
REMARK   11  A    between atoms: N2_21  and  C11_23
REMARK   12  A    between atoms: C11_23  and  C12_27
REMARK       I    between atoms: C12_27  and  N4_29
REMARK   13  A    between atoms: C17_34  and  O8_35
REMARK   14  A    between atoms: N5_42  and  O11_43
ROOT
HETATM    1  N2  UNL     1     -15.985   6.043 -26.228  1.00  0.00    -0.345 N
ATOM      2  H2  UNL     1     -16.826   6.473 -25.844  1.00  0.00     0.163 HD
ENDROOT
BRANCH   1   3
HETATM    3  C10 UNL     1     -15.368   4.937 -25.507  1.00  0.00     0.232 C
BRANCH   3   4
HETATM    4  C8  UNL     1     -16.390   3.873 -25.153  1.00  0.00     0.122 C
HETATM    5  C9  UNL     1     -15.764   2.828 -24.240  1.00  0.00     0.024 C
BRANCH   4   6
HETATM    6  C7  UNL     1     -16.813   3.172 -26.401  1.00  0.00     0.226 C
HETATM    7  N1  UNL     1     -16.292   1.918 -26.783  1.00  0.00    -0.353 N
ATOM      8  H1  UNL     1     -15.596   1.451 -26.202  1.00  0.00     0.163 HD
HETATM    9  O5  UNL     1     -17.673   3.719 -27.156  1.00  0.00    -0.273 OA
BRANCH   7  10
HETATM   10  C5  UNL     1     -16.754   1.301 -28.003  1.00  0.00     0.117 C
HETATM   11  C6  UNL     1     -17.588   0.068 -27.684  1.00  0.00     0.035 C
BRANCH  10  12
HETATM   12  C4  UNL     1     -15.546   0.900 -28.831  1.00  0.00     0.220 C
BRANCH  12  13
HETATM   13  C3  UNL     1     -14.438   1.834 -28.601  1.00  0.00     0.254 C
HETATM   14  O3  UNL     1     -14.490   3.022 -29.050  1.00  0.00    -0.284 OA
BRANCH  13  15
HETATM   15  C2  UNL     1     -13.266   1.436 -27.863  1.00  0.00     0.331 C
HETATM   16  O2  UNL     1     -13.067   1.795 -26.667  1.00  0.00    -0.256 OA
BRANCH  15  17
HETATM   17  O1  UNL     1     -12.287   0.632 -28.433  1.00  0.00    -0.320 OA
HETATM   18  C1  UNL     1     -11.151   0.239 -27.686  1.00  0.00     0.213 C
ENDBRANCH  15  17
ENDBRANCH  13  15
ENDBRANCH  12  13
BRANCH  12  19
HETATM   19  O4  UNL     1     -15.930   0.944 -30.159  1.00  0.00    -0.385 OA
ATOM     20  H4  UNL     1     -16.535   1.663 -30.296  1.00  0.00     0.210 HD
ENDBRANCH  12  19
ENDBRANCH  10  12
ENDBRANCH   7  10
ENDBRANCH   4   6
ENDBRANCH   3   4
BRANCH   3  21
HETATM   21  O6  UNL     1     -14.307   4.444 -26.218  1.00  0.00    -0.376 OA
ATOM     22  H6  UNL     1     -13.691   5.117 -26.481  1.00  0.00     0.212 HD
ENDBRANCH   3  21
ENDBRANCH   1   3
BRANCH   1  23
HETATM   23  C11 UNL     1     -15.459   6.536 -27.438  1.00  0.00     0.167 C
HETATM   24  N3  UNL     1     -15.494   5.815 -28.489  1.00  0.00    -0.381 N
ATOM     25  H32 UNL     1     -15.903   4.881 -28.451  1.00  0.00     0.157 HD
ATOM     26  H31 UNL     1     -15.113   6.173 -29.365  1.00  0.00     0.157 HD
BRANCH  23  27
HETATM   27  C12 UNL     1     -14.881   7.858 -27.492  1.00  0.00     0.303 C
HETATM   28  O7  UNL     1     -14.062   8.186 -26.591  1.00  0.00    -0.263 OA
HETATM   29  N4  UNL     1     -15.207   8.797 -28.530  1.00  0.00    -0.246 N
HETATM   30  C13 UNL     1     -14.570  10.108 -28.497  1.00  0.00     0.168 C
HETATM   31  N5  UNL     1     -16.099   8.446 -29.519  1.00  0.00    -0.063 NA
HETATM   32  C14 UNL     1     -15.506  11.117 -29.104  1.00  0.00     0.066 C
HETATM   33  C15 UNL     1     -15.411  12.463 -28.408  1.00  0.00     0.028 C
HETATM   34  C16 UNL     1     -16.924  10.606 -28.885  1.00  0.00     0.082 C
HETATM   35  C20 UNL     1     -15.243  11.229 -30.552  1.00  0.00     0.269 C
HETATM   36  C17 UNL     1     -17.136   9.390 -29.783  1.00  0.00     0.184 C
HETATM   37  C18 UNL     1     -17.133   9.908 -31.201  1.00  0.00     0.181 C
HETATM   38  C19 UNL     1     -17.617   8.915 -32.200  1.00  0.00     0.045 C
HETATM   39  O9  UNL     1     -15.835  10.399 -31.479  1.00  0.00    -0.311 OA
HETATM   40  O10 UNL     1     -14.428  12.149 -30.903  1.00  0.00    -0.264 OA
BRANCH  36  41
HETATM   41  O8  UNL     1     -18.401   8.872 -29.535  1.00  0.00    -0.369 OA
ATOM     42  H8  UNL     1     -18.428   8.552 -28.642  1.00  0.00     0.212 HD
ENDBRANCH  36  41
BRANCH  31  43
HETATM   43  O11 UNL     1     -15.508   7.961 -30.627  1.00  0.00    -0.291 OA
ATOM     44  H11 UNL     1     -16.122   7.610 -31.261  1.00  0.00     0.239 HD
ENDBRANCH  31  43
ENDBRANCH  23  27
ENDBRANCH   1  23
TORSDOF 14
ENDMDL