MODEL 4
REMARK VINA RESULT: -5.896805493      2.020      2.320
REMARK  15 active torsions:
REMARK  status: ('A' for Active; 'I' for Inactive)
REMARK    1  A    between atoms: N1_1  and  C1_5
REMARK    2  A    between atoms: C1_5  and  C2_6
REMARK    3  A    between atoms: C2_6  and  O1_7
REMARK    4  A    between atoms: O1_7  and  C3_8
REMARK    5  A    between atoms: C3_8  and  C4_10
REMARK    6  A    between atoms: C10_23  and  C11_24
REMARK       I    between atoms: C11_24  and  N5_26
REMARK    7  A    between atoms: N5_26  and  N6_28
REMARK    8  A    between atoms: N6_28  and  C12_30
REMARK    9  A    between atoms: C12_30  and  N7_32
REMARK   10  A    between atoms: N7_32  and  N8_34
REMARK   11  A    between atoms: N8_34  and  C13_35
REMARK   12  A    between atoms: C13_35  and  O4_36
REMARK   13  A    between atoms: C13_35  and  C14_38
REMARK   14  A    between atoms: C14_38  and  C15_39
REMARK   15  A    between atoms: C15_39  and  C16_40
ROOT
HETATM    1  C11 UNL     1     -16.300   4.567 -28.772  1.00  0.00     0.272 C
HETATM    2  O3  UNL     1     -17.132   4.103 -27.953  1.00  0.00    -0.266 OA
HETATM    3  N5  UNL     1     -15.634   3.576 -29.577  1.00  0.00    -0.264 N
ATOM      4  H5  UNL     1     -14.924   3.827 -30.265  1.00  0.00     0.190 HD
ENDROOT
BRANCH   1   5
HETATM    5  C10 UNL     1     -16.069   5.967 -28.860  1.00  0.00     0.065 C
HETATM    6  C4  UNL     1     -16.626   6.616 -29.973  1.00  0.00     0.096 C
HETATM    7  N2  UNL     1     -16.185   7.694 -30.650  1.00  0.00    -0.318 N
HETATM    8  C5  UNL     1     -15.247   8.602 -30.312  1.00  0.00     0.275 C
ATOM      9  H2  UNL     1     -16.629   7.846 -31.556  1.00  0.00     0.169 HD
HETATM   10  O2  UNL     1     -14.689   9.305 -31.167  1.00  0.00    -0.266 OA
HETATM   11  C6  UNL     1     -14.813   8.833 -28.999  1.00  0.00     0.128 A
HETATM   12  N3  UNL     1     -14.292   9.973 -28.609  1.00  0.00    -0.295 N
HETATM   13  C8  UNL     1     -14.857   7.937 -27.964  1.00  0.00     0.015 A
HETATM   14  N4  UNL     1     -13.988   9.836 -27.299  1.00  0.00    -0.310 N
ATOM     15  H3  UNL     1     -14.145  10.803 -29.184  1.00  0.00     0.187 HD
HETATM   16  C7  UNL     1     -14.319   8.610 -26.862  1.00  0.00     0.121 A
ATOM     17  H4  UNL     1     -13.566  10.564 -26.722  1.00  0.00     0.186 HD
HETATM   18  C9  UNL     1     -15.311   6.650 -27.929  1.00  0.00     0.035 C
BRANCH   6  19
HETATM   19  C3  UNL     1     -17.881   5.994 -30.457  1.00  0.00     0.164 C
HETATM   20  S1  UNL     1     -17.825   5.384 -31.992  1.00  0.00    -0.050 SA
BRANCH  19  21
HETATM   21  O1  UNL     1     -18.958   5.919 -29.770  1.00  0.00    -0.337 OA
BRANCH  21  22
HETATM   22  C2  UNL     1     -20.050   5.880 -29.084  1.00  0.00     0.204 C
BRANCH  22  23
HETATM   23  C1  UNL     1     -20.789   4.538 -29.014  1.00  0.00     0.256 C
BRANCH  23  24
HETATM   24  N1  UNL     1     -19.832   3.445 -29.069  1.00  0.00    -0.077 N
ATOM     25  H13 UNL     1     -19.980   2.846 -29.881  1.00  0.00     0.274 HD
ATOM     26  H12 UNL     1     -18.891   3.769 -29.294  1.00  0.00     0.274 HD
ATOM     27  H11 UNL     1     -19.857   2.919 -28.195  1.00  0.00     0.274 HD
ENDBRANCH  23  24
ENDBRANCH  22  23
ENDBRANCH  21  22
ENDBRANCH  19  21
ENDBRANCH   6  19
ENDBRANCH   1   5
BRANCH   3  28
HETATM   28  N6  UNL     1     -16.022   2.231 -29.355  1.00  0.00    -0.272 N
ATOM     29  H6  UNL     1     -16.916   1.887 -29.707  1.00  0.00     0.189 HD
BRANCH  28  30
HETATM   30  C12 UNL     1     -15.164   1.383 -28.649  1.00  0.00     0.216 C
HETATM   31  S2  UNL     1     -15.504  -0.206 -28.644  1.00  0.00    -0.037 SA
BRANCH  30  32
HETATM   32  N7  UNL     1     -14.100   1.912 -27.916  1.00  0.00    -0.206 N
ATOM     33  H7  UNL     1     -13.176   1.809 -28.336  1.00  0.00     0.204 HD
BRANCH  32  34
HETATM   34  N8  UNL     1     -14.137   2.538 -26.730  1.00  0.00    -0.302 NA
BRANCH  34  35
HETATM   35  C13 UNL     1     -14.174   3.137 -25.607  1.00  0.00     0.214 C
BRANCH  35  36
HETATM   36  O4  UNL     1     -13.751   2.435 -24.452  1.00  0.00    -0.337 OA
ATOM     37  H4  UNL     1     -14.391   2.250 -23.774  1.00  0.00     0.220 HD
ENDBRANCH  35  36
BRANCH  35  38
HETATM   38  C14 UNL     1     -14.580   4.475 -25.166  1.00  0.00     0.110 C
BRANCH  38  39
HETATM   39  C15 UNL     1     -15.642   4.498 -24.129  1.00  0.00     0.088 C
BRANCH  39  40
HETATM   40  C16 UNL     1     -16.965   4.524 -24.751  1.00  0.00     0.113 A
HETATM   41  N9  UNL     1     -17.720   3.440 -24.986  1.00  0.00    -0.272 N
HETATM   42  N10 UNL     1     -18.861   3.837 -25.570  1.00  0.00    -0.227 N
ATOM     43  H9  UNL     1     -17.470   2.478 -24.758  1.00  0.00     0.190 HD
HETATM   44  N11 UNL     1     -18.838   5.138 -25.712  1.00  0.00    -0.227 N
ATOM     45  H10 UNL     1     -19.623   3.224 -25.858  1.00  0.00     0.210 HD
HETATM   46  N12 UNL     1     -17.647   5.577 -25.196  1.00  0.00    -0.272 N
ATOM     47  H11 UNL     1     -19.569   5.715 -26.129  1.00  0.00     0.210 HD
ATOM     48  H12 UNL     1     -17.334   6.547 -25.160  1.00  0.00     0.190 HD
ENDBRANCH  39  40
ENDBRANCH  38  39
ENDBRANCH  35  38
ENDBRANCH  34  35
ENDBRANCH  32  34
ENDBRANCH  30  32
ENDBRANCH  28  30
ENDBRANCH   3  28
TORSDOF 15
ENDMDL