MODEL 5
REMARK VINA RESULT: -7.635139713      1.783      2.353
REMARK  10 active torsions:
REMARK  status: ('A' for Active; 'I' for Inactive)
REMARK    1  A    between atoms: N4_14  and  C7_15
REMARK    2  A    between atoms: C7_15  and  C8_16
REMARK    3  A    between atoms: C8_16  and  C9_17
REMARK    4  A    between atoms: C9_17  and  O3_18
REMARK    5  A    between atoms: C9_17  and  C10_20
REMARK    6  A    between atoms: N5_22  and  C12_23
REMARK    7  A    between atoms: C14_27  and  C15_28
REMARK       I    between atoms: C15_28  and  N7_30
REMARK    8  A    between atoms: N7_30  and  N8_32
REMARK       I    between atoms: N8_32  and  C16_33
REMARK    9  A    between atoms: C16_33  and  C17_35
REMARK   10  A    between atoms: C17_35  and  C18_36
ROOT
HETATM    1  C10 UNL     1     -15.105  14.076 -29.286  1.00  0.00     0.074 A
HETATM    2  C11 UNL     1     -15.336  12.906 -28.595  1.00  0.00     0.165 A
HETATM    3  N5  UNL     1     -14.948  11.835 -29.304  1.00  0.00    -0.081 N
HETATM    4  N11 UNL     1     -14.446  12.300 -30.408  1.00  0.00    -0.222 N
ATOM      5  H11 UNL     1     -14.041  11.734 -31.153  1.00  0.00     0.209 HD
HETATM    6  N12 UNL     1     -14.546  13.697 -30.418  1.00  0.00    -0.286 N
ATOM      7  H12 UNL     1     -14.238  14.314 -31.170  1.00  0.00     0.188 HD
ENDROOT
BRANCH   1   8
HETATM    8  C9  UNL     1     -15.668  15.333 -28.722  1.00  0.00     0.172 C
BRANCH   8   9
HETATM    9  C8  UNL     1     -14.730  16.243 -28.053  1.00  0.00     0.058 C
BRANCH   9  10
HETATM   10  C7  UNL     1     -14.479  17.330 -29.080  1.00  0.00     0.133 C
BRANCH  10  11
HETATM   11  N4  UNL     1     -13.096  17.833 -29.026  1.00  0.00    -0.335 N
HETATM   12  C4  UNL     1     -12.124  17.453 -29.912  1.00  0.00     0.149 A
HETATM   13  C3  UNL     1     -12.220  16.707 -31.011  1.00  0.00     0.280 A
HETATM   14  C5  UNL     1     -10.944  18.017 -29.499  1.00  0.00     0.145 A
HETATM   15  N2  UNL     1     -11.130  16.460 -31.820  1.00  0.00    -0.273 N
HETATM   16  O2  UNL     1     -13.281  16.171 -31.374  1.00  0.00    -0.265 OA
HETATM   17  C2  UNL     1     -10.012  17.012 -31.408  1.00  0.00     0.330 A
ATOM     18  H2  UNL     1     -11.188  15.896 -32.668  1.00  0.00     0.173 HD
HETATM   19  N1  UNL     1      -9.882  17.770 -30.299  1.00  0.00    -0.288 N
HETATM   20  O1  UNL     1      -8.953  16.839 -32.114  1.00  0.00    -0.246 OA
HETATM   21  C1  UNL     1      -8.597  18.357 -29.930  1.00  0.00     0.163 C
HETATM   22  N3  UNL     1     -11.161  18.697 -28.414  1.00  0.00    -0.336 N
HETATM   23  C6  UNL     1     -12.496  18.597 -28.115  1.00  0.00     0.185 A
ATOM     24  H3  UNL     1     -10.463  19.212 -27.879  1.00  0.00     0.168 HD
ENDBRANCH  10  11
ENDBRANCH   9  10
ENDBRANCH   8   9
BRANCH   8  25
HETATM   25  O3  UNL     1     -15.959  16.042 -30.014  1.00  0.00    -0.389 OA
ATOM     26  H3  UNL     1     -16.894  15.913 -30.121  1.00  0.00     0.210 HD
ENDBRANCH   8  25
ENDBRANCH   1   8
BRANCH   3  27
HETATM   27  C12 UNL     1     -15.340  10.560 -28.837  1.00  0.00     0.705 A
HETATM   28  N6  UNL     1     -16.466   9.898 -28.845  1.00  0.00    -0.198 N
HETATM   29  C13 UNL     1     -16.249   8.597 -28.415  1.00  0.00     0.142 A
ATOM     30  H6  UNL     1     -17.369  10.281 -29.125  1.00  0.00     0.183 HD
HETATM   31  C14 UNL     1     -14.963   8.520 -28.154  1.00  0.00     0.135 A
HETATM   32  N10 UNL     1     -14.340   9.683 -28.383  1.00  0.00    -0.183 N
ATOM     33  H10 UNL     1     -13.349   9.889 -28.255  1.00  0.00     0.184 HD
BRANCH  31  34
HETATM   34  C15 UNL     1     -14.168   7.507 -27.307  1.00  0.00     0.298 C
HETATM   35  O4  UNL     1     -12.917   7.679 -27.234  1.00  0.00    -0.263 OA
HETATM   36  N7  UNL     1     -15.039   6.629 -26.742  1.00  0.00    -0.194 N
ATOM     37  H7  UNL     1     -15.907   6.803 -27.250  1.00  0.00     0.205 HD
BRANCH  36  38
HETATM   38  N8  UNL     1     -15.363   5.702 -25.918  1.00  0.00    -0.283 NA
HETATM   39  C16 UNL     1     -15.698   4.751 -25.063  1.00  0.00     0.321 C
HETATM   40  O5  UNL     1     -16.034   4.908 -23.858  1.00  0.00    -0.255 OA
BRANCH  39  41
HETATM   41  C17 UNL     1     -15.694   3.277 -25.498  1.00  0.00     0.220 C
BRANCH  41  42
HETATM   42  C18 UNL     1     -14.341   2.777 -25.462  1.00  0.00     0.241 C
HETATM   43  N9  UNL     1     -13.653   2.489 -26.693  1.00  0.00    -0.062 NA
HETATM   44  O6  UNL     1     -13.757   2.589 -24.373  1.00  0.00    -0.276 OA
ENDBRANCH  41  42
ENDBRANCH  39  41
ENDBRANCH  36  38
ENDBRANCH  31  34
ENDBRANCH   3  27
TORSDOF 10
ENDMDL