MODEL 2
REMARK VINA RESULT: -7.898341864      1.342      2.180
REMARK  9 active torsions:
REMARK  status: ('A' for Active; 'I' for Inactive)
REMARK    1  A    between atoms: C2_2  and  C3_3
REMARK    2  A    between atoms: C2_2  and  C7_7
REMARK    3  A    between atoms: C7_7  and  O1_8
REMARK    4  A    between atoms: C7_7  and  C8_10
REMARK    5  A    between atoms: C8_10  and  O2_11
REMARK    6  A    between atoms: C8_10  and  C13_16
REMARK    7  A    between atoms: O2_11  and  C9_12
REMARK    8  A    between atoms: C9_12  and  C11_14
REMARK    9  A    between atoms: C16_22  and  O6_23
ROOT
HETATM    1  C8  UNL     1      -4.849   2.501  14.876  1.00  0.00     0.213 C
ENDROOT
BRANCH   1   2
HETATM    2  C7  UNL     1      -3.998   3.739  14.813  1.00  0.00     0.184 C
BRANCH   2   3
HETATM    3  C2  UNL     1      -4.657   4.986  14.414  1.00  0.00    -0.031 C
HETATM    4  C1  UNL     1      -5.923   5.270  14.568  1.00  0.00     0.022 C
BRANCH   3   5
HETATM    5  C3  UNL     1      -3.806   6.010  13.744  1.00  0.00    -0.058 C
HETATM    6  C4  UNL     1      -4.114   6.303  12.328  1.00  0.00     0.048 C
HETATM    7  C5  UNL     1      -2.834   6.631  14.349  1.00  0.00    -0.024 C
HETATM    8  C6  UNL     1      -2.010   7.649  13.638  1.00  0.00     0.036 C
ENDBRANCH   3   5
ENDBRANCH   2   3
BRANCH   2   9
HETATM    9  O1  UNL     1      -2.953   3.530  13.845  1.00  0.00    -0.388 OA
ATOM     10  H1  UNL     1      -2.208   3.214  14.340  1.00  0.00     0.210 HD
ENDBRANCH   2   9
ENDBRANCH   1   2
BRANCH   1  11
HETATM   11  O2  UNL     1      -5.221   2.249  16.140  1.00  0.00    -0.373 OA
BRANCH  11  12
HETATM   12  C9  UNL     1      -6.525   2.142  16.452  1.00  0.00     0.117 C
HETATM   13  C10 UNL     1      -6.775   0.714  16.948  1.00  0.00     0.039 C
BRANCH  12  14
HETATM   14  C11 UNL     1      -7.023   3.046  17.544  1.00  0.00     0.027 C
HETATM   15  C12 UNL     1      -6.542   2.430  18.865  1.00  0.00     0.007 C
ENDBRANCH  12  14
ENDBRANCH  11  12
ENDBRANCH   1  11
BRANCH   1  16
HETATM   16  C13 UNL     1      -4.281   1.427  14.029  1.00  0.00     0.331 C
HETATM   17  O3  UNL     1      -4.425   0.133  14.422  1.00  0.00    -0.204 OA
HETATM   18  O4  UNL     1      -4.562  -0.718  13.417  1.00  0.00    -0.220 OA
HETATM   19  C14 UNL     1      -3.564  -0.391  12.492  1.00  0.00     0.290 C
HETATM   20  C15 UNL     1      -3.536  -1.350  11.357  1.00  0.00     0.217 C
HETATM   21  C17 UNL     1      -4.010   0.881  11.795  1.00  0.00     0.306 C
HETATM   22  O5  UNL     1      -3.177  -2.501  11.445  1.00  0.00    -0.289 OA
HETATM   23  C16 UNL     1      -4.026  -0.586  10.177  1.00  0.00     0.334 C
HETATM   24  O7  UNL     1      -4.838   0.395  10.783  1.00  0.00    -0.321 OA
HETATM   25  O8  UNL     1      -4.741   1.616  12.694  1.00  0.00    -0.323 OA
BRANCH  23  26
HETATM   26  O6  UNL     1      -2.985   0.101   9.545  1.00  0.00    -0.365 OA
ATOM     27  H6  UNL     1      -2.411  -0.494   9.076  1.00  0.00     0.213 HD
ENDBRANCH  23  26
ENDBRANCH   1  16
TORSDOF 9
ENDMDL