MODEL 1
REMARK VINA RESULT: -7.124878464      0.000      0.000
REMARK  11 active torsions:
REMARK  status: ('A' for Active; 'I' for Inactive)
REMARK    1  A    between atoms: C2_2  and  O1_3
REMARK    2  A    between atoms: O1_3  and  C3_4
REMARK    3  A    between atoms: C4_5  and  C6_7
REMARK    4  A    between atoms: C9_12  and  C10_13
REMARK    5  A    between atoms: C10_13  and  O3_14
REMARK    6  A    between atoms: C10_13  and  C11_16
REMARK    7  A    between atoms: C11_16  and  O4_17
REMARK    8  A    between atoms: C11_16  and  O5_20
REMARK    9  A    between atoms: O4_17  and  C12_18
REMARK   10  A    between atoms: O5_20  and  C14_21
REMARK   11  A    between atoms: C16_24  and  O7_26
ROOT
HETATM    1  C6  UNL     1      -3.232   6.926  12.947  1.00  0.00     0.138 C
HETATM    2  C7  UNL     1      -2.337   7.368  14.013  1.00  0.00     0.060 C
HETATM    3  N1  UNL     1      -1.605   7.729  14.854  1.00  0.00    -0.197 NA
ENDROOT
BRANCH   1   4
HETATM    4  C4  UNL     1      -2.970   5.463  12.575  1.00  0.00     0.019 C
HETATM    5  C3  UNL     1      -3.444   5.236  11.141  1.00  0.00     0.175 C
HETATM    6  C16 UNL     1      -3.400   3.794  10.760  1.00  0.00     0.110 C
HETATM    7  C9  UNL     1      -3.876   2.961  11.955  1.00  0.00     0.191 C
HETATM    8  C17 UNL     1      -2.020   3.326  10.356  1.00  0.00     0.051 C
HETATM    9  O2  UNL     1      -4.653   3.759  12.769  1.00  0.00    -0.379 OA
HETATM   10  C8  UNL     1      -3.790   4.595  13.474  1.00  0.00     0.181 C
HETATM   11  C5  UNL     1      -1.484   5.257  12.719  1.00  0.00     0.021 C
BRANCH   5  12
HETATM   12  O1  UNL     1      -4.789   5.657  11.127  1.00  0.00    -0.355 OA
BRANCH  12  13
HETATM   13  C2  UNL     1      -5.344   6.630  10.355  1.00  0.00     0.125 C
HETATM   14  C1  UNL     1      -6.306   7.385  10.862  1.00  0.00     0.037 C
ENDBRANCH  12  13
ENDBRANCH   5  12
BRANCH   6  15
HETATM   15  O7  UNL     1      -4.228   3.601   9.658  1.00  0.00    -0.385 OA
ATOM     16  H7  UNL     1      -4.162   4.361   9.093  1.00  0.00     0.210 HD
ENDBRANCH   6  15
BRANCH   7  17
HETATM   17  C10 UNL     1      -4.546   1.725  11.454  1.00  0.00     0.205 C
BRANCH  17  18
HETATM   18  O3  UNL     1      -5.886   1.915  11.164  1.00  0.00    -0.388 OA
ATOM     19  H3  UNL     1      -6.033   2.276  10.297  1.00  0.00     0.210 HD
ENDBRANCH  17  18
BRANCH  17  20
HETATM   20  C11 UNL     1      -4.416   0.559  12.400  1.00  0.00     0.300 C
BRANCH  20  21
HETATM   21  O4  UNL     1      -3.464  -0.372  12.012  1.00  0.00    -0.358 OA
BRANCH  21  22
HETATM   22  C12 UNL     1      -3.943  -1.595  11.646  1.00  0.00     0.166 C
HETATM   23  C13 UNL     1      -2.834  -2.550  11.296  1.00  0.00     0.033 C
ENDBRANCH  21  22
ENDBRANCH  20  21
BRANCH  20  24
HETATM   24  O5  UNL     1      -3.885   1.114  13.629  1.00  0.00    -0.287 OA
BRANCH  24  25
HETATM   25  C14 UNL     1      -4.461   0.761  14.839  1.00  0.00     0.257 C
HETATM   26  C15 UNL     1      -4.853   1.829  15.769  1.00  0.00     0.126 C
HETATM   27  O6  UNL     1      -4.612  -0.465  15.067  1.00  0.00    -0.266 OA
ENDBRANCH  24  25
ENDBRANCH  20  24
ENDBRANCH  17  20
ENDBRANCH   7  17
ENDBRANCH   1   4
TORSDOF 11
ENDMDL