MODEL 4
REMARK VINA RESULT: -6.751238014      1.976      4.691
REMARK  11 active torsions:
REMARK  status: ('A' for Active; 'I' for Inactive)
REMARK    1  A    between atoms: C2_2  and  S1_4
REMARK    2  A    between atoms: S1_4  and  C3_5
REMARK    3  A    between atoms: C3_5  and  C4_6
REMARK    4  A    between atoms: C4_6  and  O2_7
REMARK    5  A    between atoms: C4_6  and  C5_9
REMARK    6  A    between atoms: C5_9  and  C6_10
REMARK    7  A    between atoms: C6_10  and  O4_12
REMARK    8  A    between atoms: O4_12  and  C7_13
REMARK    9  A    between atoms: C7_13  and  C8_14
REMARK   10  A    between atoms: C8_14  and  C9_15
REMARK   11  A    between atoms: C9_15  and  O5_16
ROOT
HETATM    1  C7  UNL     1      -3.873  -0.112  12.497  1.00  0.00     0.221 C
ENDROOT
BRANCH   1   2
HETATM    2  O4  UNL     1      -4.727   0.481  13.396  1.00  0.00    -0.318 OA
BRANCH   2   3
HETATM    3  C6  UNL     1      -4.603   0.625  14.746  1.00  0.00     0.261 C
HETATM    4  O3  UNL     1      -4.587  -0.407  15.458  1.00  0.00    -0.265 OA
BRANCH   3   5
HETATM    5  C5  UNL     1      -4.485   1.977  15.396  1.00  0.00     0.143 C
BRANCH   5   6
HETATM    6  C4  UNL     1      -4.484   3.047  14.325  1.00  0.00     0.137 C
BRANCH   6   7
HETATM    7  C3  UNL     1      -4.077   4.377  14.877  1.00  0.00     0.114 C
BRANCH   7   8
HETATM    8  S1  UNL     1      -3.154   5.372  13.696  1.00  0.00    -0.090 SA
BRANCH   8   9
HETATM    9  C2  UNL     1      -4.229   5.973  12.416  1.00  0.00     0.182 C
HETATM   10  C1  UNL     1      -3.689   6.550  11.177  1.00  0.00     0.104 C
HETATM   11  O1  UNL     1      -5.446   5.912  12.555  1.00  0.00    -0.286 OA
ENDBRANCH   8   9
ENDBRANCH   7   8
ENDBRANCH   6   7
BRANCH   6  12
HETATM   12  O2  UNL     1      -5.797   3.166  13.837  1.00  0.00    -0.394 OA
ATOM     13  H2  UNL     1      -6.229   3.857  14.326  1.00  0.00     0.210 HD
ENDBRANCH   6  12
ENDBRANCH   5   6
ENDBRANCH   3   5
ENDBRANCH   2   3
ENDBRANCH   1   2
BRANCH   1  14
HETATM   14  C8  UNL     1      -3.558   0.599  11.234  1.00  0.00     0.137 C
HETATM   15  O6  UNL     1      -2.613   0.123  10.377  1.00  0.00    -0.340 OA
HETATM   16  C10 UNL     1      -1.634   1.066  10.685  1.00  0.00     0.296 C
HETATM   17  O7  UNL     1      -1.272   1.909   9.667  1.00  0.00    -0.323 OA
HETATM   18  C14 UNL     1      -2.684   1.819  11.468  1.00  0.00     0.219 C
HETATM   19  C11 UNL     1      -1.646   3.158  10.141  1.00  0.00     0.160 C
HETATM   20  C12 UNL     1      -0.806   3.624  11.303  1.00  0.00     0.078 C
HETATM   21  C13 UNL     1      -1.660   4.180   9.032  1.00  0.00     0.078 C
HETATM   22  O8  UNL     1      -2.936   2.905  10.641  1.00  0.00    -0.342 OA
BRANCH  14  23
HETATM   23  C9  UNL     1      -4.812   1.026  10.450  1.00  0.00     0.207 C
BRANCH  23  24
HETATM   24  O5  UNL     1      -5.583   1.883  11.197  1.00  0.00    -0.398 OA
ATOM     25  H5  UNL     1      -6.417   1.482  11.413  1.00  0.00     0.209 HD
ENDBRANCH  23  24
ENDBRANCH  14  23
ENDBRANCH   1  14
TORSDOF 11
ENDMDL