MODEL 3
REMARK VINA RESULT: -6.951577493      1.353      1.771
REMARK  11 active torsions:
REMARK  status: ('A' for Active; 'I' for Inactive)
REMARK    1  A    between atoms: C3_3  and  O1_4
REMARK    2  A    between atoms: O1_4  and  C4_5
REMARK    3  A    between atoms: C4_5  and  C5_7
REMARK    4  A    between atoms: C5_7  and  C6_8
REMARK    5  A    between atoms: C5_7  and  N2_17
REMARK    6  A    between atoms: C6_8  and  C7_9
REMARK    7  A    between atoms: C7_9  and  C8_10
REMARK    8  A    between atoms: C8_10  and  O3_11
REMARK    9  A    between atoms: N1_13  and  O4_15
REMARK   10  A    between atoms: C13_23  and  C14_24
REMARK   11  A    between atoms: C14_24  and  O6_26
ROOT
HETATM    1  C1  UNL     1      -3.425  -2.001  11.555  1.00  0.00     0.014 C
HETATM    2  C2  UNL     1      -3.085  -0.973  11.051  1.00  0.00    -0.091 C
HETATM    3  C3  UNL     1      -2.655   0.276  10.419  1.00  0.00     0.271 C
ENDROOT
BRANCH   3   4
HETATM    4  O1  UNL     1      -3.797   1.082  10.258  1.00  0.00    -0.308 OA
BRANCH   4   5
HETATM    5  C4  UNL     1      -4.413   1.793  11.259  1.00  0.00     0.282 C
HETATM    6  O2  UNL     1      -5.684   1.905  11.080  1.00  0.00    -0.263 OA
BRANCH   5   7
HETATM    7  C5  UNL     1      -3.817   2.398  12.430  1.00  0.00     0.181 C
BRANCH   7   8
HETATM    8  C6  UNL     1      -4.705   2.180  13.672  1.00  0.00     0.043 C
BRANCH   8   9
HETATM    9  C7  UNL     1      -4.519   0.874  14.335  1.00  0.00     0.088 C
BRANCH   9  10
HETATM   10  C8  UNL     1      -4.483   0.838  15.790  1.00  0.00     0.135 C
HETATM   11  N1  UNL     1      -5.375   0.310  16.517  1.00  0.00    -0.251 N
ATOM     12  H1  UNL     1      -6.172  -0.120  16.049  1.00  0.00     0.196 HD
BRANCH  10  13
HETATM   13  O3  UNL     1      -3.371   1.434  16.426  1.00  0.00    -0.348 OA
ATOM     14  H3  UNL     1      -2.935   0.931  17.104  1.00  0.00     0.219 HD
ENDBRANCH  10  13
BRANCH  11  15
HETATM   15  O4  UNL     1      -5.348   0.273  17.873  1.00  0.00    -0.288 OA
ATOM     16  H4  UNL     1      -5.175   1.021  18.433  1.00  0.00     0.244 HD
ENDBRANCH  11  15
ENDBRANCH   9  10
ENDBRANCH   8   9
ENDBRANCH   7   8
BRANCH   7  17
HETATM   17  N2  UNL     1      -3.568   3.804  12.428  1.00  0.00    -0.376 N
HETATM   18  C9  UNL     1      -3.615   4.401  13.717  1.00  0.00     0.194 C
HETATM   19  S1  UNL     1      -1.976   5.239  13.741  1.00  0.00    -0.138 SA
HETATM   20  C10 UNL     1      -1.929   5.520  11.948  1.00  0.00     0.032 C
HETATM   21  C11 UNL     1      -0.529   5.385  11.412  1.00  0.00     0.029 C
HETATM   22  C12 UNL     1      -2.471   6.915  11.724  1.00  0.00     0.029 C
HETATM   23  C13 UNL     1      -2.872   4.448  11.463  1.00  0.00     0.199 C
BRANCH  23  24
HETATM   24  C14 UNL     1      -3.801   5.108  10.473  1.00  0.00     0.282 C
HETATM   25  O5  UNL     1      -3.454   5.362   9.294  1.00  0.00    -0.263 OA
BRANCH  24  26
HETATM   26  O6  UNL     1      -5.093   5.462  10.833  1.00  0.00    -0.325 OA
HETATM   27  C15 UNL     1      -5.796   6.436  10.119  1.00  0.00     0.213 C
ENDBRANCH  24  26
ENDBRANCH  23  24
ENDBRANCH   7  17
ENDBRANCH   5   7
ENDBRANCH   4   5
ENDBRANCH   3   4
TORSDOF 11
ENDMDL