MODEL 1
REMARK VINA RESULT: -7.127032952      0.000      0.000
REMARK  9 active torsions:
REMARK  status: ('A' for Active; 'I' for Inactive)
REMARK    1  A    between atoms: C2_2  and  O1_3
REMARK    2  A    between atoms: O1_3  and  C3_4
REMARK    3  A    between atoms: C3_4  and  C4_6
REMARK       I    between atoms: C4_6  and  N1_8
REMARK    4  A    between atoms: N1_8  and  C5_10
REMARK    5  A    between atoms: C5_10  and  C7_13
REMARK    6  A    between atoms: C7_13  and  C8_14
REMARK    7  A    between atoms: C8_14  and  S1_15
REMARK    8  A    between atoms: S1_15  and  C9_16
REMARK       I    between atoms: N3_18  and  C11_20
REMARK       I    between atoms: C11_20  and  N6_25
REMARK    9  A    between atoms: N6_25  and  C13_27
ROOT
HETATM    1  C5  UNL     1      -4.691   2.027  11.967  1.00  0.00     0.239 C
HETATM    2  C6  UNL     1      -4.604   0.992  10.935  1.00  0.00     0.090 C
HETATM    3  N2  UNL     1      -4.539   0.160  10.136  1.00  0.00    -0.195 NA
ENDROOT
BRANCH   1   4
HETATM    4  N1  UNL     1      -4.310   1.383  13.227  1.00  0.00    -0.330 N
HETATM    5  C4  UNL     1      -4.822   1.825  14.474  1.00  0.00     0.318 C
HETATM    6  O3  UNL     1      -5.626   2.785  14.557  1.00  0.00    -0.262 OA
ATOM      7  H1  UNL     1      -3.660   0.597  13.207  1.00  0.00     0.164 HD
BRANCH   5   8
HETATM    8  C3  UNL     1      -4.434   1.174  15.718  1.00  0.00     0.351 C
HETATM    9  O2  UNL     1      -3.402   1.575  16.319  1.00  0.00    -0.254 OA
BRANCH   8  10
HETATM   10  O1  UNL     1      -5.140   0.134  16.280  1.00  0.00    -0.314 OA
BRANCH  10  11
HETATM   11  C2  UNL     1      -5.952   0.359  17.390  1.00  0.00     0.175 C
HETATM   12  C1  UNL     1      -7.252   1.041  17.104  1.00  0.00     0.034 C
ENDBRANCH  10  11
ENDBRANCH   8  10
ENDBRANCH   5   8
ENDBRANCH   1   4
BRANCH   1  13
HETATM   13  C7  UNL     1      -3.833   3.199  11.698  1.00  0.00     0.050 C
HETATM   14  N3  UNL     1      -4.040   4.300  12.346  1.00  0.00    -0.195 N
HETATM   15  C11 UNL     1      -3.259   5.466  12.144  1.00  0.00     0.687 C
ATOM     16  H3  UNL     1      -4.795   4.329  13.031  1.00  0.00     0.184 HD
HETATM   17  N4  UNL     1      -2.263   5.775  12.903  1.00  0.00    -0.126 N
HETATM   18  N6  UNL     1      -3.574   6.327  11.076  1.00  0.00    -0.222 N
HETATM   19  C12 UNL     1      -1.961   4.898  13.969  1.00  0.00     0.196 C
ATOM     20  H4  UNL     1      -1.714   6.618  12.740  1.00  0.00     0.197 HD
HETATM   21  N5  UNL     1      -1.699   4.183  14.854  1.00  0.00    -0.171 NA
ATOM     22  H6  UNL     1      -3.874   5.910  10.195  1.00  0.00     0.178 HD
BRANCH  13  23
HETATM   23  C8  UNL     1      -2.748   3.129  10.705  1.00  0.00     0.130 C
BRANCH  23  24
HETATM   24  S1  UNL     1      -1.227   2.420  11.352  1.00  0.00    -0.164 SA
BRANCH  24  25
HETATM   25  C9  UNL     1       0.135   3.578  11.130  1.00  0.00     0.069 C
HETATM   26  C10 UNL     1      -0.236   4.604  10.077  1.00  0.00     0.016 C
ENDBRANCH  24  25
ENDBRANCH  23  24
ENDBRANCH  13  23
BRANCH  18  27
HETATM   27  C13 UNL     1      -3.498   7.767  11.155  1.00  0.00     0.091 C
HETATM   28  C14 UNL     1      -2.367   8.306  10.312  1.00  0.00     0.032 C
HETATM   29  C15 UNL     1      -4.781   8.397  10.609  1.00  0.00     0.032 C
ENDBRANCH  18  27
ENDBRANCH   1  13
TORSDOF 9
ENDMDL