MODEL 4
REMARK VINA RESULT: -6.221393144      1.867      2.421
REMARK  14 active torsions:
REMARK  status: ('A' for Active; 'I' for Inactive)
REMARK    1  A    between atoms: C2_2  and  O1_5
REMARK    2  A    between atoms: O1_5  and  C5_6
REMARK    3  A    between atoms: C5_6  and  C6_8
REMARK    4  A    between atoms: C6_8  and  C7_9
REMARK    5  A    between atoms: C7_9  and  C8_10
REMARK    6  A    between atoms: C8_10  and  O4_12
REMARK    7  A    between atoms: O4_12  and  C9_13
REMARK    8  A    between atoms: C10_14  and  C11_15
REMARK    9  A    between atoms: C11_15  and  O5_16
REMARK   10  A    between atoms: C12_19  and  N1_20
REMARK   11  A    between atoms: N1_20  and  N2_22
REMARK   12  A    between atoms: C13_27  and  C14_28
REMARK   13  A    between atoms: C14_28  and  C15_29
REMARK   14  A    between atoms: C15_29  and  O7_30
ROOT
HETATM    1  C9  UNL     1      -3.392   3.331  10.468  1.00  0.00     0.171 C
HETATM    2  C10 UNL     1      -1.890   3.607  10.358  1.00  0.00     0.177 C
HETATM    3  O6  UNL     1      -1.589   4.581  11.279  1.00  0.00    -0.355 OA
HETATM    4  C12 UNL     1      -2.552   4.481  12.311  1.00  0.00     0.244 C
HETATM    5  C13 UNL     1      -3.822   4.374  11.453  1.00  0.00     0.070 C
ENDROOT
BRANCH   1   6
HETATM    6  O4  UNL     1      -3.521   2.017  10.977  1.00  0.00    -0.309 OA
BRANCH   6   7
HETATM    7  C8  UNL     1      -4.623   1.608  11.721  1.00  0.00     0.283 C
HETATM    8  O3  UNL     1      -5.748   1.817  11.204  1.00  0.00    -0.260 OA
BRANCH   7   9
HETATM    9  C7  UNL     1      -4.466   0.966  13.038  1.00  0.00     0.088 C
BRANCH   9  10
HETATM   10  C6  UNL     1      -4.466   1.656  14.154  1.00  0.00     0.088 C
BRANCH  10  11
HETATM   11  C5  UNL     1      -4.576   0.984  15.417  1.00  0.00     0.283 C
HETATM   12  O2  UNL     1      -3.545   0.650  16.039  1.00  0.00    -0.260 OA
BRANCH  11  13
HETATM   13  O1  UNL     1      -5.812   0.703  15.953  1.00  0.00    -0.308 OA
BRANCH  13  14
HETATM   14  C2  UNL     1      -6.513   1.602  16.798  1.00  0.00     0.060 C
HETATM   15  C1  UNL     1      -5.950   1.591  18.198  1.00  0.00     0.046 C
HETATM   16  C3  UNL     1      -7.953   1.097  16.896  1.00  0.00     0.046 C
HETATM   17  C4  UNL     1      -6.495   2.989  16.224  1.00  0.00     0.046 C
ENDBRANCH  13  14
ENDBRANCH  11  13
ENDBRANCH  10  11
ENDBRANCH   9  10
ENDBRANCH   7   9
ENDBRANCH   6   7
ENDBRANCH   1   6
BRANCH   2  18
HETATM   18  C11 UNL     1      -1.074   2.378  10.696  1.00  0.00     0.198 C
BRANCH  18  19
HETATM   19  O5  UNL     1      -1.208   1.469   9.679  1.00  0.00    -0.398 OA
ATOM     20  H5  UNL     1      -0.502   1.601   9.056  1.00  0.00     0.209 HD
ENDBRANCH  18  19
ENDBRANCH   2  18
BRANCH   5  21
HETATM   21  C14 UNL     1      -3.985   5.691  10.774  1.00  0.00     0.037 C
BRANCH  21  22
HETATM   22  C15 UNL     1      -5.307   6.356  10.961  1.00  0.00     0.164 C
BRANCH  22  23
HETATM   23  O7  UNL     1      -5.680   6.279  12.302  1.00  0.00    -0.401 OA
ATOM     24  H7  UNL     1      -6.538   6.672  12.415  1.00  0.00     0.209 HD
ENDBRANCH  22  23
ENDBRANCH  21  22
ENDBRANCH   5  21
BRANCH   4  25
HETATM   25  N1  UNL     1      -2.534   5.678  13.093  1.00  0.00    -0.293 N
ATOM     26  H1  UNL     1      -1.937   6.460  12.824  1.00  0.00     0.184 HD
BRANCH  25  27
HETATM   27  N2  UNL     1      -3.250   5.758  14.100  1.00  0.00    -0.252 N
HETATM   28  N3  UNL     1      -4.257   5.559  14.808  1.00  0.00    -0.331 N
ATOM     29  H32 UNL     1      -4.801   4.996  14.153  1.00  0.00     0.178 HD
ATOM     30  H31 UNL     1      -4.847   5.625  15.637  1.00  0.00     0.178 HD
ATOM     31  H2  UNL     1      -2.671   6.324  14.721  1.00  0.00     0.207 HD
ENDBRANCH  25  27
ENDBRANCH   4  25
TORSDOF 14
ENDMDL