MODEL 2
REMARK VINA RESULT: -6.880008518      2.171      2.756
REMARK  9 active torsions:
REMARK  status: ('A' for Active; 'I' for Inactive)
REMARK    1  A    between atoms: C2_2  and  O1_5
REMARK    2  A    between atoms: O1_5  and  C5_6
REMARK    3  A    between atoms: C5_6  and  C6_8
REMARK    4  A    between atoms: C6_8  and  C7_9
REMARK    5  A    between atoms: C7_9  and  N1_10
REMARK    6  A    between atoms: C9_12  and  O3_14
REMARK    7  A    between atoms: O3_14  and  N2_15
REMARK       I    between atoms: N2_15  and  C11_17
REMARK    8  A    between atoms: C11_17  and  C12_19
REMARK    9  A    between atoms: C12_19  and  C13_20
ROOT
HETATM    1  C13 UNL     1      -5.974   2.212  16.191  1.00  0.00     0.271 C
HETATM    2  C14 UNL     1      -6.144   3.388  15.363  1.00  0.00     0.111 C
HETATM    3  N3  UNL     1      -6.271   4.328  14.704  1.00  0.00    -0.194 NA
HETATM    4  N4  UNL     1      -7.071   1.284  16.184  1.00  0.00    -0.035 N
ATOM      5  H41 UNL     1      -7.024   0.528  15.502  1.00  0.00     0.281 HD
ATOM      6  H42 UNL     1      -7.963   1.636  15.836  1.00  0.00     0.281 HD
HETATM    7  C15 UNL     1      -7.029   0.898  17.582  1.00  0.00     0.312 C
HETATM    8  S1  UNL     1      -6.446   2.606  17.925  1.00  0.00    -0.087 SA
ENDROOT
BRANCH   1   9
HETATM    9  C12 UNL     1      -4.608   1.573  16.130  1.00  0.00     0.171 C
BRANCH   9  10
HETATM   10  C11 UNL     1      -4.509   0.532  15.106  1.00  0.00     0.245 C
HETATM   11  N2  UNL     1      -4.248   0.786  13.739  1.00  0.00    -0.234 N
ATOM     12  H2  UNL     1      -4.119   1.760  13.464  1.00  0.00     0.197 HD
HETATM   13  O4  UNL     1      -4.667  -0.669  15.462  1.00  0.00    -0.271 OA
BRANCH  11  14
HETATM   14  O3  UNL     1      -4.157  -0.141  12.771  1.00  0.00    -0.263 OA
BRANCH  14  15
HETATM   15  C9  UNL     1      -3.773   0.468  11.585  1.00  0.00     0.138 C
HETATM   16  C8  UNL     1      -3.456   1.963  11.693  1.00  0.00     0.314 C
HETATM   17  N1  UNL     1      -2.392   1.709  10.746  1.00  0.00     0.095 N
HETATM   18  C16 UNL     1      -2.260   0.391  11.324  1.00  0.00     0.314 C
HETATM   19  C10 UNL     1      -4.627   0.199  10.392  1.00  0.00     0.052 C
BRANCH  17  20
HETATM   20  C7  UNL     1      -1.262   2.572  10.785  1.00  0.00     0.282 C
BRANCH  20  21
HETATM   21  C6  UNL     1      -1.570   3.871  10.078  1.00  0.00     0.141 C
BRANCH  21  22
HETATM   22  C5  UNL     1      -1.235   5.051  10.943  1.00  0.00     0.261 C
HETATM   23  O2  UNL     1      -0.826   6.140  10.527  1.00  0.00    -0.265 OA
BRANCH  22  24
HETATM   24  O1  UNL     1      -1.407   4.888  12.309  1.00  0.00    -0.311 OA
BRANCH  24  25
HETATM   25  C2  UNL     1      -2.407   5.510  13.082  1.00  0.00     0.060 C
HETATM   26  C1  UNL     1      -1.958   6.826  13.655  1.00  0.00     0.045 C
HETATM   27  C3  UNL     1      -2.718   4.591  14.245  1.00  0.00     0.045 C
HETATM   28  C4  UNL     1      -3.696   5.737  12.339  1.00  0.00     0.045 C
ENDBRANCH  24  25
ENDBRANCH  22  24
ENDBRANCH  21  22
ENDBRANCH  20  21
ENDBRANCH  17  20
ENDBRANCH  14  15
ENDBRANCH  11  14
ENDBRANCH   9  10
ENDBRANCH   1   9
TORSDOF 9
ENDMDL