MODEL 5
REMARK VINA RESULT: -6.430216011      5.140      6.211
REMARK  9 active torsions:
REMARK  status: ('A' for Active; 'I' for Inactive)
REMARK    1  A    between atoms: C4_4  and  C5_5
REMARK    2  A    between atoms: C5_5  and  N1_6
REMARK    3  A    between atoms: C6_11  and  N4_12
REMARK    4  A    between atoms: C8_14  and  O1_15
REMARK    5  A    between atoms: O1_15  and  C9_16
REMARK    6  A    between atoms: C9_16  and  C10_17
REMARK    7  A    between atoms: C10_17  and  O2_18
REMARK    8  A    between atoms: C14_25  and  C15_26
REMARK    9  A    between atoms: C15_26  and  O3_29
ROOT
HETATM    1  N1  UNL     1      -1.188   4.616  12.265  1.00  0.00    -0.205 N
HETATM    2  N2  UNL     1      -0.433   3.553  12.124  1.00  0.00    -0.211 N
ATOM      3  H2  UNL     1       0.587   3.546  12.147  1.00  0.00     0.210 HD
HETATM    4  N3  UNL     1      -1.182   2.514  11.952  1.00  0.00    -0.115 N
ATOM      5  H3  UNL     1      -0.845   1.560  11.818  1.00  0.00     0.207 HD
HETATM    6  C6  UNL     1      -2.468   2.884  11.977  1.00  0.00     0.712 A
HETATM    7  N5  UNL     1      -2.440   4.212  12.175  1.00  0.00    -0.113 N
ATOM      8  H5  UNL     1      -3.260   4.815  12.245  1.00  0.00     0.207 HD
ENDROOT
BRANCH   1   9
HETATM    9  C5  UNL     1      -0.668   5.947  12.476  1.00  0.00     0.176 C
BRANCH   9  10
HETATM   10  C4  UNL     1      -1.691   7.039  12.303  1.00  0.00     0.007 C
HETATM   11  C3  UNL     1      -2.173   7.571  13.608  1.00  0.00     0.011 C
HETATM   12  C2  UNL     1      -1.104   8.538  14.139  1.00  0.00    -0.011 C
HETATM   13  C1  UNL     1      -1.442   8.727  15.614  1.00  0.00     0.010 C
HETATM   14  C14 UNL     1      -1.248   9.803  13.362  1.00  0.00     0.023 C
HETATM   15  C13 UNL     1      -1.506   9.508  11.924  1.00  0.00     0.008 C
HETATM   16  C12 UNL     1      -1.045   8.136  11.489  1.00  0.00     0.007 C
BRANCH  14  17
HETATM   17  C15 UNL     1      -0.112  10.776  13.573  1.00  0.00     0.054 C
HETATM   18  C16 UNL     1       0.151  11.496  12.250  1.00  0.00     0.045 C
HETATM   19  C17 UNL     1       1.170  10.109  13.964  1.00  0.00     0.045 C
BRANCH  17  20
HETATM   20  O3  UNL     1      -0.413  11.750  14.501  1.00  0.00    -0.390 OA
ATOM     21  H3  UNL     1       0.168  12.498  14.447  1.00  0.00     0.210 HD
ENDBRANCH  17  20
ENDBRANCH  14  17
ENDBRANCH   9  10
ENDBRANCH   1   9
BRANCH   6  22
HETATM   22  N4  UNL     1      -3.599   2.037  11.823  1.00  0.00    -0.210 N
HETATM   23  C7  UNL     1      -4.418   1.276  12.743  1.00  0.00     0.175 C
HETATM   24  C8  UNL     1      -4.653   0.286  11.585  1.00  0.00     0.158 C
HETATM   25  C11 UNL     1      -4.441   1.543  10.753  1.00  0.00     0.175 C
BRANCH  24  26
HETATM   26  O1  UNL     1      -3.604  -0.564  11.411  1.00  0.00    -0.381 OA
BRANCH  26  27
HETATM   27  C9  UNL     1      -3.798  -1.895  11.625  1.00  0.00     0.194 C
BRANCH  27  28
HETATM   28  C10 UNL     1      -2.668  -2.809  11.312  1.00  0.00     0.190 C
BRANCH  28  29
HETATM   29  O2  UNL     1      -2.934  -4.152  11.332  1.00  0.00    -0.399 OA
ATOM     30  H2  UNL     1      -2.741  -4.640  10.540  1.00  0.00     0.209 HD
ENDBRANCH  28  29
ENDBRANCH  27  28
ENDBRANCH  26  27
ENDBRANCH  24  26
ENDBRANCH   6  22
TORSDOF 9
ENDMDL