MODEL 4
REMARK VINA RESULT: -6.384509484      3.060      5.495
REMARK  8 active torsions:
REMARK  status: ('A' for Active; 'I' for Inactive)
REMARK    1  A    between atoms: C2_2  and  C3_3
REMARK    2  A    between atoms: C3_3  and  S1_4
REMARK    3  A    between atoms: S1_4  and  C4_5
REMARK    4  A    between atoms: C5_8  and  N2_9
REMARK    5  A    between atoms: N2_9  and  C6_11
REMARK    6  A    between atoms: C6_11  and  C7_12
REMARK    7  A    between atoms: C7_12  and  N3_13
REMARK    8  A    between atoms: N5_22  and  S2_24
ROOT
HETATM    1  C4  UNL     1      -3.326   2.601  11.455  1.00  0.00     0.174 A
HETATM    2  N1  UNL     1      -3.550   3.092  12.695  1.00  0.00    -0.169 N
ATOM      3  H1  UNL     1      -3.355   2.503  13.506  1.00  0.00     0.186 HD
HETATM    4  C5  UNL     1      -4.021   4.328  12.886  1.00  0.00     0.696 A
HETATM    5  N4  UNL     1      -4.277   5.106  11.794  1.00  0.00    -0.018 N
HETATM    6  C12 UNL     1      -4.788   6.442  12.025  1.00  0.00     0.195 C
HETATM    7  C13 UNL     1      -4.077   4.683  10.544  1.00  0.00     0.706 A
HETATM    8  N5  UNL     1      -4.285   5.332   9.473  1.00  0.00    -0.164 N
ATOM      9  H5  UNL     1      -4.062   4.807   8.627  1.00  0.00     0.192 HD
HETATM   10  N6  UNL     1      -3.587   3.387  10.418  1.00  0.00    -0.169 N
ATOM     11  H6  UNL     1      -3.420   3.022   9.480  1.00  0.00     0.186 HD
ENDROOT
BRANCH   4  12
HETATM   12  N2  UNL     1      -4.230   4.787  14.031  1.00  0.00    -0.224 N
ATOM     13  H2  UNL     1      -3.421   5.211  14.485  1.00  0.00     0.177 HD
BRANCH  12  14
HETATM   14  C6  UNL     1      -5.432   4.806  14.792  1.00  0.00     0.158 C
BRANCH  14  15
HETATM   15  C7  UNL     1      -6.029   3.421  14.887  1.00  0.00     0.142 C
BRANCH  15  16
HETATM   16  N3  UNL     1      -5.676   2.724  16.076  1.00  0.00    -0.388 N
HETATM   17  C8  UNL     1      -4.467   1.982  16.021  1.00  0.00     0.148 C
HETATM   18  C9  UNL     1      -4.712   0.493  16.045  1.00  0.00     0.187 C
HETATM   19  O1  UNL     1      -5.359   0.244  17.278  1.00  0.00    -0.385 OA
HETATM   20  C10 UNL     1      -6.657   0.711  17.117  1.00  0.00     0.212 C
HETATM   21  C11 UNL     1      -6.752   2.151  16.773  1.00  0.00     0.084 C
ENDBRANCH  15  16
ENDBRANCH  14  15
ENDBRANCH  12  14
ENDBRANCH   4  12
BRANCH   1  22
HETATM   22  S1  UNL     1      -2.700   0.954  11.190  1.00  0.00    -0.093 SA
BRANCH  22  23
HETATM   23  C3  UNL     1      -4.005  -0.224  10.822  1.00  0.00     0.082 C
BRANCH  23  24
HETATM   24  C2  UNL     1      -3.963  -1.438  11.692  1.00  0.00     0.006 C
HETATM   25  C1  UNL     1      -2.900  -2.415  11.321  1.00  0.00     0.006 C
ENDBRANCH  23  24
ENDBRANCH  22  23
ENDBRANCH   1  22
BRANCH   8  26
HETATM   26  S2  UNL     1      -4.866   6.913   9.168  1.00  0.00    -0.044 SA
HETATM   27  C14 UNL     1      -6.667   6.851   8.906  1.00  0.00     0.115 C
ENDBRANCH   8  26
TORSDOF 8
ENDMDL