MODEL 3
REMARK VINA RESULT: -7.359735521      1.413      3.121
REMARK  11 active torsions:
REMARK  status: ('A' for Active; 'I' for Inactive)
REMARK    1  A    between atoms: C2_2  and  O2_4
REMARK    2  A    between atoms: O2_4  and  C3_5
REMARK    3  A    between atoms: C3_5  and  C4_6
REMARK    4  A    between atoms: C3_5  and  C6_11
REMARK    5  A    between atoms: C4_6  and  O3_7
REMARK    6  A    between atoms: O3_7  and  C5_8
REMARK    7  A    between atoms: C8_13  and  C9_14
REMARK    8  A    between atoms: C10_15  and  C11_16
REMARK    9  A    between atoms: C11_16  and  C13_18
REMARK   10  A    between atoms: C16_22  and  O7_23
REMARK   11  A    between atoms: C17_25  and  O8_26
ROOT
HETATM    1  C9  UNL     1      -4.585   5.527  12.772  1.00  0.00    -0.003 C
HETATM    2  C10 UNL     1      -5.182   5.773  11.620  1.00  0.00    -0.020 C
ENDROOT
BRANCH   1   3
HETATM    3  C8  UNL     1      -4.371   4.192  13.287  1.00  0.00     0.005 C
HETATM    4  C6  UNL     1      -5.026   3.662  14.276  1.00  0.00    -0.052 C
HETATM    5  C7  UNL     1      -6.082   4.444  14.960  1.00  0.00     0.046 C
BRANCH   4   6
HETATM    6  C3  UNL     1      -4.732   2.254  14.747  1.00  0.00     0.185 C
BRANCH   6   7
HETATM    7  O2  UNL     1      -3.937   1.590  13.776  1.00  0.00    -0.310 OA
BRANCH   7   8
HETATM    8  C2  UNL     1      -4.267   0.353  13.255  1.00  0.00     0.255 C
HETATM    9  C1  UNL     1      -4.262   0.086  11.780  1.00  0.00     0.126 C
HETATM   10  O1  UNL     1      -4.578  -0.561  14.059  1.00  0.00    -0.266 OA
ENDBRANCH   7   8
ENDBRANCH   6   7
BRANCH   6  11
HETATM   11  C4  UNL     1      -4.083   2.287  16.103  1.00  0.00     0.219 C
BRANCH  11  12
HETATM   12  O3  UNL     1      -4.469   1.177  16.858  1.00  0.00    -0.293 OA
BRANCH  12  13
HETATM   13  C5  UNL     1      -5.732   0.833  17.273  1.00  0.00     0.332 C
HETATM   14  O4  UNL     1      -6.058  -0.382  17.247  1.00  0.00    -0.624 OA
HETATM   15  O5  UNL     1      -6.653   1.784  17.714  1.00  0.00    -0.624 OA
ENDBRANCH  12  13
ENDBRANCH  11  12
ENDBRANCH   6  11
ENDBRANCH   4   6
ENDBRANCH   1   3
BRANCH   2  16
HETATM   16  C11 UNL     1      -5.385   7.127  11.127  1.00  0.00     0.035 C
HETATM   17  C12 UNL     1      -6.778   7.600  11.562  1.00  0.00     0.017 C
BRANCH  16  18
HETATM   18  C13 UNL     1      -5.292   7.338   9.669  1.00  0.00     0.160 C
HETATM   19  O6  UNL     1      -4.442   6.472   8.992  1.00  0.00    -0.375 OA
HETATM   20  C14 UNL     1      -4.535   6.992   7.685  1.00  0.00     0.149 C
HETATM   21  C15 UNL     1      -3.974   6.030   6.666  1.00  0.00     0.042 C
HETATM   22  C16 UNL     1      -5.987   7.313   7.449  1.00  0.00     0.178 C
HETATM   23  C17 UNL     1      -6.548   7.223   8.879  1.00  0.00     0.178 C
BRANCH  22  24
HETATM   24  O7  UNL     1      -6.527   6.349   6.624  1.00  0.00    -0.390 OA
ATOM     25  H7  UNL     1      -7.366   6.655   6.303  1.00  0.00     0.210 HD
ENDBRANCH  22  24
BRANCH  23  26
HETATM   26  O8  UNL     1      -7.194   6.014   8.950  1.00  0.00    -0.390 OA
ATOM     27  H8  UNL     1      -7.751   5.884   9.708  1.00  0.00     0.210 HD
ENDBRANCH  23  26
ENDBRANCH  16  18
ENDBRANCH   2  16
TORSDOF 11
ENDMDL