MODEL 2
REMARK VINA RESULT: -7.884165399      2.147      4.049
REMARK  9 active torsions:
REMARK  status: ('A' for Active; 'I' for Inactive)
REMARK    1  A    between atoms: N1_6  and  C4_7
REMARK    2  A    between atoms: C4_7  and  N2_8
REMARK    3  A    between atoms: N2_8  and  C5_10
REMARK    4  A    between atoms: C6_11  and  C7_12
REMARK    5  A    between atoms: C7_12  and  O2_13
REMARK    6  A    between atoms: C7_12  and  O3_15
REMARK    7  A    between atoms: C9_21  and  C10_22
REMARK    8  A    between atoms: N5_23  and  O5_25
REMARK    9  A    between atoms: C11_27  and  O6_28
ROOT
HETATM    1  C5  UNL     1      14.222   2.777   4.671  1.00  0.00     0.137 A
HETATM    2  C6  UNL     1      13.335   2.967   5.729  1.00  0.00     0.111 A
HETATM    3  C8  UNL     1      13.451   4.264   6.185  1.00  0.00     0.277 A
HETATM    4  O4  UNL     1      12.796   4.771   7.131  1.00  0.00    -0.266 OA
HETATM    5  N3  UNL     1      14.388   4.829   5.410  1.00  0.00    -0.250 N
HETATM    6  N4  UNL     1      14.844   3.958   4.518  1.00  0.00    -0.258 N
HETATM    7  C9  UNL     1      15.860   4.608   3.685  1.00  0.00     0.180 C
HETATM    8  C11 UNL     1      16.387   5.671   4.632  1.00  0.00     0.168 C
HETATM    9  C12 UNL     1      15.061   6.117   5.257  1.00  0.00     0.187 C
ENDROOT
BRANCH   1  10
HETATM   10  N2  UNL     1      14.372   1.563   3.958  1.00  0.00    -0.358 N
ATOM     11  H2  UNL     1      13.583   1.171   3.445  1.00  0.00     0.162 HD
BRANCH  10  12
HETATM   12  C4  UNL     1      15.641   0.883   3.959  1.00  0.00     0.251 C
BRANCH  12  13
HETATM   13  N1  UNL     1      15.495  -0.563   3.934  1.00  0.00    -0.326 N
HETATM   14  C1  UNL     1      15.305  -1.332   2.776  1.00  0.00     0.231 C
HETATM   15  O1  UNL     1      14.546  -1.059   1.773  1.00  0.00    -0.272 OA
HETATM   16  C2  UNL     1      16.095  -2.589   2.764  1.00  0.00     0.178 C
HETATM   17  S1  UNL     1      16.123  -2.963   4.552  1.00  0.00    -0.140 SA
HETATM   18  C3  UNL     1      15.531  -1.345   5.153  1.00  0.00     0.202 C
ENDBRANCH  12  13
ENDBRANCH  10  12
ENDBRANCH   1  10
BRANCH   2  19
HETATM   19  C7  UNL     1      12.383   1.983   6.325  1.00  0.00     0.297 C
BRANCH  19  20
HETATM   20  O2  UNL     1      11.271   1.833   5.519  1.00  0.00    -0.367 OA
ATOM     21  H2  UNL     1      10.609   1.309   5.955  1.00  0.00     0.213 HD
ENDBRANCH  19  20
BRANCH  19  22
HETATM   22  O3  UNL     1      13.057   0.762   6.490  1.00  0.00    -0.367 OA
ATOM     23  H3  UNL     1      12.612   0.265   7.167  1.00  0.00     0.213 HD
ENDBRANCH  19  22
ENDBRANCH   2  19
BRANCH   7  24
HETATM   24  C10 UNL     1      15.198   5.360   2.571  1.00  0.00     0.116 C
HETATM   25  N5  UNL     1      15.946   5.934   1.714  1.00  0.00    -0.282 N
ATOM     26  H5  UNL     1      16.957   5.857   1.825  1.00  0.00     0.192 HD
BRANCH  25  27
HETATM   27  O5  UNL     1      15.460   6.650   0.651  1.00  0.00    -0.290 OA
ATOM     28  H5  UNL     1      15.992   7.248   0.139  1.00  0.00     0.244 HD
ENDBRANCH  25  27
ENDBRANCH   7  24
BRANCH   8  29
HETATM   29  O6  UNL     1      16.991   6.726   3.953  1.00  0.00    -0.391 OA
ATOM     30  H6  UNL     1      16.354   7.334   3.595  1.00  0.00     0.210 HD
ENDBRANCH   8  29
TORSDOF 9
ENDMDL