MODEL 4
REMARK VINA RESULT: -8.069011055      2.838      3.923
REMARK  11 active torsions:
REMARK  status: ('A' for Active; 'I' for Inactive)
REMARK    1  A    between atoms: N1_9  and  C7_10
REMARK    2  A    between atoms: C7_10  and  C8_11
REMARK    3  A    between atoms: C8_11  and  O3_12
REMARK    4  A    between atoms: C8_11  and  C9_14
REMARK    5  A    between atoms: C9_14  and  O4_15
REMARK    6  A    between atoms: C9_14  and  C10_17
REMARK    7  A    between atoms: C10_17  and  O5_18
REMARK    8  A    between atoms: C10_17  and  C12_22
REMARK    9  A    between atoms: C12_22  and  O6_23
REMARK   10  A    between atoms: C12_22  and  C13_25
REMARK   11  A    between atoms: C13_25  and  O7_26
ROOT
HETATM    1  C10 UNL     1      11.597   4.880   4.463  1.00  0.00     0.202 C
HETATM    2  C11 UNL     1      10.843   3.595   4.397  1.00  0.00     0.103 C
HETATM    3  N2  UNL     1      10.238   2.607   4.345  1.00  0.00    -0.194 NA
ENDROOT
BRANCH   1   4
HETATM    4  C9  UNL     1      13.049   4.559   4.241  1.00  0.00     0.200 C
BRANCH   4   5
HETATM    5  C8  UNL     1      13.973   5.466   4.979  1.00  0.00     0.171 C
BRANCH   5   6
HETATM    6  C7  UNL     1      15.372   5.519   4.440  1.00  0.00     0.194 C
BRANCH   6   7
HETATM    7  N1  UNL     1      16.012   4.232   4.628  1.00  0.00    -0.211 N
HETATM    8  C6  UNL     1      17.336   4.020   4.724  1.00  0.00     0.286 A
HETATM    9  C5  UNL     1      17.508   2.663   4.897  1.00  0.00     0.144 A
HETATM   10  O2  UNL     1      18.240   4.892   4.666  1.00  0.00    -0.265 OA
HETATM   11  C4  UNL     1      18.581   1.826   5.054  1.00  0.00     0.195 A
HETATM   12  C14 UNL     1      16.255   2.096   4.899  1.00  0.00     0.232 A
HETATM   13  C3  UNL     1      18.373   0.466   5.208  1.00  0.00     0.088 A
HETATM   14  O1  UNL     1      19.731   2.326   5.054  1.00  0.00    -0.287 OA
HETATM   15  C2  UNL     1      17.073   0.006   5.195  1.00  0.00     0.056 A
HETATM   16  C1  UNL     1      16.875  -1.472   5.363  1.00  0.00     0.077 C
HETATM   17  O9  UNL     1      16.052   0.807   5.044  1.00  0.00    -0.290 OA
HETATM   18  O8  UNL     1      15.408   3.091   4.734  1.00  0.00    -0.205 OA
ENDBRANCH   6   7
ENDBRANCH   5   6
BRANCH   5  19
HETATM   19  O3  UNL     1      14.043   5.022   6.302  1.00  0.00    -0.391 OA
ATOM     20  H3  UNL     1      13.188   4.685   6.541  1.00  0.00     0.210 HD
ENDBRANCH   5  19
ENDBRANCH   4   5
BRANCH   4  21
HETATM   21  O4  UNL     1      13.371   4.370   2.918  1.00  0.00    -0.389 OA
ATOM     22  H4  UNL     1      13.610   5.164   2.453  1.00  0.00     0.210 HD
ENDBRANCH   4  21
ENDBRANCH   1   4
BRANCH   1  23
HETATM   23  O5  UNL     1      11.318   5.396   5.719  1.00  0.00    -0.371 OA
ATOM     24  H5  UNL     1      10.492   5.860   5.772  1.00  0.00     0.212 HD
ENDBRANCH   1  23
BRANCH   1  25
HETATM   25  C12 UNL     1      10.986   5.754   3.403  1.00  0.00     0.193 C
BRANCH  25  26
HETATM   26  O6  UNL     1      10.587   4.883   2.371  1.00  0.00    -0.389 OA
ATOM     27  H6  UNL     1      10.875   5.290   1.562  1.00  0.00     0.210 HD
ENDBRANCH  25  26
BRANCH  25  28
HETATM   28  C13 UNL     1       9.711   6.445   3.847  1.00  0.00     0.200 C
BRANCH  28  29
HETATM   29  O7  UNL     1       8.752   6.202   2.833  1.00  0.00    -0.398 OA
ATOM     30  H7  UNL     1       7.903   6.380   3.221  1.00  0.00     0.209 HD
ENDBRANCH  28  29
ENDBRANCH  25  28
ENDBRANCH   1  25
TORSDOF 11
ENDMDL