MODEL 2
REMARK VINA RESULT: -7.017301879      2.985      5.971
REMARK  11 active torsions:
REMARK  status: ('A' for Active; 'I' for Inactive)
REMARK    1  A    between atoms: C2_2  and  N1_3
REMARK    2  A    between atoms: C3_4  and  O1_5
REMARK    3  A    between atoms: C7_10  and  N2_11
REMARK    4  A    between atoms: C10_15  and  O2_16
REMARK    5  A    between atoms: N4_18  and  C11_19
REMARK    6  A    between atoms: C11_19  and  C12_20
REMARK    7  A    between atoms: C12_20  and  O3_21
REMARK    8  A    between atoms: C12_20  and  C13_23
REMARK    9  A    between atoms: C12_20  and  C14_26
REMARK   10  A    between atoms: C13_23  and  O4_24
REMARK   11  A    between atoms: C14_26  and  O5_27
ROOT
HETATM    1  N2  UNL     1      15.953   5.668   4.218  1.00  0.00    -0.284 N
HETATM    2  C8  UNL     1      15.859   5.889   2.793  1.00  0.00     0.169 C
HETATM    3  C9  UNL     1      17.021   6.247   4.905  1.00  0.00     0.184 C
HETATM    4  N3  UNL     1      17.929   6.726   5.474  1.00  0.00    -0.172 NA
ENDROOT
BRANCH   1   5
HETATM    5  C7  UNL     1      14.975   4.880   4.878  1.00  0.00     0.112 A
HETATM    6  C6  UNL     1      15.004   3.521   5.140  1.00  0.00     0.091 A
HETATM    7  C5  UNL     1      13.850   3.138   5.807  1.00  0.00     0.059 A
HETATM    8  C15 UNL     1      15.955   2.569   4.847  1.00  0.00     0.264 A
HETATM    9  C4  UNL     1      13.633   1.828   6.184  1.00  0.00     0.087 A
HETATM   10  N4  UNL     1      13.114   4.264   5.954  1.00  0.00    -0.322 N
HETATM   11  C3  UNL     1      14.612   0.909   5.870  1.00  0.00     0.147 A
HETATM   12  N1  UNL     1      15.746   1.291   5.213  1.00  0.00    -0.294 N
HETATM   13  C10 UNL     1      13.762   5.309   5.411  1.00  0.00     0.172 A
HETATM   14  O6  UNL     1      16.992   2.942   4.242  1.00  0.00    -0.267 OA
BRANCH  11  15
HETATM   15  O1  UNL     1      14.521  -0.439   6.191  1.00  0.00    -0.346 OA
ATOM     16  H1  UNL     1      14.095  -0.642   7.016  1.00  0.00     0.219 HD
ENDBRANCH  11  15
BRANCH  12  17
HETATM   17  C2  UNL     1      16.764   0.329   4.889  1.00  0.00     0.130 C
HETATM   18  C1  UNL     1      16.488  -0.379   3.581  1.00  0.00     0.027 C
ENDBRANCH  12  17
BRANCH  10  19
HETATM   19  C11 UNL     1      11.835   4.313   6.595  1.00  0.00     0.173 C
BRANCH  19  20
HETATM   20  C12 UNL     1      10.661   4.119   5.689  1.00  0.00     0.116 C
BRANCH  20  21
HETATM   21  O3  UNL     1       9.931   5.269   5.457  1.00  0.00    -0.384 OA
ATOM     22  H3  UNL     1       9.228   5.161   4.827  1.00  0.00     0.210 HD
ENDBRANCH  20  21
BRANCH  20  23
HETATM   23  C13 UNL     1       9.712   3.152   6.413  1.00  0.00     0.205 C
BRANCH  23  24
HETATM   24  O4  UNL     1      10.270   1.909   6.587  1.00  0.00    -0.398 OA
ATOM     25  H4  UNL     1      11.117   1.952   7.017  1.00  0.00     0.209 HD
ENDBRANCH  23  24
ENDBRANCH  20  23
BRANCH  20  26
HETATM   26  C14 UNL     1      11.039   3.525   4.348  1.00  0.00     0.205 C
BRANCH  26  27
HETATM   27  O5  UNL     1       9.936   2.903   3.774  1.00  0.00    -0.398 OA
ATOM     28  H5  UNL     1       9.134   3.258   4.141  1.00  0.00     0.209 HD
ENDBRANCH  26  27
ENDBRANCH  20  26
ENDBRANCH  19  20
ENDBRANCH  10  19
BRANCH  13  29
HETATM   29  O2  UNL     1      13.368   6.650   5.339  1.00  0.00    -0.344 OA
ATOM     30  H2  UNL     1      13.565   7.184   4.578  1.00  0.00     0.219 HD
ENDBRANCH  13  29
ENDBRANCH   1   5
TORSDOF 11
ENDMDL