MODEL 1
REMARK VINA RESULT: -8.295165170      0.000      0.000
REMARK  10 active torsions:
REMARK  status: ('A' for Active; 'I' for Inactive)
REMARK    1  A    between atoms: C1_2  and  O2_3
REMARK    2  A    between atoms: C1_2  and  C8_26
REMARK    3  A    between atoms: O2_3  and  N1_4
REMARK    4  A    between atoms: N1_4  and  C2_5
REMARK    5  A    between atoms: C2_5  and  O3_6
REMARK    6  A    between atoms: C2_5  and  C3_8
REMARK    7  A    between atoms: C3_8  and  C4_10
REMARK    8  A    between atoms: C4_10  and  C5_11
REMARK    9  A    between atoms: C4_10  and  C6_14
REMARK       I    between atoms: C6_14  and  N2_16
REMARK   10  A    between atoms: N2_16  and  C7_18
ROOT
HETATM    1  C4  UNL     1      12.157   4.518   4.736  1.00  0.00     0.253 C
ENDROOT
BRANCH   1   2
HETATM    2  C3  UNL     1      12.860   3.214   4.877  1.00  0.00     0.196 C
HETATM    3  O4  UNL     1      12.170   2.280   5.343  1.00  0.00    -0.292 OA
BRANCH   2   4
HETATM    4  C2  UNL     1      14.273   2.950   4.510  1.00  0.00     0.310 C
BRANCH   4   5
HETATM    5  N1  UNL     1      14.382   1.517   4.292  1.00  0.00    -0.051 NA
BRANCH   5   6
HETATM    6  O2  UNL     1      15.645   1.109   4.014  1.00  0.00    -0.200 OA
BRANCH   6   7
HETATM    7  C1  UNL     1      16.409   0.262   4.776  1.00  0.00     0.313 C
HETATM    8  O1  UNL     1      15.908  -0.835   5.112  1.00  0.00    -0.258 OA
BRANCH   7   9
HETATM    9  C8  UNL     1      17.764   0.656   5.170  1.00  0.00     0.065 A
HETATM   10  C9  UNL     1      18.741  -0.185   5.659  1.00  0.00     0.044 A
HETATM   11  C10 UNL     1      19.876   0.595   5.907  1.00  0.00     0.142 A
HETATM   12  O8  UNL     1      19.588   1.817   5.585  1.00  0.00    -0.334 OA
HETATM   13  C11 UNL     1      18.338   1.909   5.139  1.00  0.00     0.159 A
ENDBRANCH   7   9
ENDBRANCH   6   7
ENDBRANCH   5   6
ENDBRANCH   4   5
BRANCH   4  14
HETATM   14  O3  UNL     1      15.096   3.381   5.537  1.00  0.00    -0.371 OA
ATOM     15  H3  UNL     1      14.636   3.943   6.148  1.00  0.00     0.212 HD
ENDBRANCH   4  14
ENDBRANCH   2   4
ENDBRANCH   1   2
BRANCH   1  16
HETATM   16  C5  UNL     1      12.151   5.245   6.001  1.00  0.00     0.194 C
HETATM   17  O5  UNL     1      11.259   6.128   6.195  1.00  0.00    -0.647 OA
HETATM   18  O6  UNL     1      13.096   4.991   6.986  1.00  0.00    -0.647 OA
ENDBRANCH   1  16
BRANCH   1  19
HETATM   19  C6  UNL     1      12.801   5.299   3.663  1.00  0.00     0.258 C
HETATM   20  O7  UNL     1      12.734   4.959   2.474  1.00  0.00    -0.271 OA
HETATM   21  N2  UNL     1      13.513   6.467   4.001  1.00  0.00    -0.156 N
ATOM     22  H2  UNL     1      12.997   7.337   4.131  1.00  0.00     0.187 HD
BRANCH  21  23
HETATM   23  C7  UNL     1      14.791   6.476   4.150  1.00  0.00     0.713 A
HETATM   24  N3  UNL     1      15.697   6.726   3.198  1.00  0.00    -0.118 N
HETATM   25  N4  UNL     1      16.881   6.635   3.769  1.00  0.00    -0.212 N
ATOM     26  H3  UNL     1      15.509   6.944   2.220  1.00  0.00     0.207 HD
HETATM   27  N5  UNL     1      16.707   6.336   5.044  1.00  0.00     0.009 NA
ATOM     28  H4  UNL     1      17.779   6.773   3.305  1.00  0.00     0.206 HD
HETATM   29  N6  UNL     1      15.416   6.234   5.297  1.00  0.00    -0.113 N
ATOM     30  H6  UNL     1      14.983   6.014   6.194  1.00  0.00     0.203 HD
ENDBRANCH  21  23
ENDBRANCH   1  19
TORSDOF 10
ENDMDL