MODEL 1
REMARK VINA RESULT: -7.431415644      0.000      0.000
REMARK  11 active torsions:
REMARK  status: ('A' for Active; 'I' for Inactive)
REMARK    1  A    between atoms: O1_2  and  C2_3
REMARK    2  A    between atoms: C2_3  and  O2_4
REMARK    3  A    between atoms: C3_8  and  O5_9
REMARK    4  A    between atoms: C3_8  and  O8_19
REMARK    5  A    between atoms: O5_9  and  C4_10
REMARK    6  A    between atoms: C4_10  and  C5_12
REMARK    7  A    between atoms: C6_13  and  C7_14
REMARK    8  A    between atoms: C7_14  and  O7_17
REMARK    9  A    between atoms: O8_19  and  C10_20
REMARK   10  A    between atoms: C13_23  and  O9_24
REMARK   11  A    between atoms: C14_26  and  O10_27
ROOT
HETATM    1  C2  UNL     1      11.491   5.548   3.856  1.00  0.00     0.338 C
HETATM    2  O3  UNL     1      12.424   4.735   3.210  1.00  0.00    -0.163 OA
HETATM    3  O4  UNL     1      13.625   4.896   3.661  1.00  0.00    -0.162 OA
HETATM    4  C3  UNL     1      13.832   4.265   4.902  1.00  0.00     0.348 C
HETATM    5  C13 UNL     1      12.743   4.800   5.803  1.00  0.00     0.251 C
HETATM    6  C14 UNL     1      12.189   6.039   5.120  1.00  0.00     0.250 C
ENDROOT
BRANCH   4   7
HETATM    7  O5  UNL     1      13.775   2.908   4.658  1.00  0.00    -0.251 OA
BRANCH   7   8
HETATM    8  C4  UNL     1      13.952   1.884   5.533  1.00  0.00     0.287 C
HETATM    9  O6  UNL     1      13.040   1.639   6.319  1.00  0.00    -0.260 OA
BRANCH   8  10
HETATM   10  C5  UNL     1      15.174   1.113   5.533  1.00  0.00     0.081 C
HETATM   11  C6  UNL     1      15.926   0.953   4.460  1.00  0.00     0.016 C
BRANCH  11  12
HETATM   12  C7  UNL     1      17.157   0.143   4.567  1.00  0.00     0.069 C
HETATM   13  C8  UNL     1      16.829  -1.123   5.316  1.00  0.00     0.050 C
HETATM   14  C9  UNL     1      18.291   0.888   5.220  1.00  0.00     0.050 C
BRANCH  12  15
HETATM   15  O7  UNL     1      17.597  -0.208   3.271  1.00  0.00    -0.387 OA
ATOM     16  H7  UNL     1      18.035   0.537   2.877  1.00  0.00     0.211 HD
ENDBRANCH  12  15
ENDBRANCH  11  12
ENDBRANCH   8  10
ENDBRANCH   7   8
ENDBRANCH   4   7
BRANCH   4  17
HETATM   17  O8  UNL     1      15.005   4.762   5.373  1.00  0.00    -0.324 OA
BRANCH  17  18
HETATM   18  C10 UNL     1      15.979   5.152   4.551  1.00  0.00     0.119 C
HETATM   19  C11 UNL     1      16.330   6.604   4.858  1.00  0.00     0.039 C
HETATM   20  C12 UNL     1      17.241   4.383   4.487  1.00  0.00     0.039 C
ENDBRANCH  17  18
ENDBRANCH   4  17
BRANCH   5  21
HETATM   21  O9  UNL     1      13.261   5.253   7.026  1.00  0.00    -0.384 OA
ATOM     22  H9  UNL     1      12.712   4.991   7.756  1.00  0.00     0.210 HD
ENDBRANCH   5  21
BRANCH   6  23
HETATM   23  O10 UNL     1      11.302   6.720   5.945  1.00  0.00    -0.384 OA
ATOM     24  H10 UNL     1      10.874   7.426   5.474  1.00  0.00     0.210 HD
ENDBRANCH   6  23
BRANCH   1  25
HETATM   25  O1  UNL     1      10.376   4.825   4.270  1.00  0.00    -0.334 OA
HETATM   26  C1  UNL     1      10.321   3.566   3.675  1.00  0.00     0.208 C
ENDBRANCH   1  25
BRANCH   1  27
HETATM   27  O2  UNL     1      11.123   6.634   3.045  1.00  0.00    -0.339 OA
ATOM     28  H2  UNL     1      10.603   6.350   2.303  1.00  0.00     0.215 HD
ENDBRANCH   1  27
TORSDOF 11
ENDMDL