MODEL 2
REMARK VINA RESULT: -8.953399716      1.586      2.045
REMARK  7 active torsions:
REMARK  status: ('A' for Active; 'I' for Inactive)
REMARK    1  A    between atoms: C2_7  and  C3_8
REMARK    2  A    between atoms: C4_10  and  O2_11
REMARK    3  A    between atoms: N3_13  and  C5_14
REMARK    4  A    between atoms: C5_14  and  O3_15
REMARK    5  A    between atoms: O3_15  and  N4_16
REMARK    6  A    between atoms: N5_20  and  O4_21
REMARK    7  A    between atoms: O4_21  and  S1_22
ROOT
HETATM    1  N4  UNL     1      15.775   1.730   3.699  1.00  0.00    -0.250 N
ATOM      2  H4  UNL     1      16.792   1.788   3.647  1.00  0.00     0.196 HD
HETATM    3  C6  UNL     1      15.090   2.675   4.291  1.00  0.00     0.136 C
HETATM    4  C7  UNL     1      13.613   2.586   4.364  1.00  0.00     0.240 C
HETATM    5  N5  UNL     1      13.168   3.240   5.591  1.00  0.00    -0.202 N
HETATM    6  C8  UNL     1      13.865   4.353   6.140  1.00  0.00     0.231 C
HETATM    7  N6  UNL     1      13.202   5.200   7.094  1.00  0.00    -0.060 NA
HETATM    8  N7  UNL     1      15.079   4.615   5.798  1.00  0.00    -0.270 N
ATOM      9  H7  UNL     1      15.560   5.417   6.202  1.00  0.00     0.189 HD
HETATM   10  N8  UNL     1      15.735   3.800   4.873  1.00  0.00    -0.284 N
ATOM     11  H8  UNL     1      16.696   4.016   4.609  1.00  0.00     0.188 HD
ENDROOT
BRANCH   1  12
HETATM   12  O3  UNL     1      15.115   0.658   3.148  1.00  0.00    -0.258 OA
BRANCH  12  13
HETATM   13  C5  UNL     1      15.278  -0.597   3.734  1.00  0.00     0.353 C
BRANCH  13  14
HETATM   14  N3  UNL     1      16.022  -1.488   2.853  1.00  0.00    -0.136 N
HETATM   15  C1  UNL     1      15.580  -2.589   2.201  1.00  0.00     0.682 A
HETATM   16  N1  UNL     1      14.354  -3.003   2.299  1.00  0.00    -0.234 N
HETATM   17  N2  UNL     1      16.591  -3.124   1.490  1.00  0.00    -0.184 N
ATOM     18  H12 UNL     1      14.021  -3.833   1.807  1.00  0.00     0.174 HD
ATOM     19  H11 UNL     1      13.588  -2.598   2.837  1.00  0.00     0.174 HD
HETATM   20  C2  UNL     1      17.696  -2.380   1.670  1.00  0.00     0.138 A
ATOM     21  H2  UNL     1      16.529  -3.959   0.907  1.00  0.00     0.184 HD
HETATM   22  C4  UNL     1      17.329  -1.369   2.518  1.00  0.00     0.191 A
BRANCH  20  23
HETATM   23  C3  UNL     1      19.007  -2.617   1.077  1.00  0.00     0.293 C
HETATM   24  O1  UNL     1      20.061  -2.139   1.526  1.00  0.00    -0.300 OA
ENDBRANCH  20  23
BRANCH  22  25
HETATM   25  O2  UNL     1      18.182  -0.350   2.978  1.00  0.00    -0.344 OA
ATOM     26  H2  UNL     1      18.203   0.539   2.644  1.00  0.00     0.219 HD
ENDBRANCH  22  25
ENDBRANCH  13  14
ENDBRANCH  12  13
ENDBRANCH   1  12
BRANCH   5  27
HETATM   27  O4  UNL     1      12.059   2.788   6.239  1.00  0.00    -0.127 OA
BRANCH  27  28
HETATM   28  S1  UNL     1      10.716   3.371   5.376  1.00  0.00     0.274 S
HETATM   29  O5  UNL     1      10.159   2.276   4.507  1.00  0.00    -0.571 OA
HETATM   30  O6  UNL     1       9.648   3.744   6.371  1.00  0.00    -0.571 OA
HETATM   31  O7  UNL     1      11.134   4.717   4.460  1.00  0.00    -0.571 OA
ENDBRANCH  27  28
ENDBRANCH   5  27
TORSDOF 7
ENDMDL