MODEL 5
REMARK VINA RESULT: -8.090000554      1.137      1.526
REMARK  12 active torsions:
REMARK  status: ('A' for Active; 'I' for Inactive)
REMARK    1  A    between atoms: N1_1  and  C1_4
REMARK    2  A    between atoms: N3_7  and  C2_8
REMARK    3  A    between atoms: C2_8  and  O1_9
REMARK    4  A    between atoms: C2_8  and  C3_11
REMARK    5  A    between atoms: C3_11  and  O2_12
REMARK    6  A    between atoms: C3_11  and  C4_14
REMARK    7  A    between atoms: C4_14  and  O3_15
REMARK    8  A    between atoms: C5_17  and  N4_18
REMARK    9  A    between atoms: N4_18  and  N5_20
REMARK   10  A    between atoms: C6_22  and  C7_23
REMARK   11  A    between atoms: C11_27  and  N6_28
REMARK   12  A    between atoms: N7_32  and  N8_33
ROOT
HETATM    1  C1  UNL     1      13.761   5.925   2.187  1.00  0.00     0.727 A
HETATM    2  N2  UNL     1      12.822   5.037   2.518  1.00  0.00    -0.107 N
ATOM      3  H2  UNL     1      11.982   4.833   1.977  1.00  0.00     0.207 HD
HETATM    4  N3  UNL     1      13.163   4.455   3.678  1.00  0.00    -0.047 N
HETATM    5  C5  UNL     1      14.331   5.021   4.030  1.00  0.00     0.756 A
HETATM    6  N7  UNL     1      14.724   5.949   3.105  1.00  0.00     0.087 N
ENDROOT
BRANCH   5   7
HETATM    7  N4  UNL     1      15.025   4.768   5.077  1.00  0.00    -0.128 N
ATOM      8  H4  UNL     1      15.084   5.468   5.818  1.00  0.00     0.205 HD
BRANCH   7   9
HETATM    9  N5  UNL     1      15.697   3.571   5.226  1.00  0.00    -0.297 N
HETATM   10  C6  UNL     1      16.899   3.372   4.798  1.00  0.00     0.119 C
ATOM     11  H5  UNL     1      15.218   2.803   5.698  1.00  0.00     0.186 HD
BRANCH  10  12
HETATM   12  C7  UNL     1      17.552   2.094   4.982  1.00  0.00    -0.017 A
HETATM   13  C8  UNL     1      18.895   2.052   5.259  1.00  0.00     0.013 A
HETATM   14  C9  UNL     1      19.538   0.839   5.438  1.00  0.00     0.003 A
HETATM   15  C10 UNL     1      18.835  -0.351   5.342  1.00  0.00     0.036 A
HETATM   16  C11 UNL     1      17.465  -0.301   5.062  1.00  0.00     0.103 A
HETATM   17  C12 UNL     1      16.844   0.901   4.887  1.00  0.00     0.048 A
BRANCH  16  18
HETATM   18  N6  UNL     1      16.759  -1.531   4.967  1.00  0.00    -0.116 N
HETATM   19  O4  UNL     1      17.350  -2.618   4.911  1.00  0.00    -0.532 OA
HETATM   20  O5  UNL     1      15.397  -1.495   4.939  1.00  0.00    -0.532 OA
ENDBRANCH  16  18
ENDBRANCH  10  12
ENDBRANCH   7   9
ENDBRANCH   5   7
BRANCH   4  21
HETATM   21  C2  UNL     1      12.362   3.474   4.280  1.00  0.00     0.187 C
BRANCH  21  22
HETATM   22  O1  UNL     1      12.997   2.388   4.645  1.00  0.00    -0.346 OA
ATOM     23  H1  UNL     1      13.001   1.689   4.001  1.00  0.00     0.219 HD
ENDBRANCH  21  22
BRANCH  21  24
HETATM   24  C3  UNL     1      10.946   3.414   4.591  1.00  0.00     0.218 C
BRANCH  24  25
HETATM   25  O2  UNL     1      10.250   2.272   4.483  1.00  0.00    -0.385 OA
ATOM     26  H2  UNL     1      10.266   1.752   3.689  1.00  0.00     0.210 HD
ENDBRANCH  24  25
BRANCH  24  27
HETATM   27  C4  UNL     1      10.644   4.047   5.961  1.00  0.00     0.204 C
BRANCH  27  28
HETATM   28  O3  UNL     1      11.766   4.153   6.740  1.00  0.00    -0.398 OA
ATOM     29  H3  UNL     1      11.677   3.685   7.562  1.00  0.00     0.209 HD
ENDBRANCH  27  28
ENDBRANCH  24  27
ENDBRANCH  21  24
ENDBRANCH   4  21
BRANCH   6  30
HETATM   30  N8  UNL     1      15.882   6.726   3.147  1.00  0.00    -0.309 N
ATOM     31  H82 UNL     1      16.687   6.653   2.524  1.00  0.00     0.178 HD
ATOM     32  H81 UNL     1      16.127   7.483   3.787  1.00  0.00     0.178 HD
ENDBRANCH   6  30
BRANCH   1  33
HETATM   33  N1  UNL     1      13.762   6.675   1.125  1.00  0.00    -0.231 N
ATOM     34  H12 UNL     1      13.404   6.371   0.219  1.00  0.00     0.174 HD
ATOM     35  H11 UNL     1      14.111   7.631   1.068  1.00  0.00     0.174 HD
ENDBRANCH   1  33
TORSDOF 12
ENDMDL