MODEL 5
REMARK VINA RESULT: -7.593521199      2.929      4.747
REMARK  12 active torsions:
REMARK  status: ('A' for Active; 'I' for Inactive)
REMARK    1  A    between atoms: C2_2  and  N1_3
REMARK    2  A    between atoms: N1_3  and  C3_5
REMARK    3  A    between atoms: C4_8  and  N3_9
REMARK    4  A    between atoms: N3_9  and  O1_10
REMARK    5  A    between atoms: N3_9  and  C5_12
REMARK    6  A    between atoms: C5_12  and  C6_13
REMARK    7  A    between atoms: C6_13  and  N4_14
REMARK    8  A    between atoms: C7_21  and  N8_22
REMARK    9  A    between atoms: C8_25  and  N9_26
REMARK   10  A    between atoms: C9_29  and  N10_30
REMARK   11  A    between atoms: N10_30  and  C10_32
REMARK   12  A    between atoms: C10_32  and  O4_34
ROOT
HETATM    1  C3  UNL     1      14.004   0.365   6.384  1.00  0.00     0.681 A
HETATM    2  N2  UNL     1      13.401   1.564   6.305  1.00  0.00    -0.172 N
ATOM      3  H2  UNL     1      12.562   1.731   6.862  1.00  0.00     0.186 HD
HETATM    4  C4  UNL     1      13.864   2.553   5.518  1.00  0.00     0.180 A
HETATM    5  C8  UNL     1      14.996   2.263   4.796  1.00  0.00     0.193 A
HETATM    6  C9  UNL     1      15.621   1.024   4.876  1.00  0.00     0.156 A
HETATM    7  N11 UNL     1      15.112   0.090   5.673  1.00  0.00    -0.174 N
ATOM      8  H11 UNL     1      15.557  -0.825   5.745  1.00  0.00     0.186 HD
ENDROOT
BRANCH   4   9
HETATM    9  N3  UNL     1      13.287   3.827   5.384  1.00  0.00    -0.240 N
BRANCH   9  10
HETATM   10  O1  UNL     1      12.377   3.977   4.370  1.00  0.00    -0.286 OA
ATOM     11  H1  UNL     1      12.733   4.164   3.509  1.00  0.00     0.244 HD
ENDBRANCH   9  10
BRANCH   9  12
HETATM   12  C5  UNL     1      13.586   4.953   6.225  1.00  0.00     0.180 C
BRANCH  12  13
HETATM   13  C6  UNL     1      13.389   6.280   5.512  1.00  0.00     0.192 C
BRANCH  13  14
HETATM   14  N4  UNL     1      14.561   6.459   4.670  1.00  0.00    -0.106 N
HETATM   15  N5  UNL     1      15.827   6.585   5.048  1.00  0.00    -0.211 N
HETATM   16  N6  UNL     1      16.606   6.726   4.007  1.00  0.00    -0.213 N
ATOM     17  H5  UNL     1      16.148   6.573   6.016  1.00  0.00     0.210 HD
HETATM   18  N7  UNL     1      15.874   6.697   2.924  1.00  0.00    -0.115 N
ATOM     19  H6  UNL     1      17.619   6.841   4.036  1.00  0.00     0.210 HD
HETATM   20  C7  UNL     1      14.599   6.531   3.324  1.00  0.00     0.709 A
ATOM     21  H7  UNL     1      16.204   6.783   1.963  1.00  0.00     0.207 HD
BRANCH  20  22
HETATM   22  N8  UNL     1      13.570   6.450   2.581  1.00  0.00    -0.232 N
ATOM     23  H82 UNL     1      13.475   5.909   1.721  1.00  0.00     0.174 HD
ATOM     24  H81 UNL     1      12.692   6.934   2.771  1.00  0.00     0.174 HD
ENDBRANCH  20  22
ENDBRANCH  13  14
ENDBRANCH  12  13
ENDBRANCH   9  12
ENDBRANCH   4   9
BRANCH   5  25
HETATM   25  N9  UNL     1      15.552   3.233   3.950  1.00  0.00    -0.108 N
HETATM   26  O2  UNL     1      16.598   3.846   4.208  1.00  0.00    -0.531 OA
HETATM   27  O3  UNL     1      14.907   3.520   2.776  1.00  0.00    -0.531 OA
ENDBRANCH   5  25
BRANCH   1  28
HETATM   28  N1  UNL     1      13.539  -0.559   7.141  1.00  0.00    -0.226 N
ATOM     29  H1  UNL     1      12.711  -0.399   7.715  1.00  0.00     0.177 HD
BRANCH  28  30
HETATM   30  C2  UNL     1      14.220  -1.835   7.160  1.00  0.00     0.133 C
HETATM   31  C1  UNL     1      14.429  -2.255   8.619  1.00  0.00     0.027 C
ENDBRANCH  28  30
ENDBRANCH   1  28
BRANCH   6  32
HETATM   32  N10 UNL     1      16.677   0.769   4.194  1.00  0.00    -0.348 N
ATOM     33  H10 UNL     1      16.595   0.687   3.180  1.00  0.00     0.163 HD
BRANCH  32  34
HETATM   34  C10 UNL     1      17.959   0.595   4.794  1.00  0.00     0.215 C
HETATM   35  C11 UNL     1      18.775  -0.355   3.941  1.00  0.00     0.063 C
BRANCH  34  36
HETATM   36  O4  UNL     1      18.639   1.814   4.775  1.00  0.00    -0.377 OA
ATOM     37  H4  UNL     1      18.007   2.522   4.801  1.00  0.00     0.212 HD
ENDBRANCH  34  36
ENDBRANCH  32  34
ENDBRANCH   6  32
TORSDOF 12
ENDMDL