MODEL 5
REMARK VINA RESULT: -8.221366173      2.409      3.371
REMARK  10 active torsions:
REMARK  status: ('A' for Active; 'I' for Inactive)
REMARK    1  A    between atoms: N1_1  and  N2_4
REMARK    2  A    between atoms: C1_9  and  C2_10
REMARK       I    between atoms: C2_10  and  N5_12
REMARK    3  A    between atoms: N5_12  and  N6_14
REMARK    4  A    between atoms: C3_16  and  C4_17
REMARK    5  A    between atoms: C7_20  and  N7_21
REMARK    6  A    between atoms: C8_25  and  C9_26
REMARK    7  A    between atoms: C9_26  and  O5_27
REMARK    8  A    between atoms: C9_26  and  N8_29
REMARK    9  A    between atoms: N8_29  and  N9_31
REMARK   10  A    between atoms: N9_31  and  C10_33
ROOT
HETATM    1  N2  UNL     1      13.151   6.204   4.247  1.00  0.00    -0.182 N
HETATM    2  N3  UNL     1      13.851   6.692   3.257  1.00  0.00    -0.221 N
ATOM      3  H3  UNL     1      13.490   7.359   2.575  1.00  0.00     0.210 HD
HETATM    4  N4  UNL     1      15.063   6.224   3.246  1.00  0.00    -0.277 N
ATOM      5  H4  UNL     1      15.784   6.463   2.565  1.00  0.00     0.189 HD
HETATM    6  C1  UNL     1      15.220   5.343   4.315  1.00  0.00     0.153 A
HETATM    7  C8  UNL     1      14.000   5.342   4.928  1.00  0.00     0.161 A
ENDROOT
BRANCH   6   8
HETATM    8  C2  UNL     1      16.490   4.688   4.546  1.00  0.00     0.290 C
HETATM    9  O1  UNL     1      17.478   5.507   4.705  1.00  0.00    -0.264 OA
HETATM   10  N5  UNL     1      16.777   3.332   4.629  1.00  0.00    -0.265 N
ATOM     11  H5  UNL     1      15.999   2.683   4.511  1.00  0.00     0.190 HD
BRANCH  10  12
HETATM   12  N6  UNL     1      18.030   2.782   4.860  1.00  0.00    -0.306 N
HETATM   13  C3  UNL     1      18.218   1.552   5.177  1.00  0.00     0.144 C
ATOM     14  H6  UNL     1      18.847   3.387   4.773  1.00  0.00     0.186 HD
BRANCH  13  15
HETATM   15  C4  UNL     1      19.586   1.060   5.401  1.00  0.00     0.095 A
HETATM   16  C5  UNL     1      19.924  -0.126   6.030  1.00  0.00     0.043 A
HETATM   17  C6  UNL     1      21.300  -0.233   6.048  1.00  0.00     0.065 A
HETATM   18  C7  UNL     1      21.747   0.914   5.416  1.00  0.00     0.215 A
HETATM   19  O4  UNL     1      20.711   1.633   5.059  1.00  0.00    -0.287 OA
BRANCH  18  20
HETATM   20  N7  UNL     1      23.132   1.198   5.224  1.00  0.00    -0.090 N
HETATM   21  O2  UNL     1      23.849   0.585   4.443  1.00  0.00    -0.530 OA
HETATM   22  O3  UNL     1      23.677   2.221   5.966  1.00  0.00    -0.530 OA
ENDBRANCH  18  20
ENDBRANCH  13  15
ENDBRANCH  10  12
ENDBRANCH   6   8
BRANCH   7  23
HETATM   23  C9  UNL     1      13.543   4.621   6.076  1.00  0.00     0.188 C
BRANCH  23  24
HETATM   24  O5  UNL     1      13.296   5.312   7.154  1.00  0.00    -0.343 OA
ATOM     25  H5  UNL     1      13.193   4.828   7.965  1.00  0.00     0.219 HD
ENDBRANCH  23  24
BRANCH  23  26
HETATM   26  N8  UNL     1      13.298   3.260   6.245  1.00  0.00    -0.276 N
ATOM     27  H8  UNL     1      14.071   2.632   6.470  1.00  0.00     0.189 HD
BRANCH  26  28
HETATM   28  N9  UNL     1      11.968   2.728   6.105  1.00  0.00    -0.275 N
ATOM     29  H9  UNL     1      11.568   2.146   6.841  1.00  0.00     0.189 HD
BRANCH  28  30
HETATM   30  C10 UNL     1      11.216   3.018   4.941  1.00  0.00     0.368 C
HETATM   31  O6  UNL     1      10.249   2.270   4.660  1.00  0.00    -0.282 OA
ENDBRANCH  28  30
ENDBRANCH  26  28
ENDBRANCH  23  26
ENDBRANCH   7  23
BRANCH   1  32
HETATM   32  N1  UNL     1      11.808   6.483   4.572  1.00  0.00    -0.322 N
ATOM     33  H12 UNL     1      11.143   7.001   3.999  1.00  0.00     0.179 HD
ATOM     34  H11 UNL     1      11.302   6.215   5.417  1.00  0.00     0.179 HD
ENDBRANCH   1  32
TORSDOF 10
ENDMDL