MODEL 4
REMARK VINA RESULT: -6.944507574      2.094      2.720
REMARK  14 active torsions:
REMARK  status: ('A' for Active; 'I' for Inactive)
REMARK    1  A    between atoms: C2_2  and  O2_4
REMARK    2  A    between atoms: O2_4  and  C3_5
REMARK    3  A    between atoms: C3_5  and  C4_6
REMARK    4  A    between atoms: C3_5  and  C6_12
REMARK    5  A    between atoms: C4_6  and  O3_7
REMARK    6  A    between atoms: C4_6  and  C5_9
REMARK    7  A    between atoms: C5_9  and  O4_10
REMARK    8  A    between atoms: C6_12  and  O5_13
REMARK    9  A    between atoms: C6_12  and  C7_15
REMARK   10  A    between atoms: C7_15  and  O6_16
REMARK   11  A    between atoms: C7_15  and  C8_18
REMARK   12  A    between atoms: C8_18  and  N1_19
REMARK   13  A    between atoms: N1_19  and  C9_21
REMARK   14  A    between atoms: C12_26  and  O7_27
ROOT
HETATM    1  C9  UNL     1      15.484  -1.204   4.248  1.00  0.00     0.149 A
HETATM    2  S1  UNL     1      15.552  -1.266   2.544  1.00  0.00    -0.039 SA
HETATM    3  C10 UNL     1      15.493  -2.959   2.356  1.00  0.00     0.139 A
HETATM    4  C11 UNL     1      15.512  -3.753   1.133  1.00  0.00     0.111 C
HETATM    5  N2  UNL     1      15.523  -4.376   0.157  1.00  0.00    -0.191 NA
HETATM    6  C12 UNL     1      15.423  -3.388   3.648  1.00  0.00     0.172 A
HETATM    7  N3  UNL     1      15.420  -2.486   4.600  1.00  0.00    -0.311 N
HETATM    8  C13 UNL     1      15.347  -2.818   6.049  1.00  0.00     0.160 C
ENDROOT
BRANCH   6   9
HETATM    9  O7  UNL     1      15.359  -4.789   3.901  1.00  0.00    -0.344 OA
ATOM     10  H7  UNL     1      15.092  -5.085   4.763  1.00  0.00     0.219 HD
ENDBRANCH   6   9
BRANCH   1  11
HETATM   11  N1  UNL     1      15.492  -0.154   5.049  1.00  0.00    -0.368 N
ATOM     12  H1  UNL     1      14.849  -0.107   5.840  1.00  0.00     0.161 HD
BRANCH  11  13
HETATM   13  C8  UNL     1      16.419   0.929   4.797  1.00  0.00     0.156 C
BRANCH  13  14
HETATM   14  C7  UNL     1      15.705   2.282   4.906  1.00  0.00     0.167 C
BRANCH  14  15
HETATM   15  C6  UNL     1      14.441   2.354   4.093  1.00  0.00     0.180 C
BRANCH  15  16
HETATM   16  C3  UNL     1      13.606   3.533   4.444  1.00  0.00     0.194 C
BRANCH  16  17
HETATM   17  O2  UNL     1      12.312   3.151   4.920  1.00  0.00    -0.311 OA
BRANCH  17  18
HETATM   18  C2  UNL     1      11.146   3.246   4.229  1.00  0.00     0.255 C
HETATM   19  C1  UNL     1      10.829   4.294   3.237  1.00  0.00     0.126 C
HETATM   20  O1  UNL     1      10.269   2.376   4.450  1.00  0.00    -0.266 OA
ENDBRANCH  17  18
ENDBRANCH  16  17
BRANCH  16  21
HETATM   21  C4  UNL     1      14.158   4.653   5.234  1.00  0.00     0.173 C
BRANCH  21  22
HETATM   22  O3  UNL     1      14.727   5.603   4.277  1.00  0.00    -0.391 OA
ATOM     23  H3  UNL     1      15.128   6.297   4.787  1.00  0.00     0.210 HD
ENDBRANCH  21  22
BRANCH  21  24
HETATM   24  C5  UNL     1      13.180   5.512   5.972  1.00  0.00     0.198 C
BRANCH  24  25
HETATM   25  O4  UNL     1      12.810   5.057   7.224  1.00  0.00    -0.398 OA
ATOM     26  H4  UNL     1      12.348   5.683   7.769  1.00  0.00     0.209 HD
ENDBRANCH  24  25
ENDBRANCH  21  24
ENDBRANCH  16  21
ENDBRANCH  15  16
BRANCH  15  27
HETATM   27  O5  UNL     1      14.964   2.752   2.788  1.00  0.00    -0.390 OA
ATOM     28  H5  UNL     1      14.323   2.365   2.204  1.00  0.00     0.210 HD
ENDBRANCH  15  27
ENDBRANCH  14  15
BRANCH  14  29
HETATM   29  O6  UNL     1      16.695   3.126   4.286  1.00  0.00    -0.391 OA
ATOM     30  H6  UNL     1      16.265   3.912   3.971  1.00  0.00     0.210 HD
ENDBRANCH  14  29
ENDBRANCH  13  14
ENDBRANCH  11  13
ENDBRANCH   1  11
TORSDOF 14
ENDMDL