MODEL 2
REMARK VINA RESULT: -6.397787421      3.900      6.893
REMARK  6 active torsions:
REMARK  status: ('A' for Active; 'I' for Inactive)
REMARK    1  A    between atoms: C2_2  and  S1_4
REMARK    2  A    between atoms: S1_4  and  C4_5
REMARK    3  A    between atoms: C6_7  and  S2_8
REMARK    4  A    between atoms: S2_8  and  C7_9
REMARK    5  A    between atoms: C10_17  and  O1_18
REMARK    6  A    between atoms: C11_20  and  O2_21
ROOT
HETATM    1  C4  UNL     1      -2.967   1.721  10.983  1.00  0.00     0.085 C
HETATM    2  C5  UNL     1      -3.624   2.353  12.127  1.00  0.00     0.036 C
HETATM    3  C6  UNL     1      -3.865   1.477  13.348  1.00  0.00     0.088 C
HETATM    4  C10 UNL     1      -4.422   0.162  12.882  1.00  0.00     0.164 C
HETATM    5  C11 UNL     1      -3.311  -0.477  12.032  1.00  0.00     0.183 C
HETATM    6  C12 UNL     1      -3.328   0.267  10.739  1.00  0.00     0.215 C
HETATM    7  F1  UNL     1      -4.599   0.172  10.182  1.00  0.00    -0.245 F
ENDROOT
BRANCH   3   8
HETATM    8  S2  UNL     1      -4.981   2.426  14.392  1.00  0.00    -0.085 SA
BRANCH   8   9
HETATM    9  C7  UNL     1      -5.426   1.620  15.909  1.00  0.00     0.162 A
HETATM   10  N1  UNL     1      -5.070   0.427  16.393  1.00  0.00    -0.279 N
HETATM   11  N2  UNL     1      -5.662   0.275  17.553  1.00  0.00    -0.294 N
ATOM     12  H1  UNL     1      -4.449  -0.245  15.941  1.00  0.00     0.189 HD
HETATM   13  C8  UNL     1      -6.403   1.356  17.833  1.00  0.00     0.201 A
ATOM     14  H2  UNL     1      -5.573  -0.545  18.153  1.00  0.00     0.187 HD
HETATM   15  N3  UNL     1      -6.252   2.197  16.800  1.00  0.00    -0.326 N
HETATM   16  C9  UNL     1      -6.891   3.515  16.691  1.00  0.00     0.159 C
ENDBRANCH   8   9
ENDBRANCH   3   8
BRANCH   4  17
HETATM   17  O1  UNL     1      -4.704  -0.733  13.868  1.00  0.00    -0.392 OA
ATOM     18  H1  UNL     1      -5.155  -1.520  13.586  1.00  0.00     0.210 HD
ENDBRANCH   4  17
BRANCH   1  19
HETATM   19  S1  UNL     1      -1.193   1.941  10.819  1.00  0.00    -0.157 SA
BRANCH  19  20
HETATM   20  C2  UNL     1      -0.686   3.560  10.249  1.00  0.00     0.039 C
HETATM   21  C1  UNL     1      -0.374   4.453  11.451  1.00  0.00     0.021 C
HETATM   22  C3  UNL     1       0.435   3.499   9.258  1.00  0.00     0.021 C
ENDBRANCH  19  20
ENDBRANCH   1  19
BRANCH   5  23
HETATM   23  O2  UNL     1      -3.489  -1.840  11.886  1.00  0.00    -0.390 OA
ATOM     24  H2  UNL     1      -3.010  -2.183  11.142  1.00  0.00     0.210 HD
ENDBRANCH   5  23
TORSDOF 6
ENDMDL