MODEL 2
REMARK VINA RESULT: -6.267091144      1.878      2.193
REMARK  4 active torsions:
REMARK  status: ('A' for Active; 'I' for Inactive)
REMARK    1  A    between atoms: C2_2  and  C4_5
REMARK    2  A    between atoms: C4_5  and  N1_6
REMARK    3  A    between atoms: N1_6  and  C5_8
REMARK    4  A    between atoms: C7_12  and  C8_13
ROOT
HETATM    1  C5  UNL     1      -2.104   4.083  12.155  1.00  0.00     0.215 C
HETATM    2  S1  UNL     1      -2.906   2.876  11.068  1.00  0.00    -0.116 SA
HETATM    3  C6  UNL     1      -4.451   2.804  12.074  1.00  0.00     0.208 C
HETATM    4  N2  UNL     1      -3.904   3.109  13.383  1.00  0.00    -0.312 N
HETATM    5  C7  UNL     1      -4.298   2.907  14.655  1.00  0.00     0.104 A
HETATM    6  N4  UNL     1      -3.377   3.419  15.518  1.00  0.00    -0.287 N
ATOM      7  H4  UNL     1      -3.408   3.413  16.538  1.00  0.00     0.188 HD
HETATM    8  N5  UNL     1      -2.450   3.917  14.757  1.00  0.00    -0.285 N
ATOM      9  H5  UNL     1      -1.606   4.381  15.093  1.00  0.00     0.188 HD
HETATM   10  C13 UNL     1      -2.769   3.728  13.439  1.00  0.00     0.134 A
ENDROOT
BRANCH   5  11
HETATM   11  C8  UNL     1      -5.532   2.220  15.153  1.00  0.00     0.058 C
HETATM   12  C9  UNL     1      -5.097   0.982  15.864  1.00  0.00     0.040 C
HETATM   13  C10 UNL     1      -5.758   0.766  17.200  1.00  0.00     0.233 C
HETATM   14  N3  UNL     1      -7.136   1.217  17.084  1.00  0.00    -0.075 N
HETATM   15  C11 UNL     1      -7.078   2.675  17.103  1.00  0.00     0.233 C
ATOM     16  H32 UNL     1      -7.623   0.838  16.272  1.00  0.00     0.277 HD
ATOM     17  H31 UNL     1      -7.756   0.824  17.793  1.00  0.00     0.277 HD
HETATM   18  C12 UNL     1      -6.221   3.243  16.033  1.00  0.00     0.040 C
ENDBRANCH   5  11
BRANCH   1  19
HETATM   19  N1  UNL     1      -0.712   4.054  12.241  1.00  0.00    -0.379 N
ATOM     20  H1  UNL     1      -0.257   3.399  12.877  1.00  0.00     0.160 HD
BRANCH  19  21
HETATM   21  C4  UNL     1       0.062   4.917  11.461  1.00  0.00     0.091 C
BRANCH  21  22
HETATM   22  C2  UNL     1       0.995   4.301  10.477  1.00  0.00    -0.036 C
HETATM   23  C1  UNL     1       0.351   3.378   9.465  1.00  0.00     0.050 C
HETATM   24  C3  UNL     1       2.289   4.473  10.416  1.00  0.00     0.092 C
HETATM   25 CL1  UNL     1       3.247   3.667   9.197  1.00  0.00    -0.096 Cl
ENDBRANCH  21  22
ENDBRANCH  19  21
ENDBRANCH   1  19
TORSDOF 4
ENDMDL