MODEL 2
REMARK VINA RESULT: -6.210646474      3.092      5.870
REMARK  7 active torsions:
REMARK  status: ('A' for Active; 'I' for Inactive)
REMARK    1  A    between atoms: C2_2  and  N1_3
REMARK    2  A    between atoms: C3_4  and  C4_5
REMARK    3  A    between atoms: C4_5  and  O2_7
REMARK    4  A    between atoms: O2_7  and  C5_8
REMARK    5  A    between atoms: C6_10  and  O3_11
REMARK    6  A    between atoms: N2_13  and  C7_14
REMARK    7  A    between atoms: C7_14  and  N3_15
ROOT
HETATM    1  N1  UNL     1      -3.067   3.805  12.970  1.00  0.00    -0.315 N
HETATM    2  C3  UNL     1      -3.406   2.624  12.429  1.00  0.00     0.164 A
HETATM    3  C6  UNL     1      -4.577   2.259  13.107  1.00  0.00     0.183 A
HETATM    4  N2  UNL     1      -4.893   3.204  14.007  1.00  0.00    -0.267 N
HETATM    5  C12 UNL     1      -3.939   4.180  13.918  1.00  0.00     0.188 A
HETATM    6  S1  UNL     1      -3.951   5.525  14.848  1.00  0.00    -0.040 SA
ENDROOT
BRANCH   4   7
HETATM    7  C7  UNL     1      -6.017   3.214  14.918  1.00  0.00     0.164 C
BRANCH   7   8
HETATM    8  N3  UNL     1      -5.769   2.782  16.233  1.00  0.00    -0.275 NA
HETATM    9  C8  UNL     1      -6.987   2.502  16.985  1.00  0.00     0.122 C
HETATM   10  C9  UNL     1      -7.359   1.038  16.887  1.00  0.00     0.182 C
HETATM   11  O4  UNL     1      -6.299   0.255  17.283  1.00  0.00    -0.389 OA
HETATM   12  C10 UNL     1      -5.290   0.383  16.306  1.00  0.00     0.182 C
HETATM   13  C11 UNL     1      -4.769   1.806  16.424  1.00  0.00     0.122 C
ENDBRANCH   7   8
ENDBRANCH   4   7
BRANCH   3  14
HETATM   14  O3  UNL     1      -5.238   1.069  12.814  1.00  0.00    -0.344 OA
ATOM     15  H3  UNL     1      -6.168   1.057  12.620  1.00  0.00     0.219 HD
ENDBRANCH   3  14
BRANCH   2  16
HETATM   16  C4  UNL     1      -2.743   1.863  11.378  1.00  0.00     0.315 C
HETATM   17  O1  UNL     1      -2.390   2.411  10.314  1.00  0.00    -0.257 OA
BRANCH  16  18
HETATM   18  O2  UNL     1      -2.492   0.519  11.544  1.00  0.00    -0.301 OA
BRANCH  18  19
HETATM   19  C5  UNL     1      -2.974  -0.459  10.628  1.00  0.00     0.293 C
HETATM   20 CL1  UNL     1      -2.912  -2.027  11.469  1.00  0.00    -0.101 Cl
ENDBRANCH  18  19
ENDBRANCH  16  18
ENDBRANCH   2  16
BRANCH   1  21
HETATM   21  C2  UNL     1      -1.916   4.605  12.608  1.00  0.00     0.127 C
HETATM   22  C1  UNL     1      -2.217   5.630  11.554  1.00  0.00     0.027 C
ENDBRANCH   1  21
TORSDOF 7
ENDMDL