MODEL 2
REMARK VINA RESULT: -7.602684285      1.546      2.303
REMARK  5 active torsions:
REMARK  status: ('A' for Active; 'I' for Inactive)
REMARK    1  A    between atoms: C2_2  and  C3_3
REMARK    2  A    between atoms: N1_6  and  C6_7
REMARK    3  A    between atoms: C7_10  and  N3_11
REMARK    4  A    between atoms: C10_23  and  C11_24
REMARK    5  A    between atoms: C11_24  and  C14_27
ROOT
HETATM    1  C6  UNL     1      -4.515   3.119  14.941  1.00  0.00     0.709 A
HETATM    2  N2  UNL     1      -3.988   1.879  14.884  1.00  0.00    -0.020 N
ATOM      3  H2  UNL     1      -3.114   1.737  14.376  1.00  0.00     0.203 HD
HETATM    4  C7  UNL     1      -4.586   0.806  15.485  1.00  0.00     0.725 A
HETATM    5  N4  UNL     1      -5.720   1.003  16.142  1.00  0.00     0.105 N
HETATM    6  N5  UNL     1      -6.484   0.139  16.798  1.00  0.00     0.030 NA
HETATM    7  N6  UNL     1      -7.508   0.839  17.276  1.00  0.00     0.007 NA
HETATM    8  N7  UNL     1      -7.383   2.121  16.924  1.00  0.00    -0.115 N
ATOM      9  H7  UNL     1      -8.027   2.876  17.158  1.00  0.00     0.202 HD
HETATM   10  C8  UNL     1      -6.263   2.233  16.211  1.00  0.00     0.744 A
HETATM   11  N8  UNL     1      -5.660   3.282  15.613  1.00  0.00    -0.019 N
ATOM     12  H8  UNL     1      -6.082   4.209  15.674  1.00  0.00     0.203 HD
ENDROOT
BRANCH   1  13
HETATM   13  N1  UNL     1      -3.821   4.155  14.269  1.00  0.00    -0.216 N
HETATM   14  C5  UNL     1      -3.456   5.418  14.875  1.00  0.00     0.141 C
HETATM   15  C4  UNL     1      -3.569   6.456  13.795  1.00  0.00     0.025 C
HETATM   16  C3  UNL     1      -2.528   6.289  12.701  1.00  0.00    -0.007 C
HETATM   17  C10 UNL     1      -2.273   4.867  12.518  1.00  0.00     0.016 C
HETATM   18  C9  UNL     1      -3.463   3.962  12.880  1.00  0.00     0.146 C
BRANCH  16  19
HETATM   19  C2  UNL     1      -2.949   7.163  11.596  1.00  0.00     0.000 C
HETATM   20  C1  UNL     1      -4.483   7.239  11.636  1.00  0.00     0.005 C
ENDBRANCH  16  19
BRANCH  17  21
HETATM   21  C11 UNL     1      -1.743   4.379  11.219  1.00  0.00    -0.043 C
HETATM   22  C12 UNL     1      -0.469   5.088  10.814  1.00  0.00     0.015 C
HETATM   23  C13 UNL     1      -1.261   2.932  11.511  1.00  0.00     0.015 C
BRANCH  21  24
HETATM   24  C14 UNL     1      -2.750   4.205  10.144  1.00  0.00     0.004 C
HETATM   25  C15 UNL     1      -2.362   4.912   8.859  1.00  0.00     0.006 C
ENDBRANCH  21  24
ENDBRANCH  17  21
ENDBRANCH   1  13
BRANCH   4  26
HETATM   26  N3  UNL     1      -3.970  -0.319  15.358  1.00  0.00    -0.232 N
ATOM     27  H32 UNL     1      -3.019  -0.520  15.668  1.00  0.00     0.174 HD
ATOM     28  H31 UNL     1      -4.497  -1.061  14.897  1.00  0.00     0.174 HD
ENDBRANCH   4  26
TORSDOF 5
ENDMDL