MODEL 4
REMARK VINA RESULT: -6.410422349      1.104      1.417
REMARK  5 active torsions:
REMARK  status: ('A' for Active; 'I' for Inactive)
REMARK    1  A    between atoms: O1_2  and  C2_3
REMARK    2  A    between atoms: C2_3  and  C3_5
REMARK    3  A    between atoms: C3_5  and  C5_7
REMARK    4  A    between atoms: C5_7  and  O3_8
REMARK    5  A    between atoms: O3_8  and  C6_9
ROOT
HETATM    1  C6  UNL     1      -4.322   1.785  12.225  1.00  0.00     0.179 A
HETATM    2  N1  UNL     1      -4.815   0.581  12.407  1.00  0.00    -0.256 N
ATOM      3  H1  UNL     1      -5.720   0.414  12.848  1.00  0.00     0.191 HD
HETATM    4  N2  UNL     1      -4.021  -0.411  11.961  1.00  0.00    -0.184 N
HETATM    5  N3  UNL     1      -4.078  -1.707  11.922  1.00  0.00    -0.258 N
ATOM      6  H3  UNL     1      -4.884  -2.205  12.298  1.00  0.00     0.191 HD
HETATM    7  C7  UNL     1      -3.061  -2.370  11.381  1.00  0.00     0.160 A
HETATM    8  N4  UNL     1      -2.933  -3.676  11.250  1.00  0.00    -0.378 N
ATOM      9  H41 UNL     1      -2.152  -4.185  10.834  1.00  0.00     0.158 HD
ATOM     10  H42 UNL     1      -3.565  -4.428  11.524  1.00  0.00     0.158 HD
HETATM   11  S1  UNL     1      -2.003  -1.113  10.921  1.00  0.00    -0.030 SA
HETATM   12  C8  UNL     1      -2.959   0.200  11.464  1.00  0.00     0.140 A
HETATM   13  C9  UNL     1      -3.075   1.570  11.594  1.00  0.00     0.100 A
HETATM   14 BR1  UNL     1      -1.888   2.920  11.073  1.00  0.00    -0.043 Br
ENDROOT
BRANCH   1  15
HETATM   15  O3  UNL     1      -4.843   2.994  12.543  1.00  0.00    -0.333 OA
BRANCH  15  16
HETATM   16  C5  UNL     1      -5.009   3.740  13.638  1.00  0.00     0.191 C
BRANCH  16  17
HETATM   17  C3  UNL     1      -5.237   3.155  14.978  1.00  0.00     0.106 C
HETATM   18  C4  UNL     1      -6.003   3.962  15.955  1.00  0.00     0.022 C
BRANCH  17  19
HETATM   19  C2  UNL     1      -3.904   2.832  15.602  1.00  0.00     0.264 C
HETATM   20  O2  UNL     1      -2.981   3.659  15.505  1.00  0.00    -0.265 OA
BRANCH  19  21
HETATM   21  O1  UNL     1      -3.739   1.634  16.264  1.00  0.00    -0.326 OA
HETATM   22  C1  UNL     1      -4.445   0.486  15.897  1.00  0.00     0.213 C
ENDBRANCH  19  21
ENDBRANCH  17  19
ENDBRANCH  16  17
ENDBRANCH  15  16
ENDBRANCH   1  15
TORSDOF 5
ENDMDL