MODEL 3
REMARK VINA RESULT: -7.828460061      2.737      4.831
REMARK  6 active torsions:
REMARK  status: ('A' for Active; 'I' for Inactive)
REMARK    1  A    between atoms: N1_9  and  C8_10
REMARK    2  A    between atoms: C8_10  and  O1_12
REMARK    3  A    between atoms: C8_10  and  C10_14
REMARK    4  A    between atoms: C12_16  and  C13_17
REMARK    5  A    between atoms: C13_17  and  O2_18
REMARK    6  A    between atoms: O2_18  and  C14_19
ROOT
HETATM    1  C1  UNL     1       0.079   6.586   9.277  1.00  0.00     0.014 C
HETATM    2  C2  UNL     1      -0.715   6.472  10.167  1.00  0.00    -0.092 C
HETATM    3  C3  UNL     1      -1.663   6.366  11.217  1.00  0.00     0.164 C
HETATM    4  C4  UNL     1      -1.085   6.522  12.628  1.00  0.00     0.075 C
HETATM    5  C5  UNL     1      -2.056   5.932  13.624  1.00  0.00     0.174 C
HETATM    6  F1  UNL     1      -1.955   6.577  14.845  1.00  0.00    -0.249 F
HETATM    7  C6  UNL     1      -3.508   6.055  13.209  1.00  0.00     0.057 C
HETATM    8  C7  UNL     1      -3.730   5.576  11.767  1.00  0.00     0.124 C
HETATM    9  N1  UNL     1      -2.454   5.184  11.298  1.00  0.00    -0.363 N
ENDROOT
BRANCH   9  10
HETATM   10  C8  UNL     1      -2.300   4.181  10.361  1.00  0.00     0.172 C
HETATM   11  C9  UNL     1      -0.897   3.581  10.318  1.00  0.00     0.078 C
BRANCH  10  12
HETATM   12  O1  UNL     1      -2.664   4.663   9.092  1.00  0.00    -0.366 OA
ATOM     13  H1  UNL     1      -1.997   5.262   8.776  1.00  0.00     0.213 HD
ENDBRANCH  10  12
BRANCH  10  14
HETATM   14  C10 UNL     1      -3.168   3.029  10.667  1.00  0.00     0.089 A
HETATM   15  C11 UNL     1      -2.799   1.892  11.345  1.00  0.00     0.069 A
HETATM   16  C12 UNL     1      -3.959   1.122  11.416  1.00  0.00     0.102 A
HETATM   17  O3  UNL     1      -4.900   1.796  10.813  1.00  0.00    -0.240 OA
HETATM   18  N5  UNL     1      -4.449   2.925  10.365  1.00  0.00    -0.260 N
ATOM     19  H5  UNL     1      -4.997   3.622   9.861  1.00  0.00     0.194 HD
BRANCH  16  20
HETATM   20  C13 UNL     1      -4.039  -0.235  12.085  1.00  0.00     0.244 C
BRANCH  20  21
HETATM   21  O2  UNL     1      -4.793  -0.074  13.235  1.00  0.00    -0.327 OA
BRANCH  21  22
HETATM   22  C14 UNL     1      -4.455   0.548  14.387  1.00  0.00     0.172 A
HETATM   23  C15 UNL     1      -4.519   1.898  14.683  1.00  0.00     0.162 A
HETATM   24  N2  UNL     1      -4.087   2.084  15.930  1.00  0.00    -0.291 N
HETATM   25  N3  UNL     1      -3.756   0.905  16.425  1.00  0.00    -0.021 NA
ATOM     26  H2  UNL     1      -4.023   2.978  16.415  1.00  0.00     0.183 HD
HETATM   27  N4  UNL     1      -3.970  -0.041  15.511  1.00  0.00    -0.263 N
ATOM     28  H4  UNL     1      -3.798  -1.039  15.636  1.00  0.00     0.186 HD
ENDBRANCH  21  22
ENDBRANCH  20  21
ENDBRANCH  16  20
ENDBRANCH  10  14
ENDBRANCH   9  10
TORSDOF 6
ENDMDL