MODEL 2
REMARK VINA RESULT: -7.225931183      2.773      6.451
REMARK  8 active torsions:
REMARK  status: ('A' for Active; 'I' for Inactive)
REMARK    1  A    between atoms: C2_2  and  C3_3
REMARK    2  A    between atoms: C3_3  and  O1_4
REMARK    3  A    between atoms: O1_4  and  C4_5
REMARK    4  A    between atoms: C4_5  and  C5_7
REMARK    5  A    between atoms: C5_7  and  N1_9
REMARK    6  A    between atoms: C8_12  and  O4_13
REMARK    7  A    between atoms: C9_15  and  O5_16
REMARK    8  A    between atoms: N2_18  and  C10_19
ROOT
HETATM    1  N1  UNL     1      -4.867   2.303  13.959  1.00  0.00    -0.249 N
HETATM    2  C7  UNL     1      -5.212   3.600  13.883  1.00  0.00     0.290 A
HETATM    3  O3  UNL     1      -4.877   4.326  12.910  1.00  0.00    -0.265 OA
HETATM    4  C8  UNL     1      -5.955   4.169  14.889  1.00  0.00     0.186 A
HETATM    5  C9  UNL     1      -6.343   3.395  15.976  1.00  0.00     0.186 A
HETATM    6  N2  UNL     1      -5.992   2.088  16.048  1.00  0.00    -0.268 N
HETATM    7  C14 UNL     1      -5.269   1.597  15.037  1.00  0.00     0.335 A
HETATM    8  O6  UNL     1      -4.931   0.402  15.073  1.00  0.00    -0.246 OA
ENDROOT
BRANCH   1   9
HETATM    9  C5  UNL     1      -4.092   1.742  12.891  1.00  0.00     0.193 C
HETATM   10  C6  UNL     1      -3.258   2.884  12.316  1.00  0.00     0.043 C
BRANCH   9  11
HETATM   11  C4  UNL     1      -4.900   1.111  11.837  1.00  0.00     0.282 C
HETATM   12  O2  UNL     1      -5.737   1.817  11.223  1.00  0.00    -0.263 OA
BRANCH  11  13
HETATM   13  O1  UNL     1      -4.799  -0.219  11.474  1.00  0.00    -0.316 OA
BRANCH  13  14
HETATM   14  C3  UNL     1      -4.036  -1.189  12.125  1.00  0.00     0.205 C
BRANCH  14  15
HETATM   15  C2  UNL     1      -3.035  -1.870  11.299  1.00  0.00    -0.011 C
HETATM   16  C1  UNL     1      -2.885  -3.187  11.316  1.00  0.00     0.009 C
ENDBRANCH  14  15
ENDBRANCH  13  14
ENDBRANCH  11  13
ENDBRANCH   9  11
ENDBRANCH   1   9
BRANCH   4  17
HETATM   17  O4  UNL     1      -6.300   5.510  14.789  1.00  0.00    -0.352 OA
ATOM     18  H4  UNL     1      -5.679   6.166  15.084  1.00  0.00     0.218 HD
ENDBRANCH   4  17
BRANCH   6  19
HETATM   19  C10 UNL     1      -6.433   1.371  17.200  1.00  0.00     0.033 C
HETATM   20  C11 UNL     1      -7.925   1.091  17.004  1.00  0.00     0.038 C
HETATM   21  C12 UNL     1      -6.336   2.212  18.474  1.00  0.00     0.038 C
HETATM   22  C13 UNL     1      -5.775   0.071  17.474  1.00  0.00     0.038 C
ENDBRANCH   6  19
BRANCH   5  23
HETATM   23  O5  UNL     1      -7.090   4.035  16.953  1.00  0.00    -0.344 OA
ATOM     24  H5  UNL     1      -6.700   4.808  17.345  1.00  0.00     0.219 HD
ENDBRANCH   5  23
TORSDOF 8
ENDMDL