MODEL 1
REMARK VINA RESULT: -7.805508205      0.000      0.000
REMARK  6 active torsions:
REMARK  status: ('A' for Active; 'I' for Inactive)
REMARK    1  A    between atoms: C3_9  and  C4_10
REMARK    2  A    between atoms: C4_10  and  O2_12
REMARK    3  A    between atoms: O2_12  and  C5_13
REMARK    4  A    between atoms: C5_13  and  C7_15
REMARK    5  A    between atoms: C7_15  and  C8_16
REMARK    6  A    between atoms: C12_25  and  O4_27
ROOT
HETATM    1  C5  UNL     1      -4.544   1.017  13.295  1.00  0.00     0.130 C
HETATM    2  C6  UNL     1      -4.065   0.093  12.228  1.00  0.00     0.040 C
ENDROOT
BRANCH   1   3
HETATM    3  O2  UNL     1      -4.090   0.488  14.543  1.00  0.00    -0.311 OA
BRANCH   3   4
HETATM    4  C4  UNL     1      -4.306   1.123  15.753  1.00  0.00     0.314 C
HETATM    5  O1  UNL     1      -3.295   1.548  16.360  1.00  0.00    -0.257 OA
BRANCH   4   6
HETATM    6  C3  UNL     1      -5.613   1.320  16.344  1.00  0.00     0.148 A
HETATM    7  C2  UNL     1      -6.439   2.424  16.323  1.00  0.00     0.057 A
HETATM    8  C1  UNL     1      -6.140   3.705  15.654  1.00  0.00     0.072 C
HETATM    9  N1  UNL     1      -7.546   2.138  17.007  1.00  0.00    -0.288 N
HETATM   10  N2  UNL     1      -7.437   0.900  17.449  1.00  0.00    -0.242 N
ATOM     11  H1  UNL     1      -8.336   2.764  17.161  1.00  0.00     0.188 HD
HETATM   12  N3  UNL     1      -6.278   0.399  17.056  1.00  0.00    -0.279 N
ATOM     13  H2  UNL     1      -8.135   0.407  18.005  1.00  0.00     0.208 HD
ATOM     14  H3  UNL     1      -5.941  -0.541  17.263  1.00  0.00     0.189 HD
ENDBRANCH   4   6
ENDBRANCH   3   4
ENDBRANCH   1   3
BRANCH   1  15
HETATM   15  C7  UNL     1      -4.158   2.448  13.134  1.00  0.00     0.067 C
BRANCH  15  16
HETATM   16  C8  UNL     1      -3.269   2.710  11.960  1.00  0.00     0.166 C
HETATM   17  O3  UNL     1      -2.023   3.185  12.428  1.00  0.00    -0.330 OA
HETATM   18  C9  UNL     1      -1.043   3.485  11.491  1.00  0.00     0.130 C
HETATM   19  N4  UNL     1       0.200   3.626  11.807  1.00  0.00    -0.382 N
HETATM   20  C10 UNL     1      -1.513   3.638  10.082  1.00  0.00     0.159 C
ATOM     21  H42 UNL     1       0.521   3.521  12.769  1.00  0.00     0.158 HD
ATOM     22  H41 UNL     1       0.920   3.847  11.119  1.00  0.00     0.158 HD
HETATM   23 CL1  UNL     1      -0.364   4.731   9.273  1.00  0.00    -0.116 Cl
HETATM   24  C11 UNL     1      -2.864   4.301  10.063  1.00  0.00     0.068 C
HETATM   25  C12 UNL     1      -3.834   3.749  11.039  1.00  0.00     0.083 C
HETATM   26  C13 UNL     1      -4.401   4.925  11.842  1.00  0.00     0.049 C
BRANCH  25  27
HETATM   27  O4  UNL     1      -4.941   3.186  10.376  1.00  0.00    -0.388 OA
ATOM     28  H4  UNL     1      -5.689   3.755  10.518  1.00  0.00     0.210 HD
ENDBRANCH  25  27
ENDBRANCH  15  16
ENDBRANCH   1  15
TORSDOF 6
ENDMDL