MODEL 4
REMARK VINA RESULT: -6.710049836      3.052      5.437
REMARK  5 active torsions:
REMARK  status: ('A' for Active; 'I' for Inactive)
REMARK    1  A    between atoms: S1_2  and  C2_3
REMARK    2  A    between atoms: C6_8  and  C7_9
REMARK    3  A    between atoms: N1_10  and  C8_12
REMARK    4  A    between atoms: C8_12  and  C9_14
REMARK    5  A    between atoms: C11_19  and  O4_20
ROOT
HETATM    1  C7  UNL     1      -2.269   4.323  14.463  1.00  0.00     0.119 C
HETATM    2  N1  UNL     1      -3.185   3.758  15.279  1.00  0.00    -0.352 N
ATOM      3  H1  UNL     1      -2.745   3.386  16.121  1.00  0.00     0.166 HD
ENDROOT
BRANCH   2   4
HETATM    4  C8  UNL     1      -4.588   3.534  15.296  1.00  0.00     0.140 C
HETATM    5  S2  UNL     1      -5.638   4.608  14.893  1.00  0.00    -0.057 SA
BRANCH   4   6
HETATM    6  C9  UNL     1      -4.974   2.216  15.842  1.00  0.00     0.177 A
HETATM    7  O1  UNL     1      -5.539   1.729  16.867  1.00  0.00    -0.247 OA
HETATM    8  C10 UNL     1      -5.637   0.405  16.782  1.00  0.00     0.419 A
HETATM    9  O2  UNL     1      -6.139  -0.424  17.577  1.00  0.00    -0.229 OA
HETATM   10  O3  UNL     1      -5.078   0.028  15.633  1.00  0.00    -0.228 OA
HETATM   11  C11 UNL     1      -4.659   1.102  15.025  1.00  0.00     0.226 A
BRANCH  11  12
HETATM   12  O4  UNL     1      -4.015   1.164  13.818  1.00  0.00    -0.338 OA
ATOM     13  H4  UNL     1      -4.434   1.086  12.969  1.00  0.00     0.220 HD
ENDBRANCH  11  12
ENDBRANCH   4   6
ENDBRANCH   2   4
BRANCH   1  14
HETATM   14  C6  UNL     1      -2.319   5.048  13.181  1.00  0.00     0.059 A
HETATM   15  C4  UNL     1      -2.138   6.452  13.267  1.00  0.00     0.008 A
HETATM   16  C3  UNL     1      -1.862   6.884  12.030  1.00  0.00     0.158 A
HETATM   17  C5  UNL     1      -2.364   7.181  14.546  1.00  0.00     0.054 C
HETATM   18  C2  UNL     1      -1.860   5.818  11.197  1.00  0.00     0.111 A
HETATM   19  F1  UNL     1      -1.606   8.219  11.676  1.00  0.00    -0.203 F
HETATM   20  N2  UNL     1      -2.146   4.682  11.923  1.00  0.00    -0.342 N
HETATM   21  C12 UNL     1      -2.201   3.321  11.406  1.00  0.00     0.157 C
BRANCH  18  22
HETATM   22  S1  UNL     1      -1.420   5.824   9.490  1.00  0.00    -0.114 SA
HETATM   23  C1  UNL     1      -2.913   5.525   8.477  1.00  0.00     0.097 C
ENDBRANCH  18  22
ENDBRANCH   1  14
TORSDOF 5
ENDMDL