MODEL 1
REMARK VINA RESULT: -7.514413351      0.000      0.000
REMARK  6 active torsions:
REMARK  status: ('A' for Active; 'I' for Inactive)
REMARK    1  A    between atoms: C3_4  and  N2_5
REMARK    2  A    between atoms: N2_5  and  C4_7
REMARK    3  A    between atoms: C4_7  and  C5_8
REMARK    4  A    between atoms: C9_13  and  O2_14
REMARK    5  A    between atoms: C10_16  and  C11_17
REMARK    6  A    between atoms: N3_18  and  C12_20
ROOT
HETATM    1  C12 UNL     1      -0.237   4.035  10.133  1.00  0.00     0.112 C
HETATM    2  C13 UNL     1       1.110   4.146  10.834  1.00  0.00     0.055 C
HETATM    3  C14 UNL     1      -0.854   5.414  10.005  1.00  0.00     0.055 C
HETATM    4  C15 UNL     1      -0.078   3.476   8.789  1.00  0.00     0.090 C
HETATM    5  N4  UNL     1       0.061   3.048   7.718  1.00  0.00    -0.195 NA
ENDROOT
BRANCH   1   6
HETATM    6  N3  UNL     1      -1.057   3.152  10.938  1.00  0.00    -0.377 N
HETATM    7  C11 UNL     1      -2.308   2.992  10.737  1.00  0.00     0.104 C
ATOM      8  H3  UNL     1      -0.615   2.635  11.699  1.00  0.00     0.160 HD
BRANCH   7   9
HETATM    9  C10 UNL     1      -3.051   2.088  11.593  1.00  0.00     0.083 A
HETATM   10  C9  UNL     1      -3.664   2.594  12.753  1.00  0.00     0.110 A
HETATM   11  C3  UNL     1      -4.370   1.755  13.575  1.00  0.00     0.078 A
HETATM   12  C2  UNL     1      -4.470   0.399  13.242  1.00  0.00     0.125 A
HETATM   13  N1  UNL     1      -3.882  -0.076  12.132  1.00  0.00    -0.326 N
HETATM   14  C1  UNL     1      -3.984  -1.485  11.783  1.00  0.00     0.159 C
HETATM   15  C16 UNL     1      -3.192   0.752  11.332  1.00  0.00     0.261 A
HETATM   16  O3  UNL     1      -2.655   0.248  10.293  1.00  0.00    -0.267 OA
BRANCH  10  17
HETATM   17  O2  UNL     1      -3.538   3.945  13.045  1.00  0.00    -0.357 OA
ATOM     18  H2  UNL     1      -2.687   4.369  13.054  1.00  0.00     0.217 HD
ENDBRANCH  10  17
BRANCH  11  19
HETATM   19  N2  UNL     1      -5.008   2.237  14.768  1.00  0.00    -0.384 N
ATOM     20  H2  UNL     1      -5.900   2.727  14.692  1.00  0.00     0.159 HD
BRANCH  19  21
HETATM   21  C4  UNL     1      -4.420   2.046  16.071  1.00  0.00     0.151 C
BRANCH  21  22
HETATM   22  C5  UNL     1      -5.457   2.320  17.125  1.00  0.00     0.139 C
HETATM   23  C6  UNL     1      -6.845   2.360  16.544  1.00  0.00     0.035 C
HETATM   24  C7  UNL     1      -7.447   1.041  16.929  1.00  0.00     0.029 C
HETATM   25  C8  UNL     1      -6.274   0.285  17.551  1.00  0.00     0.168 C
HETATM   26  O1  UNL     1      -5.427   1.273  18.038  1.00  0.00    -0.384 OA
ENDBRANCH  21  22
ENDBRANCH  19  21
ENDBRANCH  11  19
ENDBRANCH   7   9
ENDBRANCH   1   6
TORSDOF 6
ENDMDL