MODEL 5
REMARK VINA RESULT: -6.144286844      0.763      1.564
REMARK  8 active torsions:
REMARK  status: ('A' for Active; 'I' for Inactive)
REMARK    1  A    between atoms: C2_2  and  O1_3
REMARK    2  A    between atoms: O1_3  and  C3_4
REMARK    3  A    between atoms: C3_4  and  C4_5
REMARK    4  A    between atoms: C3_4  and  C6_7
REMARK       I    between atoms: N1_9  and  C8_10
REMARK    5  A    between atoms: C8_10  and  C9_12
REMARK    6  A    between atoms: C9_12  and  S1_13
REMARK    7  A    between atoms: S1_13  and  C10_14
REMARK    8  A    between atoms: C11_17  and  N3_18
ROOT
HETATM    1  C6  UNL     1      -5.056   3.368  14.278  1.00  0.00     0.071 C
HETATM    2  C7  UNL     1      -3.620   3.167  13.754  1.00  0.00     0.169 C
HETATM    3  N1  UNL     1      -3.626   4.200  12.735  1.00  0.00    -0.224 N
HETATM    4  C8  UNL     1      -2.602   4.405  11.792  1.00  0.00     0.253 C
HETATM    5  O2  UNL     1      -2.671   5.321  10.934  1.00  0.00    -0.270 OA
HETATM    6  O3  UNL     1      -4.749   4.947  12.805  1.00  0.00    -0.264 OA
HETATM    7  C12 UNL     1      -5.169   4.819  14.173  1.00  0.00     0.089 C
HETATM    8  C13 UNL     1      -4.221   5.692  14.905  1.00  0.00     0.049 C
HETATM    9  C14 UNL     1      -6.586   5.353  14.179  1.00  0.00     0.049 C
ENDROOT
BRANCH   4  10
HETATM   10  C9  UNL     1      -1.388   3.546  11.763  1.00  0.00     0.187 C
BRANCH  10  11
HETATM   11  S1  UNL     1      -1.426   2.345  10.428  1.00  0.00    -0.084 SA
BRANCH  11  12
HETATM   12  C10 UNL     1      -2.582   0.986  10.805  1.00  0.00     0.152 A
HETATM   13  N2  UNL     1      -2.167  -0.220  11.016  1.00  0.00    -0.316 N
HETATM   14  C11 UNL     1      -3.048  -1.174  11.286  1.00  0.00     0.160 A
ATOM     15  H2  UNL     1      -1.171  -0.437  10.976  1.00  0.00     0.170 HD
HETATM   16  S2  UNL     1      -4.516  -0.304  11.231  1.00  0.00     0.024 SA
HETATM   17  N4  UNL     1      -3.897   1.222  10.867  1.00  0.00    -0.304 N
ATOM     18  H4  UNL     1      -4.398   2.100  10.730  1.00  0.00     0.176 HD
BRANCH  14  19
HETATM   19  N3  UNL     1      -2.828  -2.447  11.527  1.00  0.00    -0.378 N
ATOM     20  H32 UNL     1      -1.988  -2.915  11.866  1.00  0.00     0.158 HD
ATOM     21  H31 UNL     1      -3.469  -3.233  11.421  1.00  0.00     0.158 HD
ENDBRANCH  14  19
ENDBRANCH  11  12
ENDBRANCH  10  11
ENDBRANCH   4  10
BRANCH   1  22
HETATM   22  C3  UNL     1      -5.446   2.550  15.386  1.00  0.00     0.129 C
BRANCH  22  23
HETATM   23  O1  UNL     1      -6.262   3.194  16.305  1.00  0.00    -0.386 OA
BRANCH  23  24
HETATM   24  C2  UNL     1      -6.703   2.381  17.333  1.00  0.00     0.163 C
HETATM   25  C1  UNL     1      -7.692   1.324  16.910  1.00  0.00     0.033 C
ENDBRANCH  23  24
ENDBRANCH  22  23
BRANCH  22  26
HETATM   26  C4  UNL     1      -4.484   1.714  16.154  1.00  0.00     0.028 C
HETATM   27  C5  UNL     1      -4.338   0.289  15.689  1.00  0.00     0.007 C
ENDBRANCH  22  26
ENDBRANCH   1  22
TORSDOF 8
ENDMDL