MODEL 2
REMARK VINA RESULT: -6.925899735      3.357      4.011
REMARK  7 active torsions:
REMARK  status: ('A' for Active; 'I' for Inactive)
REMARK    1  A    between atoms: C4_5  and  C5_6
REMARK    2  A    between atoms: C6_9  and  S1_10
REMARK    3  A    between atoms: S1_10  and  C7_11
REMARK    4  A    between atoms: C7_11  and  C8_12
REMARK    5  A    between atoms: C9_16  and  N2_17
REMARK    6  A    between atoms: C10_19  and  C11_20
REMARK    7  A    between atoms: C10_19  and  N3_22
ROOT
HETATM    1  C1  UNL     1      -2.042   1.870  11.772  1.00  0.00     0.040 C
HETATM    2  C2  UNL     1      -2.940   3.065  11.946  1.00  0.00     0.110 C
HETATM    3  C3  UNL     1      -3.374   3.460  10.573  1.00  0.00     0.077 C
HETATM    4  N1  UNL     1      -3.700   3.795   9.490  1.00  0.00    -0.196 NA
HETATM    5  C4  UNL     1      -4.155   2.642  12.677  1.00  0.00     0.067 C
HETATM    6  C6  UNL     1      -4.342   3.085  13.852  1.00  0.00     0.054 C
HETATM    7  S2  UNL     1      -2.796   4.099  14.245  1.00  0.00    -0.094 SA
HETATM    8  C9  UNL     1      -2.320   4.254  12.530  1.00  0.00     0.178 C
ENDROOT
BRANCH   5   9
HETATM    9  C5  UNL     1      -5.016   1.694  11.954  1.00  0.00     0.209 C
HETATM   10  O1  UNL     1      -4.862   0.410  12.148  1.00  0.00    -0.644 OA
HETATM   11  O2  UNL     1      -6.004   1.944  11.065  1.00  0.00    -0.644 OA
ENDBRANCH   5   9
BRANCH   8  12
HETATM   12  N2  UNL     1      -0.887   4.334  12.342  1.00  0.00    -0.358 N
HETATM   13  C10 UNL     1      -0.326   5.283  11.706  1.00  0.00     0.161 C
ATOM     14  H2  UNL     1      -0.301   3.598  12.736  1.00  0.00     0.162 HD
BRANCH  13  15
HETATM   15  C11 UNL     1      -1.075   6.424  11.079  1.00  0.00     0.197 C
HETATM   16 CL1  UNL     1      -1.100   6.245   9.327  1.00  0.00    -0.122 Cl
ENDBRANCH  13  15
BRANCH  13  17
HETATM   17  N3  UNL     1       1.083   5.318  11.548  1.00  0.00    -0.102 N
HETATM   18  O5  UNL     1       1.688   6.381  11.759  1.00  0.00    -0.531 OA
HETATM   19  O6  UNL     1       1.768   4.202  11.167  1.00  0.00    -0.531 OA
ENDBRANCH  13  17
ENDBRANCH   8  12
BRANCH   6  20
HETATM   20  S1  UNL     1      -5.503   2.958  15.107  1.00  0.00    -0.112 SA
BRANCH  20  21
HETATM   21  C7  UNL     1      -5.797   1.529  16.006  1.00  0.00     0.193 C
BRANCH  21  22
HETATM   22  C8  UNL     1      -4.602   0.556  15.830  1.00  0.00     0.182 C
HETATM   23  O3  UNL     1      -3.554   0.929  16.394  1.00  0.00    -0.647 OA
HETATM   24  O4  UNL     1      -4.732  -0.594  15.111  1.00  0.00    -0.647 OA
ENDBRANCH  21  22
ENDBRANCH  20  21
ENDBRANCH   6  20
TORSDOF 7
ENDMDL