MODEL 1
REMARK VINA RESULT: -6.861837338      0.000      0.000
REMARK  9 active torsions:
REMARK  status: ('A' for Active; 'I' for Inactive)
REMARK    1  A    between atoms: C2_2  and  C3_3
REMARK    2  A    between atoms: C3_3  and  N1_4
REMARK    3  A    between atoms: C4_5  and  N2_6
REMARK    4  A    between atoms: C5_11  and  N4_12
REMARK    5  A    between atoms: C10_18  and  C11_19
REMARK    6  A    between atoms: C11_19  and  O3_21
REMARK    7  A    between atoms: O3_21  and  C12_22
REMARK    8  A    between atoms: C12_22  and  C13_23
REMARK    9  A    between atoms: C13_23  and  C15_25
ROOT
HETATM    1  N1  UNL     1      -3.664   1.364  11.404  1.00  0.00    -0.147 N
HETATM    2  C4  UNL     1      -2.362   1.628  11.256  1.00  0.00     0.682 A
HETATM    3  N3  UNL     1      -1.894   2.830  11.670  1.00  0.00    -0.176 N
ATOM      4  H3  UNL     1      -0.900   3.028  11.555  1.00  0.00     0.186 HD
HETATM    5  C5  UNL     1      -2.668   3.770  12.222  1.00  0.00     0.141 A
HETATM    6  C10 UNL     1      -3.998   3.514  12.380  1.00  0.00     0.152 A
HETATM    7  C16 UNL     1      -4.466   2.294  11.957  1.00  0.00     0.281 A
HETATM    8  O4  UNL     1      -5.694   2.049  12.099  1.00  0.00    -0.266 OA
ENDROOT
BRANCH   6   9
HETATM    9  C11 UNL     1      -4.876   4.518  12.976  1.00  0.00     0.302 C
HETATM   10  O2  UNL     1      -5.466   5.374  12.254  1.00  0.00    -0.259 OA
BRANCH   9  11
HETATM   11  O3  UNL     1      -5.108   4.591  14.339  1.00  0.00    -0.317 OA
BRANCH  11  12
HETATM   12  C12 UNL     1      -6.294   4.141  14.915  1.00  0.00     0.184 C
BRANCH  12  13
HETATM   13  C13 UNL     1      -6.149   2.795  15.577  1.00  0.00     0.020 C
HETATM   14  C14 UNL     1      -4.738   2.444  15.909  1.00  0.00     0.013 C
BRANCH  13  15
HETATM   15  C15 UNL     1      -7.019   2.650  16.776  1.00  0.00     0.121 C
HETATM   16 CL1  UNL     1      -7.456   0.955  17.094  1.00  0.00    -0.130 Cl
ENDBRANCH  13  15
ENDBRANCH  12  13
ENDBRANCH  11  12
ENDBRANCH   9  11
ENDBRANCH   6   9
BRANCH   5  17
HETATM   17  N4  UNL     1      -2.139   5.024  12.657  1.00  0.00    -0.362 N
HETATM   18  C6  UNL     1      -1.757   5.181  14.037  1.00  0.00     0.150 C
HETATM   19  C7  UNL     1      -1.946   6.674  14.351  1.00  0.00     0.187 C
HETATM   20  O1  UNL     1      -2.988   7.216  13.614  1.00  0.00    -0.388 OA
HETATM   21  C8  UNL     1      -2.545   7.417  12.315  1.00  0.00     0.187 C
HETATM   22  C9  UNL     1      -1.971   6.146  11.760  1.00  0.00     0.150 C
ENDBRANCH   5  17
BRANCH   1  23
HETATM   23  C3  UNL     1      -4.234   0.099  10.960  1.00  0.00     0.151 C
BRANCH  23  24
HETATM   24  C2  UNL     1      -4.120  -0.956  12.006  1.00  0.00     0.016 C
HETATM   25  C1  UNL     1      -3.373  -2.176  11.535  1.00  0.00     0.006 C
ENDBRANCH  23  24
ENDBRANCH   1  23
BRANCH   2  26
HETATM   26  N2  UNL     1      -1.512   0.774  10.746  1.00  0.00    -0.234 N
ATOM     27  H22 UNL     1      -0.867   0.297  11.377  1.00  0.00     0.174 HD
ATOM     28  H21 UNL     1      -1.473   0.552   9.752  1.00  0.00     0.174 HD
ENDBRANCH   2  26
TORSDOF 9
ENDMDL