MODEL 4
REMARK VINA RESULT: -7.173178646      2.897      6.049
REMARK  9 active torsions:
REMARK  status: ('A' for Active; 'I' for Inactive)
REMARK    1  A    between atoms: C2_2  and  C5_5
REMARK    2  A    between atoms: C8_8  and  O1_9
REMARK    3  A    between atoms: O1_9  and  C9_10
REMARK    4  A    between atoms: C9_10  and  C10_11
REMARK    5  A    between atoms: C10_11  and  O2_12
REMARK    6  A    between atoms: C10_11  and  C11_14
REMARK    7  A    between atoms: C11_14  and  N1_15
REMARK    8  A    between atoms: C12_18  and  C13_19
REMARK    9  A    between atoms: C13_19  and  O3_20
ROOT
HETATM    1  C10 UNL     1      -4.618   0.852  15.972  1.00  0.00     0.162 C
ENDROOT
BRANCH   1   2
HETATM    2  C9  UNL     1      -4.624   0.182  14.624  1.00  0.00     0.201 C
BRANCH   2   3
HETATM    3  O1  UNL     1      -3.891   0.815  13.654  1.00  0.00    -0.382 OA
BRANCH   3   4
HETATM    4  C8  UNL     1      -4.159   0.517  12.347  1.00  0.00     0.139 C
HETATM    5  C7  UNL     1      -4.787   1.712  11.709  1.00  0.00     0.034 C
HETATM    6  C6  UNL     1      -3.894   2.687  11.048  1.00  0.00     0.008 C
HETATM    7  C5  UNL     1      -2.467   2.341  11.337  1.00  0.00    -0.006 C
HETATM    8  C16 UNL     1      -2.261   0.952  10.756  1.00  0.00     0.028 C
HETATM    9  C15 UNL     1      -2.933   0.001  11.706  1.00  0.00     0.111 C
HETATM   10 CL1  UNL     1      -3.316  -1.479  10.755  1.00  0.00    -0.122 Cl
BRANCH   7  11
HETATM   11  C2  UNL     1      -1.487   3.335  10.772  1.00  0.00    -0.048 C
HETATM   12  C1  UNL     1      -0.209   3.293  11.542  1.00  0.00     0.015 C
HETATM   13  C3  UNL     1      -2.023   4.721  10.648  1.00  0.00     0.015 C
HETATM   14  C4  UNL     1      -1.160   2.847   9.353  1.00  0.00     0.015 C
ENDBRANCH   7  11
ENDBRANCH   3   4
ENDBRANCH   2   3
ENDBRANCH   1   2
BRANCH   1  15
HETATM   15  O2  UNL     1      -3.318   1.239  16.338  1.00  0.00    -0.392 OA
ATOM     16  H2  UNL     1      -2.828   0.502  16.684  1.00  0.00     0.210 HD
ENDBRANCH   1  15
BRANCH   1  17
HETATM   17  C11 UNL     1      -5.554   2.016  15.983  1.00  0.00     0.186 C
BRANCH  17  18
HETATM   18  N1  UNL     1      -5.073   3.169  15.187  1.00  0.00    -0.248 N
HETATM   19  N2  UNL     1      -3.803   3.407  15.168  1.00  0.00    -0.290 N
HETATM   20  C12 UNL     1      -3.316   4.402  14.465  1.00  0.00     0.095 A
ATOM     21  H2  UNL     1      -3.172   2.813  15.707  1.00  0.00     0.187 HD
HETATM   22  S1  UNL     1      -4.733   5.052  13.782  1.00  0.00    -0.011 SA
HETATM   23  C14 UNL     1      -5.866   3.963  14.474  1.00  0.00     0.306 A
HETATM   24  O4  UNL     1      -7.144   3.949  14.324  1.00  0.00    -0.258 OA
BRANCH  20  25
HETATM   25  C13 UNL     1      -1.867   4.786  14.357  1.00  0.00     0.230 C
BRANCH  25  26
HETATM   26  O3  UNL     1      -1.152   3.876  15.169  1.00  0.00    -0.394 OA
ATOM     27  H3  UNL     1      -0.550   3.418  14.593  1.00  0.00     0.209 HD
ENDBRANCH  25  26
ENDBRANCH  20  25
ENDBRANCH  17  18
ENDBRANCH   1  17
TORSDOF 9
ENDMDL