MODEL 5
REMARK VINA RESULT: -6.818064665      1.597      2.841
REMARK  9 active torsions:
REMARK  status: ('A' for Active; 'I' for Inactive)
REMARK    1  A    between atoms: C2_2  and  O1_4
REMARK    2  A    between atoms: O1_4  and  C4_5
REMARK    3  A    between atoms: C5_6  and  O2_7
REMARK    4  A    between atoms: O2_7  and  C6_8
REMARK    5  A    between atoms: C6_8  and  C7_9
REMARK    6  A    between atoms: C7_9  and  O3_11
REMARK    7  A    between atoms: C7_9  and  C9_13
REMARK    8  A    between atoms: C13_22  and  N3_23
REMARK    9  A    between atoms: C17_27  and  N4_28
ROOT
HETATM    1  C4  UNL     1      -3.468   3.027  12.446  1.00  0.00     0.164 A
HETATM    2  C5  UNL     1      -4.352   2.231  13.185  1.00  0.00     0.181 A
HETATM    3  N1  UNL     1      -4.591   0.973  12.828  1.00  0.00    -0.331 N
ATOM      4  H1  UNL     1      -5.236   0.401  13.373  1.00  0.00     0.168 HD
HETATM    5  C12 UNL     1      -3.981   0.455  11.746  1.00  0.00     0.184 A
HETATM    6  N2  UNL     1      -3.129   1.199  11.023  1.00  0.00    -0.336 N
ATOM      7  H2  UNL     1      -2.677   0.787  10.207  1.00  0.00     0.168 HD
HETATM    8  C13 UNL     1      -2.852   2.507  11.356  1.00  0.00     0.142 A
ENDROOT
BRANCH   2   9
HETATM    9  O2  UNL     1      -5.016   2.706  14.313  1.00  0.00    -0.330 OA
BRANCH   9  10
HETATM   10  C6  UNL     1      -6.028   1.959  14.953  1.00  0.00     0.218 C
BRANCH  10  11
HETATM   11  C7  UNL     1      -5.414   1.140  16.056  1.00  0.00     0.111 C
HETATM   12  C8  UNL     1      -4.150   1.832  16.509  1.00  0.00     0.051 C
BRANCH  11  13
HETATM   13  O3  UNL     1      -5.089  -0.118  15.565  1.00  0.00    -0.385 OA
ATOM     14  H3  UNL     1      -4.696  -0.633  16.260  1.00  0.00     0.210 HD
ENDBRANCH  11  13
BRANCH  11  15
HETATM   15  C9  UNL     1      -6.362   0.996  17.239  1.00  0.00     0.128 C
HETATM   16  C10 UNL     1      -7.787   1.177  16.807  1.00  0.00     0.054 C
HETATM   17  C11 UNL     1      -6.011   1.968  18.327  1.00  0.00     0.054 C
HETATM   18  F1  UNL     1      -6.182  -0.282  17.738  1.00  0.00    -0.240 F
ENDBRANCH  11  15
ENDBRANCH  10  11
ENDBRANCH   9  10
ENDBRANCH   2   9
BRANCH   1  19
HETATM   19  O1  UNL     1      -3.276   4.303  12.868  1.00  0.00    -0.339 OA
BRANCH  19  20
HETATM   20  C2  UNL     1      -2.601   4.837  13.942  1.00  0.00     0.121 C
HETATM   21  C1  UNL     1      -3.522   5.929  14.536  1.00  0.00     0.040 C
HETATM   22  C3  UNL     1      -1.378   5.564  13.478  1.00  0.00     0.040 C
ENDBRANCH  19  20
ENDBRANCH   1  19
BRANCH   8  23
HETATM   23  N3  UNL     1      -1.918   3.203  10.554  1.00  0.00    -0.363 N
HETATM   24  C14 UNL     1      -2.368   4.200   9.594  1.00  0.00     0.124 C
HETATM   25  C15 UNL     1      -1.630   5.513   9.803  1.00  0.00     0.022 C
HETATM   26  C16 UNL     1      -0.148   5.303   9.932  1.00  0.00     0.036 C
HETATM   27  C17 UNL     1       0.158   3.865   9.581  1.00  0.00     0.201 C
HETATM   28  C18 UNL     1      -0.490   2.995  10.635  1.00  0.00     0.157 C
BRANCH  27  29
HETATM   29  N4  UNL     1       1.593   3.626   9.531  1.00  0.00    -0.073 N
ATOM     30  H43 UNL     1       1.806   2.629   9.523  1.00  0.00     0.274 HD
ATOM     31  H42 UNL     1       1.983   3.877   8.623  1.00  0.00     0.274 HD
ATOM     32  H41 UNL     1       2.075   4.106  10.292  1.00  0.00     0.274 HD
ENDBRANCH  27  29
ENDBRANCH   8  23
TORSDOF 9
ENDMDL