MODEL 1
REMARK VINA RESULT: -7.705509723      0.000      0.000
REMARK  6 active torsions:
REMARK  status: ('A' for Active; 'I' for Inactive)
REMARK    1  A    between atoms: C2_2  and  C3_3
REMARK    2  A    between atoms: C3_3  and  C4_4
REMARK    3  A    between atoms: C4_4  and  C5_5
REMARK    4  A    between atoms: C5_5  and  C6_6
REMARK    5  A    between atoms: N1_8  and  N2_10
REMARK    6  A    between atoms: C10_17  and  N4_18
ROOT
HETATM    1  N2  UNL     1      -2.917   3.432  12.716  1.00  0.00    -0.062 N
HETATM    2  C7  UNL     1      -3.672   3.165  13.828  1.00  0.00     0.197 A
HETATM    3  C8  UNL     1      -4.197   4.196  14.567  1.00  0.00     0.075 A
HETATM    4  C9  UNL     1      -3.924   5.489  14.130  1.00  0.00     0.270 A
HETATM    5  O1  UNL     1      -4.414   6.430  14.819  1.00  0.00    -0.267 OA
HETATM    6  N3  UNL     1      -3.176   5.702  13.032  1.00  0.00    -0.154 N
ATOM      7  H3  UNL     1      -2.992   6.661  12.736  1.00  0.00     0.187 HD
HETATM    8  C10 UNL     1      -2.665   4.686  12.312  1.00  0.00     0.702 A
HETATM    9  C11 UNL     1      -4.956   3.650  15.695  1.00  0.00     0.108 C
HETATM   10  C12 UNL     1      -6.438   3.860  15.612  1.00  0.00     0.186 C
HETATM   11  O2  UNL     1      -6.980   3.282  16.784  1.00  0.00    -0.355 OA
HETATM   12  C13 UNL     1      -6.608   1.949  16.860  1.00  0.00     0.159 C
HETATM   13  C14 UNL     1      -5.923   1.701  18.203  1.00  0.00     0.078 C
HETATM   14  C15 UNL     1      -7.920   1.152  16.906  1.00  0.00     0.078 C
HETATM   15  O3  UNL     1      -5.874   1.499  15.794  1.00  0.00    -0.325 OA
HETATM   16  C16 UNL     1      -4.678   2.185  15.667  1.00  0.00     0.282 C
HETATM   17  O4  UNL     1      -4.063   1.989  14.434  1.00  0.00    -0.301 OA
ENDROOT
BRANCH   1  18
HETATM   18  N1  UNL     1      -2.401   2.378  11.993  1.00  0.00    -0.270 N
HETATM   19  C6  UNL     1      -3.058   1.684  11.157  1.00  0.00     0.096 C
HETATM   20 CL1  UNL     1      -4.750   2.032  10.845  1.00  0.00    -0.068 Cl
ATOM     21  H1  UNL     1      -1.421   2.138  12.140  1.00  0.00     0.189 HD
BRANCH  19  22
HETATM   22  C5  UNL     1      -2.420   0.567  10.423  1.00  0.00     0.072 C
BRANCH  22  23
HETATM   23  C4  UNL     1      -3.425  -0.515  10.193  1.00  0.00     0.007 C
BRANCH  23  24
HETATM   24  C3  UNL     1      -3.636  -1.335  11.452  1.00  0.00     0.000 C
BRANCH  24  25
HETATM   25  C2  UNL     1      -2.671  -2.490  11.537  1.00  0.00    -0.005 C
HETATM   26  C1  UNL     1      -3.469  -3.759  11.271  1.00  0.00     0.005 C
ENDBRANCH  24  25
ENDBRANCH  23  24
ENDBRANCH  22  23
ENDBRANCH  19  22
ENDBRANCH   1  18
BRANCH   8  27
HETATM   27  N4  UNL     1      -1.942   4.884  11.249  1.00  0.00    -0.233 N
ATOM     28  H42 UNL     1      -2.124   4.400  10.369  1.00  0.00     0.174 HD
ATOM     29  H41 UNL     1      -1.164   5.543  11.286  1.00  0.00     0.174 HD
ENDBRANCH   8  27
TORSDOF 6
ENDMDL