MODEL 4
REMARK VINA RESULT: -6.887098323      2.450      3.626
REMARK  8 active torsions:
REMARK  status: ('A' for Active; 'I' for Inactive)
REMARK    1  A    between atoms: N1_4  and  C4_5
REMARK    2  A    between atoms: C5_7  and  C6_8
REMARK    3  A    between atoms: C6_8  and  S1_9
REMARK    4  A    between atoms: S1_9  and  C7_10
REMARK    5  A    between atoms: C7_10  and  C8_11
REMARK    6  A    between atoms: C8_11  and  C9_12
REMARK    7  A    between atoms: C14_19  and  N3_20
REMARK    8  A    between atoms: N3_20  and  O2_22
ROOT
HETATM    1  C4  UNL     1      -4.431   2.980  11.033  1.00  0.00     0.263 C
HETATM    2  O1  UNL     1      -5.025   4.162  11.421  1.00  0.00    -0.358 OA
HETATM    3  C5  UNL     1      -4.539   5.216  10.726  1.00  0.00     0.135 C
HETATM    4  C11 UNL     1      -3.269   4.749  10.016  1.00  0.00     0.056 C
HETATM    5  C12 UNL     1      -3.040   3.399  10.655  1.00  0.00     0.145 C
HETATM    6  C13 UNL     1      -2.167   3.552  11.797  1.00  0.00     0.068 C
HETATM    7  N2  UNL     1      -1.456   3.657  12.710  1.00  0.00    -0.197 NA
ENDROOT
BRANCH   1   8
HETATM    8  N1  UNL     1      -4.480   2.075  12.136  1.00  0.00    -0.162 N
HETATM    9  C3  UNL     1      -4.701   2.496  13.391  1.00  0.00     0.124 A
HETATM   10  C2  UNL     1      -4.750   1.632  14.467  1.00  0.00     0.023 A
HETATM   11  C1  UNL     1      -4.990   2.060  15.861  1.00  0.00     0.056 C
HETATM   12  C15 UNL     1      -4.564   0.283  14.236  1.00  0.00     0.266 A
HETATM   13  N4  UNL     1      -4.343  -0.121  12.976  1.00  0.00    -0.154 N
HETATM   14  O3  UNL     1      -4.596  -0.563  15.182  1.00  0.00    -0.267 OA
HETATM   15  C14 UNL     1      -4.302   0.761  11.940  1.00  0.00     0.709 A
ATOM     16  H4  UNL     1      -4.202  -1.114  12.789  1.00  0.00     0.187 HD
BRANCH  15  17
HETATM   17  N3  UNL     1      -4.093   0.321  10.778  1.00  0.00    -0.098 N
ATOM     18  H3  UNL     1      -3.137   0.133  10.475  1.00  0.00     0.213 HD
BRANCH  17  19
HETATM   19  O2  UNL     1      -5.136   0.094   9.919  1.00  0.00    -0.276 OA
ATOM     20  H2  UNL     1      -4.998  -0.372   9.103  1.00  0.00     0.245 HD
ENDBRANCH  17  19
ENDBRANCH  15  17
ENDBRANCH   1   8
BRANCH   3  21
HETATM   21  C6  UNL     1      -4.135   6.372  11.580  1.00  0.00     0.105 C
BRANCH  21  22
HETATM   22  S1  UNL     1      -5.180   7.800  11.634  1.00  0.00    -0.167 SA
BRANCH  22  23
HETATM   23  C7  UNL     1      -6.879   7.566  11.148  1.00  0.00     0.075 C
BRANCH  23  24
HETATM   24  C8  UNL     1      -7.255   8.307   9.907  1.00  0.00     0.030 C
BRANCH  24  25
HETATM   25  C9  UNL     1      -7.926   7.424   8.894  1.00  0.00     0.079 C
HETATM   26  C10 UNL     1      -9.083   7.994   8.156  1.00  0.00     0.026 C
HETATM   27 CL1  UNL     1      -6.723   6.848   7.697  1.00  0.00    -0.125 Cl
ENDBRANCH  24  25
ENDBRANCH  23  24
ENDBRANCH  22  23
ENDBRANCH  21  22
ENDBRANCH   3  21
TORSDOF 8
ENDMDL