MODEL 2
REMARK VINA RESULT: -7.244137444      1.160      1.374
REMARK  7 active torsions:
REMARK  status: ('A' for Active; 'I' for Inactive)
REMARK    1  A    between atoms: C2_2  and  O1_3
REMARK    2  A    between atoms: O1_3  and  C3_4
REMARK    3  A    between atoms: C3_4  and  C4_5
REMARK    4  A    between atoms: N1_7  and  C6_8
REMARK    5  A    between atoms: C8_11  and  C9_12
REMARK    6  A    between atoms: C12_16  and  C13_17
REMARK    7  A    between atoms: C13_17  and  O3_18
ROOT
HETATM    1  C4  UNL     1      -1.797   6.261  13.425  1.00  0.00     0.049 A
HETATM    2  C5  UNL     1      -2.720   5.449  14.019  1.00  0.00     0.111 A
HETATM    3  N1  UNL     1      -3.065   4.230  13.504  1.00  0.00    -0.304 N
HETATM    4  C14 UNL     1      -2.453   3.858  12.368  1.00  0.00     0.182 A
HETATM    5  S1  UNL     1      -2.776   2.454  11.590  1.00  0.00    -0.040 SA
HETATM    6  N2  UNL     1      -1.522   4.652  11.750  1.00  0.00    -0.299 N
ATOM      7  H2  UNL     1      -1.081   4.326  10.890  1.00  0.00     0.171 HD
HETATM    8  C15 UNL     1      -1.176   5.841  12.247  1.00  0.00     0.257 A
HETATM    9  O5  UNL     1      -0.301   6.558  11.651  1.00  0.00    -0.267 OA
ENDROOT
BRANCH   3  10
HETATM   10  C6  UNL     1      -3.984   3.344  14.171  1.00  0.00     0.254 C
HETATM   11  C7  UNL     1      -5.406   3.783  14.026  1.00  0.00     0.222 C
HETATM   12  O2  UNL     1      -6.252   2.971  14.758  1.00  0.00    -0.376 OA
HETATM   13  C8  UNL     1      -5.806   2.902  16.053  1.00  0.00     0.191 C
HETATM   14  C12 UNL     1      -4.510   2.167  16.077  1.00  0.00     0.180 C
HETATM   15  O4  UNL     1      -3.574   3.006  15.425  1.00  0.00    -0.354 OA
BRANCH  13  16
HETATM   16  C9  UNL     1      -6.823   2.484  17.056  1.00  0.00     0.124 C
HETATM   17  C10 UNL     1      -7.721   1.369  16.701  1.00  0.00     0.054 C
HETATM   18  C11 UNL     1      -6.131   2.217  18.374  1.00  0.00     0.054 C
HETATM   19  F1  UNL     1      -7.617   3.619  17.285  1.00  0.00    -0.241 F
ENDBRANCH  13  16
BRANCH  14  20
HETATM   20  C13 UNL     1      -4.589   0.868  15.290  1.00  0.00     0.198 C
BRANCH  20  21
HETATM   21  O3  UNL     1      -3.760  -0.089  15.902  1.00  0.00    -0.398 OA
ATOM     22  H3  UNL     1      -3.627  -0.813  15.302  1.00  0.00     0.209 HD
ENDBRANCH  20  21
ENDBRANCH  14  20
ENDBRANCH   3  10
BRANCH   1  23
HETATM   23  C3  UNL     1      -1.338   7.571  13.961  1.00  0.00     0.213 C
BRANCH  23  24
HETATM   24  O1  UNL     1      -2.357   8.025  14.841  1.00  0.00    -0.387 OA
BRANCH  24  25
HETATM   25  C2  UNL     1      -1.736   8.819  15.786  1.00  0.00     0.163 C
HETATM   26  C1  UNL     1      -0.778   9.792  15.119  1.00  0.00     0.033 C
ENDBRANCH  24  25
ENDBRANCH  23  24
ENDBRANCH   1  23
TORSDOF 7
ENDMDL