MODEL 2
REMARK VINA RESULT: -7.399193725      4.277      6.369
REMARK  9 active torsions:
REMARK  status: ('A' for Active; 'I' for Inactive)
REMARK    1  A    between atoms: C2_2  and  C3_3
REMARK    2  A    between atoms: C3_3  and  C4_4
REMARK    3  A    between atoms: C3_3  and  N1_6
REMARK    4  A    between atoms: N1_6  and  C6_8
REMARK    5  A    between atoms: C7_11  and  N3_12
REMARK    6  A    between atoms: C10_15  and  N4_16
REMARK    7  A    between atoms: C10_15  and  C11_20
REMARK    8  A    between atoms: C11_20  and  O2_22
REMARK    9  A    between atoms: O2_22  and  C12_23
ROOT
HETATM    1  C12 UNL     1      -6.772   2.015  17.540  1.00  0.00     0.234 C
HETATM    2  C13 UNL     1      -6.570   2.292  19.036  1.00  0.00     0.056 C
HETATM    3  C14 UNL     1      -6.252   0.708  17.180  1.00  0.00     0.091 C
HETATM    4  N5  UNL     1      -5.842  -0.322  16.917  1.00  0.00    -0.195 NA
ENDROOT
BRANCH   1   5
HETATM    5  O2  UNL     1      -6.085   3.004  16.848  1.00  0.00    -0.300 OA
BRANCH   5   6
HETATM    6  C11 UNL     1      -5.843   3.059  15.505  1.00  0.00     0.296 C
HETATM    7  O1  UNL     1      -6.837   3.123  14.743  1.00  0.00    -0.262 OA
BRANCH   6   8
HETATM    8  C10 UNL     1      -4.500   3.049  14.882  1.00  0.00     0.213 C
HETATM    9  C9  UNL     1      -4.002   4.450  14.725  1.00  0.00     0.070 C
HETATM   10  C8  UNL     1      -4.393   5.100  13.421  1.00  0.00     0.144 C
HETATM   11  N3  UNL     1      -3.959   4.319  12.292  1.00  0.00    -0.217 N
HETATM   12  C16 UNL     1      -3.611   2.926  12.545  1.00  0.00     0.144 C
HETATM   13  C15 UNL     1      -4.604   2.358  13.549  1.00  0.00     0.070 C
BRANCH  11  14
HETATM   14  C7  UNL     1      -3.853   4.815  10.980  1.00  0.00     0.681 A
HETATM   15  N2  UNL     1      -4.851   5.624  10.509  1.00  0.00    -0.174 N
HETATM   16  C6  UNL     1      -4.804   6.126   9.271  1.00  0.00     0.157 A
ATOM     17  H2  UNL     1      -5.642   5.847  11.112  1.00  0.00     0.186 HD
HETATM   18  C18 UNL     1      -3.710   5.799   8.479  1.00  0.00     0.176 A
HETATM   19  C17 UNL     1      -2.682   4.976   8.938  1.00  0.00     0.152 A
HETATM   20  F1  UNL     1      -3.679   6.315   7.228  1.00  0.00    -0.201 F
HETATM   21  N6  UNL     1      -2.809   4.517  10.194  1.00  0.00    -0.199 N
ATOM     22  H6  UNL     1      -2.077   3.913  10.566  1.00  0.00     0.183 HD
BRANCH  16  23
HETATM   23  N1  UNL     1      -5.714   6.882   8.796  1.00  0.00    -0.369 N
ATOM     24  H1  UNL     1      -5.469   7.501   8.024  1.00  0.00     0.161 HD
BRANCH  23  25
HETATM   25  C3  UNL     1      -7.066   6.911   9.286  1.00  0.00     0.082 C
BRANCH  25  26
HETATM   26  C2  UNL     1      -8.007   6.823   8.104  1.00  0.00     0.021 C
HETATM   27  C1  UNL     1      -9.061   7.910   8.153  1.00  0.00     0.007 C
ENDBRANCH  25  26
BRANCH  25  28
HETATM   28  C4  UNL     1      -7.312   8.180  10.084  1.00  0.00     0.021 C
HETATM   29  C5  UNL     1      -7.355   7.871  11.560  1.00  0.00     0.007 C
ENDBRANCH  25  28
ENDBRANCH  23  25
ENDBRANCH  16  23
ENDBRANCH  11  14
BRANCH   8  30
HETATM   30  N4  UNL     1      -3.541   2.309  15.689  1.00  0.00    -0.061 N
ATOM     31  H43 UNL     1      -3.977   1.566  16.235  1.00  0.00     0.275 HD
ATOM     32  H42 UNL     1      -2.924   1.724  15.127  1.00  0.00     0.275 HD
ATOM     33  H41 UNL     1      -3.030   2.973  16.270  1.00  0.00     0.275 HD
ENDBRANCH   8  30
ENDBRANCH   6   8
ENDBRANCH   5   6
ENDBRANCH   1   5
TORSDOF 9
ENDMDL