MODEL 5
REMARK VINA RESULT: -5.486709647      1.734      1.923
REMARK  9 active torsions:
REMARK  status: ('A' for Active; 'I' for Inactive)
REMARK    1  A    between atoms: O1_2  and  C2_3
REMARK    2  A    between atoms: C2_3  and  C3_5
REMARK    3  A    between atoms: C4_6  and  C5_7
REMARK    4  A    between atoms: C5_7  and  C6_8
REMARK    5  A    between atoms: C6_8  and  N1_9
REMARK    6  A    between atoms: N1_9  and  C7_11
REMARK    7  A    between atoms: C7_11  and  C8_12
REMARK    8  A    between atoms: C8_12  and  O3_13
REMARK    9  A    between atoms: S2_21  and  S3_22
ROOT
HETATM    1  C3  UNL     1      -2.133   3.736  12.246  1.00  0.00     0.163 C
HETATM    2  C4  UNL     1      -3.016   4.890  12.583  1.00  0.00     0.045 C
HETATM    3  C9  UNL     1      -3.489   5.708  11.433  1.00  0.00     0.067 C
HETATM    4  C10 UNL     1      -3.945   7.053  12.020  1.00  0.00     0.047 C
HETATM    5  C11 UNL     1      -4.656   5.152  10.681  1.00  0.00     0.047 C
HETATM    6  O4  UNL     1      -2.435   6.078  10.542  1.00  0.00    -0.324 OA
HETATM    7  C12 UNL     1      -1.090   5.942  10.819  1.00  0.00     0.177 C
HETATM    8  S1  UNL     1       0.003   7.113  10.688  1.00  0.00    -0.045 SA
HETATM    9  S2  UNL     1      -0.655   4.300  11.354  1.00  0.00    -0.060 SA
ENDROOT
BRANCH   2  10
HETATM   10  C5  UNL     1      -4.128   4.506  13.470  1.00  0.00     0.029 C
BRANCH  10  11
HETATM   11  C6  UNL     1      -3.686   4.237  14.921  1.00  0.00     0.119 C
BRANCH  11  12
HETATM   12  N1  UNL     1      -3.821   2.847  15.121  1.00  0.00    -0.400 N
ATOM     13  H1  UNL     1      -3.044   2.224  14.900  1.00  0.00     0.158 HD
BRANCH  12  14
HETATM   14  C7  UNL     1      -5.020   2.317  15.623  1.00  0.00     0.081 C
BRANCH  14  15
HETATM   15  C8  UNL     1      -5.008   0.859  15.982  1.00  0.00     0.208 C
BRANCH  15  16
HETATM   16  O3  UNL     1      -3.716   0.415  16.137  1.00  0.00    -0.396 OA
ATOM     17  H3  UNL     1      -3.240   0.984  16.731  1.00  0.00     0.209 HD
ENDBRANCH  15  16
ENDBRANCH  14  15
ENDBRANCH  12  14
ENDBRANCH  11  12
ENDBRANCH  10  11
ENDBRANCH   2  10
BRANCH   1  18
HETATM   18  C2  UNL     1      -2.775   2.576  11.641  1.00  0.00     0.273 C
HETATM   19  O2  UNL     1      -3.066   2.551  10.392  1.00  0.00    -0.264 OA
BRANCH  18  20
HETATM   20  O1  UNL     1      -3.136   1.409  12.294  1.00  0.00    -0.326 OA
HETATM   21  C1  UNL     1      -4.357   0.754  12.216  1.00  0.00     0.213 C
ENDBRANCH  18  20
ENDBRANCH   1  18
BRANCH   9  22
HETATM   22  S3  UNL     1      -0.326   3.308   9.772  1.00  0.00     0.011 SA
HETATM   23 CL1  UNL     1       1.734   3.526   9.360  1.00  0.00    -0.032 Cl
ENDBRANCH   9  22
TORSDOF 9
ENDMDL