MODEL 5
REMARK VINA RESULT: -6.414886780      2.560      7.009
REMARK  8 active torsions:
REMARK  status: ('A' for Active; 'I' for Inactive)
REMARK    1  A    between atoms: C2_2  and  O1_3
REMARK    2  A    between atoms: C9_12  and  N1_13
REMARK    3  A    between atoms: N1_13  and  O2_14
REMARK    4  A    between atoms: O2_14  and  C10_15
REMARK    5  A    between atoms: C10_15  and  C11_16
REMARK    6  A    between atoms: C11_16  and  O3_17
REMARK    7  A    between atoms: C11_16  and  C12_19
REMARK    8  A    between atoms: C12_19  and  N2_20
ROOT
HETATM    1  C1  UNL     1      -2.946   7.386   9.266  1.00  0.00     0.054 C
HETATM    2  C2  UNL     1      -2.258   6.330  10.137  1.00  0.00     0.116 C
HETATM    3  C3  UNL     1      -2.746   6.397  11.545  1.00  0.00     0.057 C
HETATM    4  C4  UNL     1      -3.496   5.127  11.836  1.00  0.00    -0.013 C
HETATM    5  C5  UNL     1      -4.848   5.466  12.469  1.00  0.00     0.018 C
HETATM    6  C6  UNL     1      -3.754   4.530  10.504  1.00  0.00     0.092 C
HETATM    7  C7  UNL     1      -4.023   3.098  10.494  1.00  0.00     0.008 C
HETATM    8  C8  UNL     1      -3.958   2.388  11.599  1.00  0.00     0.048 C
HETATM    9 BR1  UNL     1      -4.332   0.525  11.461  1.00  0.00    -0.048 Br
HETATM   10  C9  UNL     1      -3.614   2.966  12.910  1.00  0.00     0.143 C
HETATM   11  C16 UNL     1      -2.778   4.232  12.785  1.00  0.00     0.021 C
HETATM   12  C17 UNL     1      -2.704   4.864  14.155  1.00  0.00     0.023 C
HETATM   13  C18 UNL     1      -1.396   3.841  12.394  1.00  0.00     0.023 C
HETATM   14  C19 UNL     1      -2.631   4.957   9.630  1.00  0.00     0.169 C
HETATM   15  O4  UNL     1      -2.127   4.356   8.724  1.00  0.00    -0.294 OA
ENDROOT
BRANCH  10  16
HETATM   16  N1  UNL     1      -3.936   2.525  13.998  1.00  0.00    -0.284 NA
BRANCH  16  17
HETATM   17  O2  UNL     1      -3.987   1.767  14.998  1.00  0.00    -0.206 OA
BRANCH  17  18
HETATM   18  C10 UNL     1      -4.549   0.569  15.408  1.00  0.00     0.251 C
BRANCH  18  19
HETATM   19  C11 UNL     1      -5.343   0.763  16.709  1.00  0.00     0.165 C
BRANCH  19  20
HETATM   20  O3  UNL     1      -5.638  -0.461  17.293  1.00  0.00    -0.392 OA
ATOM     21  H3  UNL     1      -5.906  -0.347  18.198  1.00  0.00     0.210 HD
ENDBRANCH  19  20
BRANCH  19  22
HETATM   22  C12 UNL     1      -6.642   1.468  16.459  1.00  0.00     0.182 C
BRANCH  22  23
HETATM   23  N2  UNL     1      -6.554   2.897  16.431  1.00  0.00    -0.301 N
HETATM   24  C13 UNL     1      -6.791   3.742  17.472  1.00  0.00     0.111 A
HETATM   25  C14 UNL     1      -6.601   5.020  17.024  1.00  0.00     0.037 A
HETATM   26  C15 UNL     1      -6.242   4.922  15.682  1.00  0.00     0.108 A
HETATM   27  N3  UNL     1      -6.232   3.621  15.388  1.00  0.00    -0.310 N
ATOM     28  H3  UNL     1      -6.004   3.239  14.471  1.00  0.00     0.186 HD
ENDBRANCH  22  23
ENDBRANCH  19  22
ENDBRANCH  18  19
ENDBRANCH  17  18
ENDBRANCH  16  17
ENDBRANCH  10  16
BRANCH   2  29
HETATM   29  O1  UNL     1      -0.883   6.512  10.105  1.00  0.00    -0.382 OA
ATOM     30  H1  UNL     1      -0.678   7.370   9.755  1.00  0.00     0.211 HD
ENDBRANCH   2  29
TORSDOF 8
ENDMDL