MODEL 2
REMARK VINA RESULT: -7.675989550      1.025      1.233
REMARK  7 active torsions:
REMARK  status: ('A' for Active; 'I' for Inactive)
REMARK    1  A    between atoms: O1_2  and  C2_3
REMARK    2  A    between atoms: C3_6  and  N2_7
REMARK    3  A    between atoms: N2_7  and  C4_9
REMARK    4  A    between atoms: C8_15  and  C9_16
REMARK    5  A    between atoms: C10_19  and  N5_20
REMARK    6  A    between atoms: N7_25  and  C11_26
REMARK    7  A    between atoms: C14_29  and  N8_31
ROOT
HETATM    1  C9  UNL     1      -2.774   4.658  12.392  1.00  0.00     0.154 A
HETATM    2  N4  UNL     1      -1.384   4.701  12.331  1.00  0.00    -0.172 N
ATOM      3  H4  UNL     1      -0.759   4.272  13.013  1.00  0.00     0.186 HD
HETATM    4  C10 UNL     1      -0.990   5.375  11.266  1.00  0.00     0.709 A
HETATM    5  N6  UNL     1      -2.089   5.761  10.648  1.00  0.00    -0.127 N
ATOM      6  H6  UNL     1      -2.112   6.305   9.786  1.00  0.00     0.206 HD
HETATM    7  N7  UNL     1      -3.184   5.332  11.322  1.00  0.00    -0.256 N
ENDROOT
BRANCH   1   8
HETATM    8  C8  UNL     1      -3.425   3.942  13.456  1.00  0.00     0.077 A
HETATM    9  C2  UNL     1      -3.602   2.546  13.330  1.00  0.00     0.172 A
HETATM   10  N1  UNL     1      -4.240   1.862  14.292  1.00  0.00    -0.170 N
HETATM   11  C3  UNL     1      -4.740   2.411  15.403  1.00  0.00     0.680 A
ATOM     12  H1  UNL     1      -4.349   0.855  14.167  1.00  0.00     0.186 HD
HETATM   13  N3  UNL     1      -4.588   3.726  15.551  1.00  0.00    -0.201 N
HETATM   14  C7  UNL     1      -3.938   4.484  14.591  1.00  0.00     0.126 A
ATOM     15  H3  UNL     1      -4.955   4.182  16.386  1.00  0.00     0.183 HD
BRANCH   9  16
HETATM   16  O1  UNL     1      -3.103   1.905  12.192  1.00  0.00    -0.340 OA
HETATM   17  C1  UNL     1      -4.044   1.254  11.363  1.00  0.00     0.211 C
ENDBRANCH   9  16
BRANCH  11  18
HETATM   18  N2  UNL     1      -5.350   1.709  16.309  1.00  0.00    -0.222 N
ATOM     19  H2  UNL     1      -4.985   0.780  16.520  1.00  0.00     0.178 HD
BRANCH  18  20
HETATM   20  C4  UNL     1      -6.497   2.156  17.029  1.00  0.00     0.091 C
HETATM   21  C5  UNL     1      -6.144   2.536  18.461  1.00  0.00     0.032 C
HETATM   22  C6  UNL     1      -7.658   1.214  16.970  1.00  0.00     0.032 C
ENDBRANCH  18  20
ENDBRANCH  11  18
ENDBRANCH   1   8
BRANCH   7  23
HETATM   23  C11 UNL     1      -4.521   5.564  10.897  1.00  0.00     0.111 C
HETATM   24  C12 UNL     1      -4.452   6.115   9.453  1.00  0.00     0.030 C
HETATM   25  C13 UNL     1      -4.686   7.594   9.390  1.00  0.00     0.044 C
HETATM   26  C14 UNL     1      -6.174   7.836   9.692  1.00  0.00     0.158 C
HETATM   27  C15 UNL     1      -6.901   7.175   8.530  1.00  0.00     0.049 C
HETATM   28  C18 UNL     1      -6.492   7.075  10.913  1.00  0.00     0.022 C
HETATM   29  C19 UNL     1      -7.453   7.712  11.861  1.00  0.00     0.012 C
HETATM   30  C20 UNL     1      -5.235   6.665  11.674  1.00  0.00     0.034 C
BRANCH  26  31
HETATM   31  N8  UNL     1      -6.478   9.227   9.791  1.00  0.00     0.089 N
HETATM   32  C16 UNL     1      -7.151   9.689   8.550  1.00  0.00     0.310 C
HETATM   33  C17 UNL     1      -5.311  10.084   9.967  1.00  0.00     0.310 C
ENDBRANCH  26  31
ENDBRANCH   7  23
BRANCH   4  34
HETATM   34  N5  UNL     1       0.232   5.592  10.931  1.00  0.00    -0.130 N
HETATM   35 CL1  UNL     1       1.479   4.393  11.096  1.00  0.00     0.026 Cl
ATOM     36  H5  UNL     1       0.480   6.505  10.552  1.00  0.00     0.199 HD
ENDBRANCH   4  34
TORSDOF 7
ENDMDL