MODEL 2
REMARK VINA RESULT: -8.276172490      1.341      2.364
REMARK  6 active torsions:
REMARK  status: ('A' for Active; 'I' for Inactive)
REMARK    1  A    between atoms: C2_2  and  C4_4
REMARK    2  A    between atoms: C6_6  and  O1_7
REMARK    3  A    between atoms: N1_10  and  C8_11
REMARK    4  A    between atoms: C10_13  and  N2_14
REMARK    5  A    between atoms: C15_20  and  N3_21
REMARK    6  A    between atoms: C22_28  and  C23_29
ROOT
HETATM    1  C8  UNL     1      -3.425   3.482  11.920  1.00  0.00     0.107 A
HETATM    2  C9  UNL     1      -3.103   2.260  11.377  1.00  0.00     0.081 A
HETATM    3  C10 UNL     1      -3.456   1.041  11.938  1.00  0.00     0.076 A
HETATM    4  C14 UNL     1      -4.169   1.056  13.112  1.00  0.00     0.186 A
HETATM    5  F1  UNL     1      -4.520  -0.139  13.677  1.00  0.00    -0.200 F
HETATM    6  C15 UNL     1      -4.505   2.278  13.679  1.00  0.00     0.147 A
HETATM    7  N4  UNL     1      -4.135   3.403  13.088  1.00  0.00    -0.326 N
ATOM      8  H4  UNL     1      -4.401   4.279  13.537  1.00  0.00     0.169 HD
ENDROOT
BRANCH   6   9
HETATM    9  N3  UNL     1      -5.256   2.308  14.890  1.00  0.00    -0.350 N
HETATM   10  C16 UNL     1      -4.968   1.277  15.861  1.00  0.00     0.126 C
HETATM   11  C17 UNL     1      -4.976   1.757  17.278  1.00  0.00     0.028 C
HETATM   12  C18 UNL     1      -6.327   2.406  17.516  1.00  0.00    -0.044 C
HETATM   13  C19 UNL     1      -6.371   2.876  18.946  1.00  0.00     0.015 C
HETATM   14  C20 UNL     1      -7.472   1.482  17.212  1.00  0.00     0.015 C
HETATM   15  C21 UNL     1      -6.396   3.604  16.632  1.00  0.00     0.045 C
HETATM   16  C22 UNL     1      -6.261   3.292  15.150  1.00  0.00     0.187 C
BRANCH  16  17
HETATM   17  C23 UNL     1      -6.038   4.592  14.489  1.00  0.00     0.196 C
HETATM   18  O2  UNL     1      -6.710   4.942  13.510  1.00  0.00    -0.646 OA
HETATM   19  O3  UNL     1      -5.056   5.428  14.980  1.00  0.00    -0.646 OA
ENDBRANCH  16  17
ENDBRANCH   6   9
BRANCH   3  20
HETATM   20  N2  UNL     1      -3.104  -0.196  11.345  1.00  0.00    -0.378 N
HETATM   21  C11 UNL     1      -1.882  -0.955  11.175  1.00  0.00     0.124 C
HETATM   22  C12 UNL     1      -2.726  -2.211  11.129  1.00  0.00     0.040 C
HETATM   23  C13 UNL     1      -3.798  -1.254  10.643  1.00  0.00     0.124 C
ENDBRANCH   3  20
BRANCH   1  24
HETATM   24  N1  UNL     1      -3.092   4.742  11.428  1.00  0.00    -0.360 N
HETATM   25  C4  UNL     1      -1.981   5.618  11.374  1.00  0.00     0.091 C
HETATM   26  C5  UNL     1      -1.815   5.797   9.867  1.00  0.00     0.059 C
HETATM   27  C6  UNL     1      -3.281   5.831   9.413  1.00  0.00     0.138 C
HETATM   28  C7  UNL     1      -4.104   5.557  10.675  1.00  0.00     0.156 C
BRANCH  25  29
HETATM   29  C2  UNL     1      -0.739   5.311  12.090  1.00  0.00     0.000 C
HETATM   30  C1  UNL     1       0.093   4.428  11.118  1.00  0.00     0.011 C
HETATM   31  C3  UNL     1       0.067   6.573  12.275  1.00  0.00     0.011 C
ENDBRANCH  25  29
BRANCH  27  32
HETATM   32  O1  UNL     1      -3.536   4.809   8.520  1.00  0.00    -0.394 OA
ATOM     33  H1  UNL     1      -4.146   5.094   7.850  1.00  0.00     0.210 HD
ENDBRANCH  27  32
ENDBRANCH   1  24
TORSDOF 6
ENDMDL