MODEL 5
REMARK VINA RESULT: -7.704548791      0.977      1.450
REMARK  7 active torsions:
REMARK  status: ('A' for Active; 'I' for Inactive)
REMARK    1  A    between atoms: O1_2  and  C2_3
REMARK       I    between atoms: C2_3  and  N1_5
REMARK    2  A    between atoms: N1_5  and  C3_7
REMARK    3  A    between atoms: C6_10  and  C7_11
REMARK    4  A    between atoms: C7_11  and  N2_12
REMARK    5  A    between atoms: N2_12  and  C9_14
REMARK    6  A    between atoms: N3_16  and  C11_17
REMARK    7  A    between atoms: C16_25  and  O3_26
ROOT
HETATM    1  C11 UNL     1      -4.507   4.132  14.634  1.00  0.00     0.137 A
HETATM    2  N4  UNL     1      -3.920   2.959  14.396  1.00  0.00    -0.349 N
ATOM      3  H4  UNL     1      -3.182   2.891  13.695  1.00  0.00     0.167 HD
HETATM    4  C12 UNL     1      -4.302   1.859  15.084  1.00  0.00     0.112 A
HETATM    5  C13 UNL     1      -5.291   1.954  16.023  1.00  0.00     0.062 A
HETATM    6  C14 UNL     1      -5.696   0.777  16.752  1.00  0.00     0.101 C
HETATM    7  N5  UNL     1      -6.007  -0.165  17.323  1.00  0.00    -0.191 NA
HETATM    8  C15 UNL     1      -5.926   3.151  16.300  1.00  0.00     0.064 A
HETATM    9  C16 UNL     1      -5.498   4.257  15.566  1.00  0.00     0.111 A
ENDROOT
BRANCH   9  10
HETATM   10  O3  UNL     1      -6.130   5.461  15.836  1.00  0.00    -0.357 OA
ATOM     11  H3  UNL     1      -6.937   5.727  15.411  1.00  0.00     0.218 HD
ENDBRANCH   9  10
BRANCH   1  12
HETATM   12  N3  UNL     1      -4.105   5.322  13.907  1.00  0.00    -0.363 N
HETATM   13  C10 UNL     1      -4.799   5.669  12.698  1.00  0.00     0.160 C
HETATM   14  C9  UNL     1      -3.787   6.189  11.660  1.00  0.00     0.244 C
HETATM   15  C19 UNL     1      -3.001   7.219  12.395  1.00  0.00     0.018 C
HETATM   16  C18 UNL     1      -2.083   6.468  13.378  1.00  0.00     0.026 C
HETATM   17  C20 UNL     1      -2.150   8.169  11.662  1.00  0.00     0.012 C
HETATM   18  C17 UNL     1      -3.012   6.043  14.507  1.00  0.00     0.125 C
BRANCH  14  19
HETATM   19  N2  UNL     1      -4.494   6.721  10.504  1.00  0.00     0.091 N
HETATM   20  C8  UNL     1      -4.049   5.857   9.375  1.00  0.00     0.310 C
BRANCH  19  21
HETATM   21  C7  UNL     1      -5.911   6.442  10.688  1.00  0.00     0.277 C
BRANCH  21  22
HETATM   22  C6  UNL     1      -6.833   7.445  10.075  1.00  0.00     0.014 C
HETATM   23  C5  UNL     1      -7.419   6.988   8.760  1.00  0.00     0.008 C
HETATM   24  C4  UNL     1      -8.437   8.043   8.367  1.00  0.00     0.026 C
HETATM   25  C3  UNL     1      -7.594   9.209   7.830  1.00  0.00     0.086 C
HETATM   26  C22 UNL     1      -6.197   9.166   8.334  1.00  0.00     0.026 C
HETATM   27  C21 UNL     1      -6.026   8.701   9.750  1.00  0.00     0.008 C
BRANCH  25  28
HETATM   28  N1  UNL     1      -8.279  10.457   7.972  1.00  0.00    -0.332 N
HETATM   29  C2  UNL     1      -9.170  10.991   7.002  1.00  0.00     0.360 C
HETATM   30  O2  UNL     1      -9.363  10.320   5.961  1.00  0.00    -0.239 OA
ATOM     31  H1  UNL     1      -8.117  10.997   8.823  1.00  0.00     0.165 HD
BRANCH  29  32
HETATM   32  O1  UNL     1      -9.829  12.192   7.143  1.00  0.00    -0.309 OA
HETATM   33  C1  UNL     1      -9.820  12.981   8.296  1.00  0.00     0.215 C
ENDBRANCH  29  32
ENDBRANCH  25  28
ENDBRANCH  21  22
ENDBRANCH  19  21
ENDBRANCH  14  19
ENDBRANCH   1  12
TORSDOF 7
ENDMDL