MODEL 4
REMARK VINA RESULT: -6.632276018      2.611      3.880
REMARK  6 active torsions:
REMARK  status: ('A' for Active; 'I' for Inactive)
REMARK    1  A    between atoms: C2_2  and  O1_4
REMARK    2  A    between atoms: O1_4  and  C4_5
REMARK    3  A    between atoms: C4_5  and  C5_7
REMARK    4  A    between atoms: C5_7  and  N1_10
REMARK       I    between atoms: N1_10  and  C8_12
REMARK    5  A    between atoms: C8_12  and  C9_14
REMARK    6  A    between atoms: C9_14  and  N2_15
ROOT
HETATM    1  C9  UNL     1      -1.846   5.514  11.623  1.00  0.00     0.118 C
HETATM    2  C14 UNL     1      -0.410   5.308  12.081  1.00  0.00     0.052 C
HETATM    3  C15 UNL     1       0.639   6.041  11.376  1.00  0.00     0.084 C
HETATM    4  S1  UNL     1       0.956   7.649  12.206  1.00  0.00    -0.111 SA
HETATM    5  C16 UNL     1      -0.416   7.875  13.368  1.00  0.00     0.091 A
HETATM    6  N3  UNL     1      -0.503   8.368  14.613  1.00  0.00    -0.320 N
ATOM      7  H3  UNL     1       0.179   8.759  15.264  1.00  0.00     0.175 HD
HETATM    8  S2  UNL     1      -2.155   8.099  14.692  1.00  0.00    -0.015 SA
HETATM    9  C17 UNL     1      -1.753   7.534  13.130  1.00  0.00     0.040 A
HETATM   10  C18 UNL     1      -2.287   6.940  11.892  1.00  0.00     0.063 C
HETATM   11  C19 UNL     1      -2.071   7.901  10.769  1.00  0.00     0.018 C
ENDROOT
BRANCH   1  12
HETATM   12  C8  UNL     1      -2.589   4.708  12.628  1.00  0.00     0.247 C
HETATM   13  N1  UNL     1      -3.955   4.651  12.858  1.00  0.00    -0.341 N
ATOM     14  H1  UNL     1      -4.563   5.226  12.276  1.00  0.00     0.163 HD
HETATM   15  O3  UNL     1      -1.859   3.975  13.372  1.00  0.00    -0.271 OA
BRANCH  13  16
HETATM   16  C5  UNL     1      -4.574   3.817  13.880  1.00  0.00     0.113 C
HETATM   17  C6  UNL     1      -6.038   4.074  14.044  1.00  0.00     0.049 C
HETATM   18  C7  UNL     1      -3.907   3.978  15.227  1.00  0.00     0.049 C
BRANCH  16  19
HETATM   19  C4  UNL     1      -4.409   2.371  13.535  1.00  0.00     0.287 C
HETATM   20  O2  UNL     1      -4.159   1.578  14.478  1.00  0.00    -0.262 OA
BRANCH  19  21
HETATM   21  O1  UNL     1      -4.519   1.888  12.263  1.00  0.00    -0.315 OA
BRANCH  21  22
HETATM   22  C2  UNL     1      -3.714   0.841  11.811  1.00  0.00     0.123 C
HETATM   23  C1  UNL     1      -4.450  -0.017  10.778  1.00  0.00     0.040 C
HETATM   24  C3  UNL     1      -2.421   1.260  11.195  1.00  0.00     0.040 C
ENDBRANCH  21  22
ENDBRANCH  19  21
ENDBRANCH  16  19
ENDBRANCH  13  16
ENDBRANCH   1  12
BRANCH   1  25
HETATM   25  N2  UNL     1      -1.986   5.162  10.282  1.00  0.00    -0.391 N
HETATM   26  C10 UNL     1      -3.268   4.988   9.710  1.00  0.00     0.144 C
HETATM   27  C11 UNL     1      -3.221   5.522   8.264  1.00  0.00     0.187 C
HETATM   28  O4  UNL     1      -1.906   5.797   7.900  1.00  0.00    -0.388 OA
HETATM   29  C12 UNL     1      -1.033   4.738   8.159  1.00  0.00     0.187 C
HETATM   30  C13 UNL     1      -1.044   4.339   9.629  1.00  0.00     0.144 C
ENDBRANCH   1  25
TORSDOF 6
ENDMDL