MODEL 1
REMARK VINA RESULT: -8.296495928      0.000      0.000
REMARK  7 active torsions:
REMARK  status: ('A' for Active; 'I' for Inactive)
REMARK    1  A    between atoms: O1_2  and  S1_3
REMARK    2  A    between atoms: S1_3  and  O4_6
REMARK    3  A    between atoms: O4_6  and  C2_7
REMARK    4  A    between atoms: C4_9  and  O5_10
REMARK    5  A    between atoms: C7_14  and  C8_15
REMARK    6  A    between atoms: C8_15  and  C9_16
REMARK    7  A    between atoms: C10_17  and  O6_18
ROOT
HETATM    1  C2  UNL     1      -4.614   2.376  13.391  1.00  0.00     0.159 C
HETATM    2  C3  UNL     1      -4.102   1.421  12.333  1.00  0.00     0.066 C
HETATM    3  C4  UNL     1      -4.720   1.685  10.985  1.00  0.00     0.124 C
HETATM    4  C5  UNL     1      -4.244   3.017  10.501  1.00  0.00     0.066 C
HETATM    5  C6  UNL     1      -4.183   4.036  11.574  1.00  0.00    -0.071 C
HETATM    6  C7  UNL     1      -3.797   5.262  11.216  1.00  0.00    -0.023 C
HETATM    7  C17 UNL     1      -4.509   3.803  12.988  1.00  0.00     0.003 C
HETATM    8  C18 UNL     1      -3.464   4.547  13.816  1.00  0.00     0.022 C
HETATM    9  C19 UNL     1      -5.836   4.526  13.254  1.00  0.00     0.022 C
ENDROOT
BRANCH   6  10
HETATM   10  C8  UNL     1      -3.439   5.627   9.818  1.00  0.00     0.035 C
BRANCH  10  11
HETATM   11  C9  UNL     1      -4.139   6.897   9.396  1.00  0.00     0.026 C
HETATM   12  C10 UNL     1      -4.261   7.007   7.894  1.00  0.00     0.126 C
HETATM   13  C11 UNL     1      -5.271   8.131   7.757  1.00  0.00     0.070 C
HETATM   14  C12 UNL     1      -6.302   7.749   8.793  1.00  0.00     0.065 C
HETATM   15  C13 UNL     1      -7.422   7.002   8.103  1.00  0.00     0.046 C
HETATM   16  O7  UNL     1      -6.845   8.830   9.441  1.00  0.00    -0.379 OA
HETATM   17  C16 UNL     1      -5.591   6.899   9.822  1.00  0.00     0.047 C
HETATM   18  C14 UNL     1      -6.185   9.021  10.628  1.00  0.00     0.189 C
HETATM   19  C15 UNL     1      -5.769   7.660  11.124  1.00  0.00     0.113 C
HETATM   20 CL1  UNL     1      -7.055   6.866  12.052  1.00  0.00    -0.122 Cl
BRANCH  12  21
HETATM   21  O6  UNL     1      -4.801   5.832   7.380  1.00  0.00    -0.395 OA
ATOM     22  H6  UNL     1      -4.972   5.937   6.451  1.00  0.00     0.210 HD
ENDBRANCH  12  21
ENDBRANCH  10  11
ENDBRANCH   6  10
BRANCH   3  23
HETATM   23  O5  UNL     1      -4.242   0.712  10.108  1.00  0.00    -0.395 OA
ATOM     24  H5  UNL     1      -3.750   0.082  10.623  1.00  0.00     0.210 HD
ENDBRANCH   3  23
BRANCH   1  25
HETATM   25  O4  UNL     1      -3.821   2.168  14.516  1.00  0.00    -0.247 OA
BRANCH  25  26
HETATM   26  S1  UNL     1      -4.545   1.192  15.654  1.00  0.00     0.402 S
HETATM   27  O2  UNL     1      -3.567   0.944  16.764  1.00  0.00    -0.169 OA
HETATM   28  O3  UNL     1      -4.812  -0.149  15.008  1.00  0.00    -0.169 OA
BRANCH  26  29
HETATM   29  O1  UNL     1      -6.003   1.791  16.198  1.00  0.00    -0.259 OA
HETATM   30  C1  UNL     1      -6.536   0.875  17.106  1.00  0.00     0.228 C
ENDBRANCH  26  29
ENDBRANCH  25  26
ENDBRANCH   1  25
TORSDOF 7
ENDMDL