MODEL 2
REMARK VINA RESULT: -7.332317731      2.944      7.254
REMARK  8 active torsions:
REMARK  status: ('A' for Active; 'I' for Inactive)
REMARK    1  A    between atoms: C2_2  and  C3_3
REMARK    2  A    between atoms: C3_3  and  C4_4
REMARK    3  A    between atoms: C4_4  and  N1_5
REMARK    4  A    between atoms: N1_5  and  C5_6
REMARK    5  A    between atoms: C5_6  and  O1_7
REMARK    6  A    between atoms: C5_6  and  N2_9
REMARK    7  A    between atoms: N2_9  and  C6_11
REMARK    8  A    between atoms: C10_16  and  C11_17
REMARK       I    between atoms: N3_21  and  C14_23
ROOT
HETATM    1  C11 UNL     1      -3.400   4.522  12.082  1.00  0.00     0.030 C
HETATM    2  S1  UNL     1      -1.734   5.164  12.264  1.00  0.00    -0.125 SA
HETATM    3  C12 UNL     1      -1.800   6.840  11.572  1.00  0.00     0.133 C
HETATM    4  C13 UNL     1      -3.159   7.371  11.515  1.00  0.00     0.020 C
HETATM    5  N3  UNL     1      -3.334   8.542  11.031  1.00  0.00    -0.333 N
ATOM      6  H3  UNL     1      -4.301   8.869  11.014  1.00  0.00     0.168 HD
HETATM    7  C14 UNL     1      -2.422   9.409  10.538  1.00  0.00     0.217 C
HETATM    8  C15 UNL     1      -2.809  10.808  10.103  1.00  0.00     0.117 C
HETATM    9  O2  UNL     1      -1.167   9.175  10.373  1.00  0.00    -0.274 OA
HETATM   10  C16 UNL     1      -4.453   6.758  11.954  1.00  0.00     0.181 C
HETATM   11  C17 UNL     1      -5.333   6.558  10.792  1.00  0.00     0.073 C
HETATM   12  N4  UNL     1      -6.009   6.372   9.849  1.00  0.00    -0.196 NA
HETATM   13  C18 UNL     1      -4.327   5.489  12.732  1.00  0.00     0.192 C
HETATM   14  C19 UNL     1      -5.565   5.004  13.263  1.00  0.00     0.092 C
HETATM   15  N5  UNL     1      -6.576   4.618  13.646  1.00  0.00    -0.195 NA
HETATM   16  C20 UNL     1      -3.577   5.975  13.997  1.00  0.00     0.092 C
HETATM   17  N6  UNL     1      -2.968   6.343  14.938  1.00  0.00    -0.195 NA
ENDROOT
BRANCH   1  18
HETATM   18  C10 UNL     1      -3.625   3.095  12.044  1.00  0.00     0.020 A
HETATM   19  C9  UNL     1      -4.049   2.568  10.796  1.00  0.00     0.127 A
HETATM   20  C8  UNL     1      -4.476   1.286  10.766  1.00  0.00     0.045 A
HETATM   21  F1  UNL     1      -4.003   3.418   9.750  1.00  0.00    -0.205 F
HETATM   22  C7  UNL     1      -4.509   0.496  11.916  1.00  0.00     0.032 A
HETATM   23  C6  UNL     1      -4.122   0.960  13.130  1.00  0.00     0.037 A
HETATM   24  C21 UNL     1      -3.660   2.296  13.183  1.00  0.00     0.045 A
BRANCH  23  25
HETATM   25  N2  UNL     1      -4.207   0.281  14.365  1.00  0.00    -0.311 N
ATOM     26  H2  UNL     1      -4.065  -0.729  14.340  1.00  0.00     0.170 HD
BRANCH  25  27
HETATM   27  C5  UNL     1      -4.468   0.854  15.642  1.00  0.00     0.293 C
BRANCH  27  28
HETATM   28  N1  UNL     1      -5.558   0.856  16.123  1.00  0.00    -0.410 NA
BRANCH  28  29
HETATM   29  C4  UNL     1      -6.651   1.262  16.856  1.00  0.00     0.226 C
BRANCH  29  30
HETATM   30  C3  UNL     1      -6.287   1.780  18.268  1.00  0.00     0.059 C
BRANCH  30  31
HETATM   31  C2  UNL     1      -6.417   3.231  18.298  1.00  0.00    -0.034 C
HETATM   32  C1  UNL     1      -6.851   3.875  17.205  1.00  0.00     0.007 C
ENDBRANCH  30  31
ENDBRANCH  29  30
ENDBRANCH  28  29
ENDBRANCH  27  28
BRANCH  27  33
HETATM   33  O1  UNL     1      -3.433   1.463  16.430  1.00  0.00    -0.322 OA
ATOM     34  H1  UNL     1      -3.409   2.413  16.421  1.00  0.00     0.222 HD
ENDBRANCH  27  33
ENDBRANCH  25  27
ENDBRANCH  23  25
ENDBRANCH   1  18
TORSDOF 8
ENDMDL