MODEL 4
REMARK VINA RESULT: -7.830061463      0.903      1.262
REMARK  6 active torsions:
REMARK  status: ('A' for Active; 'I' for Inactive)
REMARK    1  A    between atoms: O1_2  and  C2_3
REMARK    2  A    between atoms: N1_5  and  C4_6
REMARK    3  A    between atoms: C11_16  and  O3_17
REMARK    4  A    between atoms: O3_17  and  C12_18
REMARK    5  A    between atoms: N3_26  and  C20_27
REMARK    6  A    between atoms: C24_31  and  N4_32
ROOT
HETATM    1  C4  UNL     1      -0.544   4.291  10.644  1.00  0.00     0.073 A
HETATM    2  C5  UNL     1      -1.427   3.283  10.967  1.00  0.00     0.063 A
HETATM    3  C6  UNL     1      -2.314   3.423  12.025  1.00  0.00     0.053 A
HETATM    4  C7  UNL     1      -2.328   4.583  12.779  1.00  0.00     0.071 A
HETATM    5  C8  UNL     1      -1.454   5.611  12.476  1.00  0.00     0.103 A
HETATM    6  N2  UNL     1      -1.445   6.823  13.236  1.00  0.00    -0.098 NA
HETATM    7  C9  UNL     1      -0.589   5.431  11.417  1.00  0.00     0.168 A
HETATM    8  F1  UNL     1       0.287   6.433  11.098  1.00  0.00    -0.202 F
HETATM    9  C10 UNL     1      -3.212   4.750  13.852  1.00  0.00     0.221 A
HETATM   10  O2  UNL     1      -3.137   5.841  14.463  1.00  0.00    -0.284 OA
HETATM   11  C11 UNL     1      -4.096   3.756  14.186  1.00  0.00     0.136 A
HETATM   12  C19 UNL     1      -4.044   2.596  13.392  1.00  0.00     0.132 A
HETATM   13  N3  UNL     1      -3.183   2.475  12.373  1.00  0.00    -0.348 N
ENDROOT
BRANCH   1  14
HETATM   14  N1  UNL     1       0.382   4.197   9.572  1.00  0.00    -0.374 N
HETATM   15  C3  UNL     1       1.819   3.947   9.729  1.00  0.00     0.157 C
HETATM   16  C2  UNL     1       2.483   4.725   8.595  1.00  0.00     0.170 C
HETATM   17  C24 UNL     1       1.351   5.157   7.680  1.00  0.00     0.231 C
HETATM   18  C23 UNL     1       0.178   4.313   8.144  1.00  0.00     0.158 C
BRANCH  16  19
HETATM   19  O1  UNL     1       3.160   5.845   9.098  1.00  0.00    -0.387 OA
HETATM   20  C1  UNL     1       3.579   5.594  10.402  1.00  0.00     0.202 C
ENDBRANCH  16  19
BRANCH  17  21
HETATM   21  N4  UNL     1       1.642   4.965   6.292  1.00  0.00    -0.071 N
ATOM     22  H43 UNL     1       1.081   4.207   5.905  1.00  0.00     0.274 HD
ATOM     23  H42 UNL     1       1.284   5.740   5.735  1.00  0.00     0.274 HD
ATOM     24  H41 UNL     1       2.634   4.812   6.109  1.00  0.00     0.274 HD
ENDBRANCH  17  21
ENDBRANCH   1  14
BRANCH  13  25
HETATM   25  C20 UNL     1      -3.178   1.249  11.586  1.00  0.00     0.090 A
HETATM   26  C21 UNL     1      -4.052   0.119  11.918  1.00  0.00     0.028 A
HETATM   27  C22 UNL     1      -4.450   1.028  10.797  1.00  0.00     0.028 A
ENDBRANCH  13  25
BRANCH  11  28
HETATM   28  O3  UNL     1      -4.981   3.807  15.188  1.00  0.00    -0.340 OA
BRANCH  28  29
HETATM   29  C12 UNL     1      -6.097   3.073  15.546  1.00  0.00     0.134 C
HETATM   30  C13 UNL     1      -6.748   3.806  16.712  1.00  0.00     0.033 C
HETATM   31  C14 UNL     1      -6.019   3.293  17.909  1.00  0.00     0.008 C
HETATM   32  C15 UNL     1      -5.415   1.972  17.533  1.00  0.00    -0.003 A
HETATM   33  C16 UNL     1      -6.386   0.947  17.041  1.00  0.00    -0.007 A
HETATM   34  C18 UNL     1      -5.614   1.746  16.098  1.00  0.00     0.024 A
HETATM   35  C17 UNL     1      -7.852   1.081  17.264  1.00  0.00     0.011 C
ENDBRANCH  28  29
ENDBRANCH  11  28
TORSDOF 6
ENDMDL