MODEL 2
REMARK VINA RESULT: -7.766010914      4.634      8.362
REMARK  7 active torsions:
REMARK  status: ('A' for Active; 'I' for Inactive)
REMARK    1  A    between atoms: C2_2  and  O1_5
REMARK    2  A    between atoms: O1_5  and  C5_6
REMARK       I    between atoms: C5_6  and  N1_8
REMARK    3  A    between atoms: C8_11  and  N2_12
REMARK    4  A    between atoms: C10_14  and  C11_15
REMARK    5  A    between atoms: C11_15  and  N3_17
REMARK    6  A    between atoms: C11_15  and  C15_22
REMARK    7  A    between atoms: N3_17  and  C12_19
ROOT
HETATM    1  N2  UNL     1      -5.133   5.740  11.743  1.00  0.00    -0.348 N
HETATM    2  C9  UNL     1      -6.024   6.706  11.402  1.00  0.00     0.105 A
HETATM    3  C10 UNL     1      -5.747   7.178  10.143  1.00  0.00     0.042 A
HETATM    4  C16 UNL     1      -4.655   6.475   9.712  1.00  0.00     0.023 A
HETATM    5  C17 UNL     1      -3.985   6.567   8.520  1.00  0.00     0.102 A
HETATM    6  N4  UNL     1      -2.930   5.769   8.314  1.00  0.00    -0.371 N
ATOM      7  H4  UNL     1      -2.416   5.822   7.434  1.00  0.00     0.164 HD
HETATM    8  C18 UNL     1      -2.546   4.899   9.263  1.00  0.00     0.132 A
HETATM    9  C19 UNL     1      -3.187   4.773  10.469  1.00  0.00     0.159 A
HETATM   10  F2  UNL     1      -2.799   3.895  11.423  1.00  0.00    -0.202 F
HETATM   11  C20 UNL     1      -4.280   5.581  10.717  1.00  0.00     0.087 A
ENDROOT
BRANCH   1  12
HETATM   12  C8  UNL     1      -5.093   5.002  12.989  1.00  0.00     0.092 C
HETATM   13  C7  UNL     1      -6.377   5.139  13.792  1.00  0.00     0.045 C
HETATM   14  C6  UNL     1      -6.157   4.737  15.233  1.00  0.00     0.130 C
HETATM   15  N1  UNL     1      -4.911   4.006  15.296  1.00  0.00    -0.328 N
HETATM   16  C5  UNL     1      -4.803   2.626  15.581  1.00  0.00     0.363 C
HETATM   17  C22 UNL     1      -3.693   4.760  15.044  1.00  0.00     0.130 C
HETATM   18  O2  UNL     1      -3.709   2.013  15.632  1.00  0.00    -0.238 OA
HETATM   19  C21 UNL     1      -3.950   5.613  13.818  1.00  0.00     0.045 C
BRANCH  16  20
HETATM   20  O1  UNL     1      -5.945   1.855  15.827  1.00  0.00    -0.294 OA
BRANCH  20  21
HETATM   21  C2  UNL     1      -6.296   1.466  17.147  1.00  0.00     0.061 C
HETATM   22  C1  UNL     1      -6.004   2.568  18.140  1.00  0.00     0.046 C
HETATM   23  C3  UNL     1      -5.668   0.168  17.533  1.00  0.00     0.046 C
HETATM   24  C4  UNL     1      -7.808   1.260  17.148  1.00  0.00     0.046 C
ENDBRANCH  20  21
ENDBRANCH  16  20
ENDBRANCH   1  12
BRANCH   3  25
HETATM   25  C11 UNL     1      -6.498   8.219   9.451  1.00  0.00     0.291 C
HETATM   26  F1  UNL     1      -7.548   8.574  10.322  1.00  0.00    -0.202 F
BRANCH  25  27
HETATM   27  N3  UNL     1      -5.789   9.422   9.202  1.00  0.00    -0.371 N
ATOM     28  H3  UNL     1      -5.152   9.511   8.409  1.00  0.00     0.157 HD
BRANCH  27  29
HETATM   29  C12 UNL     1      -6.005  10.499  10.108  1.00  0.00     0.080 A
HETATM   30  C13 UNL     1      -4.890  11.551  10.065  1.00  0.00     0.027 A
HETATM   31  C14 UNL     1      -6.289  11.899   9.616  1.00  0.00     0.027 A
ENDBRANCH  27  29
ENDBRANCH  25  27
BRANCH  25  32
HETATM   32  C15 UNL     1      -7.181   7.752   8.222  1.00  0.00     0.241 C
HETATM   33  O3  UNL     1      -7.182   8.394   7.145  1.00  0.00    -0.644 OA
HETATM   34  O4  UNL     1      -7.887   6.534   8.184  1.00  0.00    -0.644 OA
ENDBRANCH  25  32
ENDBRANCH   3  25
TORSDOF 7
ENDMDL