MODEL 3
REMARK VINA RESULT: -6.819712129      3.638      7.888
REMARK  7 active torsions:
REMARK  status: ('A' for Active; 'I' for Inactive)
REMARK    1  A    between atoms: C4_4  and  N1_5
REMARK    2  A    between atoms: N2_10  and  C6_11
REMARK    3  A    between atoms: C7_12  and  O1_13
REMARK    4  A    between atoms: O1_13  and  C8_14
REMARK    5  A    between atoms: C16_23  and  C17_24
REMARK    6  A    between atoms: C17_24  and  O3_25
REMARK    7  A    between atoms: N4_31  and  C20_32
ROOT
HETATM    1  C6  UNL     1      -3.084   3.910  12.574  1.00  0.00     0.106 A
HETATM    2  C7  UNL     1      -3.830   4.420  13.594  1.00  0.00     0.109 A
HETATM    3  C16 UNL     1      -3.407   5.669  14.115  1.00  0.00     0.030 A
HETATM    4  C18 UNL     1      -2.306   6.310  13.609  1.00  0.00     0.074 A
HETATM    5  N3  UNL     1      -1.708   7.479  13.922  1.00  0.00    -0.350 N
ATOM      6  H3  UNL     1      -2.010   8.129  14.649  1.00  0.00     0.166 HD
HETATM    7  C19 UNL     1      -0.648   7.641  13.114  1.00  0.00     0.184 A
HETATM    8  N4  UNL     1      -0.524   6.608  12.267  1.00  0.00    -0.334 N
HETATM    9  C23 UNL     1      -1.560   5.777  12.579  1.00  0.00     0.105 A
HETATM   10  C24 UNL     1      -1.942   4.575  12.053  1.00  0.00     0.174 A
HETATM   11  F1  UNL     1      -1.210   4.035  11.030  1.00  0.00    -0.201 F
ENDROOT
BRANCH   1  12
HETATM   12  N2  UNL     1      -3.326   2.705  11.838  1.00  0.00    -0.370 N
HETATM   13  C2  UNL     1      -2.718   1.389  12.117  1.00  0.00     0.082 C
HETATM   14  C1  UNL     1      -1.730   0.953  11.099  1.00  0.00     0.032 C
HETATM   15  C3  UNL     1      -3.905   0.442  12.159  1.00  0.00     0.059 C
HETATM   16  C4  UNL     1      -4.836   1.045  11.135  1.00  0.00     0.203 C
HETATM   17  C5  UNL     1      -4.238   2.397  10.760  1.00  0.00     0.156 C
BRANCH  16  18
HETATM   18  N1  UNL     1      -4.932   0.154  10.011  1.00  0.00    -0.073 N
ATOM     19  H13 UNL     1      -4.647   0.597   9.138  1.00  0.00     0.274 HD
ATOM     20  H12 UNL     1      -4.225  -0.581  10.036  1.00  0.00     0.274 HD
ATOM     21  H11 UNL     1      -5.880  -0.219   9.965  1.00  0.00     0.274 HD
ENDBRANCH  16  18
ENDBRANCH   1  12
BRANCH   2  22
HETATM   22  O1  UNL     1      -4.901   3.807  14.103  1.00  0.00    -0.343 OA
BRANCH  22  23
HETATM   23  C8  UNL     1      -5.291   2.949  15.073  1.00  0.00     0.130 C
HETATM   24  C9  UNL     1      -4.162   2.446  15.956  1.00  0.00     0.039 C
HETATM   25  C10 UNL     1      -4.687   1.543  17.034  1.00  0.00     0.012 C
HETATM   26  C11 UNL     1      -5.438   0.356  16.536  1.00  0.00     0.172 C
HETATM   27  C14 UNL     1      -5.608   2.325  17.978  1.00  0.00     0.013 C
HETATM   28  O2  UNL     1      -6.759   0.308  16.909  1.00  0.00    -0.390 OA
HETATM   29  C12 UNL     1      -7.473   1.458  16.643  1.00  0.00     0.172 C
HETATM   30  C13 UNL     1      -6.782   2.707  17.118  1.00  0.00     0.012 C
HETATM   31  C15 UNL     1      -6.306   3.583  15.982  1.00  0.00     0.039 C
ENDBRANCH  22  23
ENDBRANCH   2  22
BRANCH   3  32
HETATM   32  C17 UNL     1      -4.168   6.292  15.218  1.00  0.00     0.208 C
BRANCH  32  33
HETATM   33  O3  UNL     1      -3.358   7.181  15.928  1.00  0.00    -0.396 OA
ATOM     34  H3  UNL     1      -3.583   8.079  15.715  1.00  0.00     0.209 HD
ENDBRANCH  32  33
ENDBRANCH   3  32
BRANCH   8  35
HETATM   35  C20 UNL     1       0.468   6.385  11.244  1.00  0.00     0.091 A
HETATM   36  C21 UNL     1       1.740   7.146  11.299  1.00  0.00     0.028 A
HETATM   37  C22 UNL     1       1.735   5.700  11.707  1.00  0.00     0.028 A
ENDBRANCH   8  35
TORSDOF 7
ENDMDL