MODEL 4
REMARK VINA RESULT: -7.744943647      1.366      1.569
REMARK  11 active torsions:
REMARK  status: ('A' for Active; 'I' for Inactive)
REMARK    1  A    between atoms: N1_1  and  C1_5
REMARK    2  A    between atoms: C1_5  and  C2_6
REMARK    3  A    between atoms: C2_6  and  N2_7
REMARK    4  A    between atoms: N2_7  and  C3_9
REMARK    5  A    between atoms: C3_9  and  C4_10
REMARK    6  A    between atoms: C4_10  and  O1_11
REMARK    7  A    between atoms: O1_11  and  C5_12
REMARK    8  A    between atoms: C5_12  and  C6_13
REMARK    9  A    between atoms: C6_13  and  N3_14
REMARK       I    between atoms: N3_14  and  C7_16
REMARK   10  A    between atoms: C7_16  and  C8_18
REMARK   11  A    between atoms: N4_19  and  C9_21
ROOT
HETATM    1  C8  UNL     1      17.639   8.031  21.965  1.00  0.00     0.162 C
HETATM    2  N4  UNL     1      17.188   7.858  23.231  1.00  0.00    -0.359 N
ATOM      3  H4  UNL     1      17.910   7.295  23.680  1.00  0.00     0.165 HD
ENDROOT
BRANCH   1   4
HETATM    4  C7  UNL     1      18.910   7.318  21.557  1.00  0.00     0.256 C
HETATM    5  N3  UNL     1      19.675   7.882  20.508  1.00  0.00    -0.354 N
ATOM      6  H3  UNL     1      19.351   8.744  20.068  1.00  0.00     0.162 HD
HETATM    7  O2  UNL     1      19.233   6.280  22.146  1.00  0.00    -0.267 OA
BRANCH   5   8
HETATM    8  C6  UNL     1      20.889   7.280  20.045  1.00  0.00     0.149 C
BRANCH   8   9
HETATM    9  C5  UNL     1      22.072   8.122  20.441  1.00  0.00     0.187 C
BRANCH   9  10
HETATM   10  O1  UNL     1      22.390   7.734  21.753  1.00  0.00    -0.388 OA
BRANCH  10  11
HETATM   11  C4  UNL     1      22.653   8.851  22.550  1.00  0.00     0.186 C
BRANCH  11  12
HETATM   12  C3  UNL     1      21.568   9.014  23.568  1.00  0.00     0.140 C
BRANCH  12  13
HETATM   13  N2  UNL     1      21.230   7.731  24.096  1.00  0.00    -0.418 N
ATOM     14  H2  UNL     1      21.295   6.875  23.546  1.00  0.00     0.153 HD
BRANCH  13  15
HETATM   15  C2  UNL     1      20.791   7.740  25.460  1.00  0.00     0.141 C
BRANCH  15  16
HETATM   16  C1  UNL     1      21.914   7.204  26.325  1.00  0.00     0.248 C
BRANCH  16  17
HETATM   17  N1  UNL     1      22.680   8.263  26.949  1.00  0.00    -0.078 N
ATOM     18  H13 UNL     1      22.258   9.176  26.775  1.00  0.00     0.274 HD
ATOM     19  H12 UNL     1      22.590   8.234  27.964  1.00  0.00     0.274 HD
ATOM     20  H11 UNL     1      23.660   8.251  26.666  1.00  0.00     0.274 HD
ENDBRANCH  16  17
ENDBRANCH  15  16
ENDBRANCH  13  15
ENDBRANCH  12  13
ENDBRANCH  11  12
ENDBRANCH  10  11
ENDBRANCH   9  10
ENDBRANCH   8   9
ENDBRANCH   5   8
ENDBRANCH   1   4
BRANCH   2  21
HETATM   21  C9  UNL     1      16.357   8.034  24.108  1.00  0.00     0.057 A
HETATM   22  C10 UNL     1      15.270   7.187  24.314  1.00  0.00     0.018 A
HETATM   23  C11 UNL     1      15.035   6.075  23.533  1.00  0.00     0.016 A
HETATM   24  C15 UNL     1      14.405   7.497  25.352  1.00  0.00     0.045 A
HETATM   25  C12 UNL     1      13.946   5.243  23.750  1.00  0.00     0.001 A
HETATM   26  C13 UNL     1      13.094   5.554  24.778  1.00  0.00     0.002 A
HETATM   27  C14 UNL     1      13.317   6.657  25.563  1.00  0.00     0.030 A
HETATM   28  N5  UNL     1      14.561   8.559  26.155  1.00  0.00    -0.355 N
HETATM   29  C16 UNL     1      15.593   9.399  25.990  1.00  0.00     0.045 A
ATOM     30  H5  UNL     1      13.886   8.731  26.901  1.00  0.00     0.166 HD
HETATM   31  C17 UNL     1      15.725  10.499  26.844  1.00  0.00     0.030 A
HETATM   32  C21 UNL     1      16.479   9.142  24.981  1.00  0.00     0.018 A
HETATM   33  C18 UNL     1      16.776  11.369  26.686  1.00  0.00     0.002 A
HETATM   34  C19 UNL     1      17.680  11.133  25.679  1.00  0.00     0.001 A
HETATM   35  C20 UNL     1      17.522  10.041  24.855  1.00  0.00     0.016 A
ENDBRANCH   2  21
TORSDOF 11
ENDMDL