MODEL 1
REMARK VINA RESULT: -8.229273282      0.000      0.000
REMARK  13 active torsions:
REMARK  status: ('A' for Active; 'I' for Inactive)
REMARK    1  A    between atoms: O1_1  and  C1_3
REMARK    2  A    between atoms: C4_6  and  O2_7
REMARK    3  A    between atoms: C5_9  and  C6_10
REMARK    4  A    between atoms: C6_10  and  O3_11
REMARK    5  A    between atoms: O3_11  and  C7_12
REMARK    6  A    between atoms: C7_12  and  C8_13
REMARK    7  A    between atoms: C8_13  and  O4_14
REMARK    8  A    between atoms: O4_14  and  C9_15
REMARK    9  A    between atoms: C9_15  and  C10_16
REMARK   10  A    between atoms: C10_16  and  C11_17
REMARK   11  A    between atoms: C11_17  and  C12_18
REMARK   12  A    between atoms: C12_18  and  N1_19
REMARK   13  A    between atoms: N1_19  and  C13_22
ROOT
HETATM    1  C10 UNL     1      18.375  10.255  24.687  1.00  0.00     0.028 C
ENDROOT
BRANCH   1   2
HETATM    2  C9  UNL     1      18.723   9.015  25.433  1.00  0.00     0.167 C
BRANCH   2   3
HETATM    3  O4  UNL     1      20.032   9.042  25.821  1.00  0.00    -0.389 OA
BRANCH   3   4
HETATM    4  C8  UNL     1      20.812   7.977  25.466  1.00  0.00     0.193 C
BRANCH   4   5
HETATM    5  C7  UNL     1      21.518   8.177  24.142  1.00  0.00     0.194 C
BRANCH   5   6
HETATM    6  O3  UNL     1      21.040   7.396  23.130  1.00  0.00    -0.384 OA
BRANCH   6   7
HETATM    7  C6  UNL     1      20.228   8.010  22.211  1.00  0.00     0.209 C
BRANCH   7   8
HETATM    8  C5  UNL     1      18.921   7.273  22.058  1.00  0.00     0.001 A
HETATM    9  C4  UNL     1      17.957   7.737  21.191  1.00  0.00     0.074 A
HETATM   10  C3  UNL     1      16.742   7.059  21.044  1.00  0.00     0.040 A
HETATM   11  C2  UNL     1      16.483   5.912  21.760  1.00  0.00     0.039 A
HETATM   12  C1  UNL     1      17.457   5.449  22.630  1.00  0.00     0.066 A
HETATM   13  C22 UNL     1      18.666   6.127  22.776  1.00  0.00     0.048 A
BRANCH   9  14
HETATM   14  O2  UNL     1      18.209   8.887  20.467  1.00  0.00    -0.360 OA
ATOM     15  H2  UNL     1      17.499   9.469  20.224  1.00  0.00     0.217 HD
ENDBRANCH   9  14
BRANCH  12  16
HETATM   16  O1  UNL     1      17.191   4.297  23.349  1.00  0.00    -0.361 OA
ATOM     17  H1  UNL     1      17.315   3.462  22.915  1.00  0.00     0.217 HD
ENDBRANCH  12  16
ENDBRANCH   7   8
ENDBRANCH   6   7
ENDBRANCH   5   6
ENDBRANCH   4   5
ENDBRANCH   3   4
ENDBRANCH   2   3
ENDBRANCH   1   2
BRANCH   1  18
HETATM   18  C11 UNL     1      17.384  11.076  25.499  1.00  0.00     0.029 C
BRANCH  18  19
HETATM   19  C12 UNL     1      16.810  10.089  26.529  1.00  0.00     0.235 C
BRANCH  19  20
HETATM   20  N1  UNL     1      15.398  10.363  26.618  1.00  0.00    -0.051 N
ATOM     21  H12 UNL     1      14.964   9.884  27.408  1.00  0.00     0.280 HD
ATOM     22  H11 UNL     1      15.212  11.323  26.907  1.00  0.00     0.280 HD
BRANCH  20  23
HETATM   23  C13 UNL     1      14.749  10.034  25.351  1.00  0.00     0.308 A
HETATM   24  C14 UNL     1      15.052   8.606  25.058  1.00  0.00     0.039 A
HETATM   25  C15 UNL     1      14.141   7.662  24.936  1.00  0.00    -0.025 A
HETATM   26  C16 UNL     1      14.532   6.355  24.661  1.00  0.00     0.012 A
HETATM   27  C20 UNL     1      12.799   7.945  25.076  1.00  0.00    -0.011 A
HETATM   28  C17 UNL     1      13.607   5.347  24.527  1.00  0.00     0.001 A
HETATM   29  C18 UNL     1      12.252   5.629  24.667  1.00  0.00     0.001 A
HETATM   30  C19 UNL     1      11.873   6.924  24.939  1.00  0.00     0.013 A
HETATM   31  C21 UNL     1      12.445   9.192  25.337  1.00  0.00     0.097 A
HETATM   32  N2  UNL     1      13.350  10.271  25.488  1.00  0.00    -0.368 N
ATOM     33  H2  UNL     1      13.005  11.208  25.692  1.00  0.00     0.161 HD
ENDBRANCH  20  23
ENDBRANCH  19  20
ENDBRANCH  18  19
ENDBRANCH   1  18
TORSDOF 13
ENDMDL