MODEL 5
REMARK VINA RESULT: -6.711624148      2.721      6.368
REMARK  13 active torsions:
REMARK  status: ('A' for Active; 'I' for Inactive)
REMARK    1  A    between atoms: C2_2  and  C3_3
REMARK    2  A    between atoms: C6_8  and  N2_9
REMARK    3  A    between atoms: N2_9  and  C7_11
REMARK    4  A    between atoms: C7_11  and  C8_12
REMARK    5  A    between atoms: C8_12  and  C9_13
REMARK    6  A    between atoms: C9_13  and  C10_14
REMARK    7  A    between atoms: C10_14  and  C11_15
REMARK    8  A    between atoms: C11_15  and  C12_16
REMARK    9  A    between atoms: C12_16  and  C13_17
REMARK   10  A    between atoms: C13_17  and  N3_18
REMARK   11  A    between atoms: N7_32  and  C18_34
REMARK   12  A    between atoms: C18_34  and  C19_35
REMARK   13  A    between atoms: C19_35  and  O1_36
ROOT
HETATM    1  C3  UNL     1      18.615   7.496  23.958  1.00  0.00    -0.013 A
HETATM    2  C4  UNL     1      17.255   7.727  23.791  1.00  0.00     0.043 A
HETATM    3  C5  UNL     1      16.607   8.664  24.567  1.00  0.00     0.080 A
HETATM    4  N1  UNL     1      15.290   8.945  24.463  1.00  0.00    -0.190 N
ATOM      5  H1  UNL     1      14.738   8.438  23.772  1.00  0.00     0.184 HD
HETATM    6  C6  UNL     1      14.678   9.854  25.222  1.00  0.00     0.680 A
HETATM    7  N4  UNL     1      15.395  10.535  26.142  1.00  0.00    -0.175 N
ATOM      8  H4  UNL     1      14.944  11.235  26.731  1.00  0.00     0.186 HD
HETATM    9  C14 UNL     1      16.715  10.280  26.274  1.00  0.00     0.145 A
HETATM   10  N5  UNL     1      17.432  10.904  27.136  1.00  0.00    -0.378 N
ATOM     11  H5  UNL     1      18.428  10.702  27.225  1.00  0.00     0.160 HD
HETATM   12  C15 UNL     1      16.806  11.899  27.977  1.00  0.00     0.147 C
HETATM   13  C16 UNL     1      17.371   9.338  25.495  1.00  0.00     0.106 A
HETATM   14  N6  UNL     1      18.693   9.092  25.636  1.00  0.00    -0.337 N
ATOM     15  H6  UNL     1      19.212   9.620  26.338  1.00  0.00     0.167 HD
HETATM   16  C17 UNL     1      19.357   8.189  24.898  1.00  0.00     0.108 A
HETATM   17  N7  UNL     1      20.609   7.931  25.003  1.00  0.00    -0.374 N
ATOM     18  H7  UNL     1      20.975   7.217  24.372  1.00  0.00     0.161 HD
ENDROOT
BRANCH   6  19
HETATM   19  N2  UNL     1      13.423  10.112  25.109  1.00  0.00    -0.226 N
ATOM     20  H2  UNL     1      13.122  10.973  24.654  1.00  0.00     0.177 HD
BRANCH  19  21
HETATM   21  C7  UNL     1      12.448   9.200  25.616  1.00  0.00     0.138 C
BRANCH  21  22
HETATM   22  C8  UNL     1      12.268   7.985  24.737  1.00  0.00     0.020 C
BRANCH  22  23
HETATM   23  C9  UNL     1      12.054   6.730  25.540  1.00  0.00     0.002 C
BRANCH  23  24
HETATM   24  C10 UNL     1      12.638   5.536  24.814  1.00  0.00     0.000 C
BRANCH  24  25
HETATM   25  C11 UNL     1      13.465   5.982  23.648  1.00  0.00     0.002 C
BRANCH  25  26
HETATM   26  C12 UNL     1      14.790   5.271  23.634  1.00  0.00     0.027 C
BRANCH  26  27
HETATM   27  C13 UNL     1      15.369   5.213  22.227  1.00  0.00     0.229 C
BRANCH  27  28
HETATM   28  N3  UNL     1      16.354   4.150  22.151  1.00  0.00    -0.079 N
ATOM     29  H33 UNL     1      17.163   4.414  21.590  1.00  0.00     0.274 HD
ATOM     30  H32 UNL     1      16.833   4.005  23.040  1.00  0.00     0.274 HD
ATOM     31  H31 UNL     1      15.909   3.298  21.809  1.00  0.00     0.274 HD
ENDBRANCH  27  28
ENDBRANCH  26  27
ENDBRANCH  25  26
ENDBRANCH  24  25
ENDBRANCH  23  24
ENDBRANCH  22  23
ENDBRANCH  21  22
ENDBRANCH  19  21
ENDBRANCH   6  19
BRANCH   1  32
HETATM   32  C2  UNL     1      19.316   6.495  23.132  1.00  0.00     0.038 C
HETATM   33  C1  UNL     1      19.003   6.604  21.666  1.00  0.00     0.010 C
ENDBRANCH   1  32
BRANCH  17  34
HETATM   34  C18 UNL     1      21.551   8.525  25.899  1.00  0.00     0.147 C
BRANCH  34  35
HETATM   35  C19 UNL     1      22.373   7.542  26.656  1.00  0.00     0.186 C
BRANCH  35  36
HETATM   36  O1  UNL     1      23.478   7.161  25.928  1.00  0.00    -0.394 OA
HETATM   37  C20 UNL     1      24.411   8.140  25.714  1.00  0.00     0.201 C
ENDBRANCH  35  36
ENDBRANCH  34  35
ENDBRANCH  17  34
TORSDOF 13
ENDMDL