MODEL 2
REMARK VINA RESULT: -7.675292561      2.131      3.626
REMARK  11 active torsions:
REMARK  status: ('A' for Active; 'I' for Inactive)
REMARK    1  A    between atoms: O1_2  and  C2_3
REMARK    2  A    between atoms: C5_6  and  C6_7
REMARK    3  A    between atoms: C6_7  and  N1_8
REMARK    4  A    between atoms: N1_8  and  C7_11
REMARK    5  A    between atoms: C7_11  and  C8_12
REMARK    6  A    between atoms: C8_12  and  N2_13
REMARK    7  A    between atoms: N2_13  and  C9_15
REMARK    8  A    between atoms: C9_15  and  C10_19
REMARK    9  A    between atoms: C10_19  and  C11_20
REMARK   10  A    between atoms: C18_27  and  N4_28
REMARK   11  A    between atoms: N4_28  and  S1_30
ROOT
HETATM    1  N1  UNL     1      16.562  10.429  24.849  1.00  0.00    -0.070 N
ATOM      2  H11 UNL     1      16.395   9.658  24.202  1.00  0.00     0.277 HD
ATOM      3  H12 UNL     1      16.828  11.155  24.184  1.00  0.00     0.277 HD
ENDROOT
BRANCH   1   4
HETATM    4  C6  UNL     1      17.666  10.120  25.740  1.00  0.00     0.270 C
BRANCH   4   5
HETATM    5  C5  UNL     1      18.700   9.444  24.912  1.00  0.00    -0.030 A
HETATM    6  C4  UNL     1      18.655   9.439  23.524  1.00  0.00     0.012 A
HETATM    7  C3  UNL     1      19.612   8.805  22.771  1.00  0.00     0.040 A
HETATM    8  C2  UNL     1      20.660   8.145  23.342  1.00  0.00     0.095 A
HETATM    9  C18 UNL     1      20.741   8.128  24.734  1.00  0.00     0.076 A
HETATM   10  C17 UNL     1      19.775   8.768  25.479  1.00  0.00     0.041 A
BRANCH   8  11
HETATM   11  O1  UNL     1      21.642   7.493  22.579  1.00  0.00    -0.354 OA
HETATM   12  C1  UNL     1      22.123   8.056  21.374  1.00  0.00     0.210 C
ENDBRANCH   8  11
BRANCH   9  13
HETATM   13  N4  UNL     1      21.831   7.441  25.358  1.00  0.00    -0.282 N
ATOM     14  H4  UNL     1      21.713   6.450  25.567  1.00  0.00     0.178 HD
BRANCH  13  15
HETATM   15  S1  UNL     1      23.319   8.177  25.776  1.00  0.00     0.227 S
HETATM   16  C19 UNL     1      23.790   9.353  24.535  1.00  0.00     0.186 C
HETATM   17  O2  UNL     1      23.177   8.864  27.095  1.00  0.00    -0.206 OA
HETATM   18  O3  UNL     1      24.395   7.132  25.938  1.00  0.00    -0.206 OA
ENDBRANCH  13  15
ENDBRANCH   9  13
ENDBRANCH   4   5
ENDBRANCH   1   4
BRANCH   1  19
HETATM   19  C7  UNL     1      15.354  10.786  25.530  1.00  0.00     0.252 C
BRANCH  19  20
HETATM   20  C8  UNL     1      14.724   9.490  26.020  1.00  0.00     0.148 C
BRANCH  20  21
HETATM   21  N2  UNL     1      13.639   9.045  25.187  1.00  0.00    -0.378 N
ATOM     22  H2  UNL     1      13.198   9.668  24.510  1.00  0.00     0.160 HD
BRANCH  21  23
HETATM   23  C9  UNL     1      13.202   7.683  25.349  1.00  0.00     0.074 C
HETATM   24  N3  UNL     1      11.958   7.366  25.258  1.00  0.00    -0.389 N
ATOM     25  H32 UNL     1      11.253   8.080  25.071  1.00  0.00     0.157 HD
ATOM     26  H31 UNL     1      11.647   6.401  25.372  1.00  0.00     0.157 HD
BRANCH  23  27
HETATM   27  C10 UNL     1      14.222   6.650  25.621  1.00  0.00     0.114 C
BRANCH  27  28
HETATM   28  C11 UNL     1      14.944   6.343  24.360  1.00  0.00    -0.051 A
HETATM   29  C12 UNL     1      16.221   6.759  24.122  1.00  0.00     0.007 A
HETATM   30  C13 UNL     1      16.871   6.448  22.937  1.00  0.00     0.001 A
HETATM   31  C14 UNL     1      16.166   5.705  22.026  1.00  0.00     0.000 A
HETATM   32  C15 UNL     1      14.876   5.265  22.224  1.00  0.00     0.001 A
HETATM   33  C16 UNL     1      14.265   5.595  23.416  1.00  0.00     0.007 A
ENDBRANCH  27  28
ENDBRANCH  23  27
ENDBRANCH  21  23
ENDBRANCH  20  21
ENDBRANCH  19  20
ENDBRANCH   1  19
TORSDOF 11
ENDMDL