MODEL 4
REMARK VINA RESULT: -7.455835374      1.334      1.441
REMARK  11 active torsions:
REMARK  status: ('A' for Active; 'I' for Inactive)
REMARK    1  A    between atoms: C4_4  and  C5_5
REMARK    2  A    between atoms: C9_13  and  C10_14
REMARK    3  A    between atoms: C10_14  and  O1_15
REMARK    4  A    between atoms: C10_14  and  C11_17
REMARK    5  A    between atoms: C11_17  and  N3_18
REMARK    6  A    between atoms: N3_18  and  C12_20
REMARK    7  A    between atoms: C12_20  and  C13_21
REMARK    8  A    between atoms: C13_21  and  N4_22
REMARK    9  A    between atoms: N4_22  and  C15_24
REMARK   10  A    between atoms: C15_24  and  C16_25
REMARK   11  A    between atoms: C16_25  and  S1_26
ROOT
HETATM    1  C1  UNL     1      11.578   6.158  25.478  1.00  0.00     0.048 C
HETATM    2  C2  UNL     1      12.976   6.567  25.097  1.00  0.00    -0.059 A
HETATM    3  C3  UNL     1      13.529   7.737  25.516  1.00  0.00     0.020 A
HETATM    4  C4  UNL     1      14.834   8.129  25.169  1.00  0.00    -0.009 A
HETATM    5  C8  UNL     1      15.608   7.331  24.381  1.00  0.00     0.012 A
HETATM    6  C9  UNL     1      16.898   7.429  23.849  1.00  0.00     0.004 A
HETATM    7  C17 UNL     1      17.073   6.255  23.101  1.00  0.00     0.099 A
HETATM    8  N5  UNL     1      15.974   5.518  23.180  1.00  0.00    -0.365 N
ATOM      9  H5  UNL     1      15.847   4.614  22.723  1.00  0.00     0.165 HD
HETATM   10  C18 UNL     1      15.047   6.122  23.945  1.00  0.00     0.044 A
HETATM   11  C19 UNL     1      13.765   5.773  24.308  1.00  0.00     0.037 A
ENDROOT
BRANCH   6  12
HETATM   12  C10 UNL     1      17.865   8.524  23.998  1.00  0.00     0.192 C
BRANCH  12  13
HETATM   13  O1  UNL     1      18.327   9.039  22.799  1.00  0.00    -0.386 OA
ATOM     14  H1  UNL     1      18.038   9.926  22.619  1.00  0.00     0.210 HD
ENDBRANCH  12  13
BRANCH  12  15
HETATM   15  C11 UNL     1      19.118   7.900  24.656  1.00  0.00     0.097 C
BRANCH  15  16
HETATM   16  N3  UNL     1      20.184   8.753  24.878  1.00  0.00    -0.375 N
ATOM     17  H3  UNL     1      19.997   9.645  25.338  1.00  0.00     0.164 HD
BRANCH  16  18
HETATM   18  C12 UNL     1      21.500   8.467  24.511  1.00  0.00     0.104 C
BRANCH  18  19
HETATM   19  C13 UNL     1      21.795   8.642  23.022  1.00  0.00     0.106 C
BRANCH  19  20
HETATM   20  N4  UNL     1      23.149   8.892  22.748  1.00  0.00    -0.372 N
HETATM   21  C14 UNL     1      23.767   8.267  21.656  1.00  0.00     0.154 C
BRANCH  20  22
HETATM   22  C15 UNL     1      23.965   9.522  23.698  1.00  0.00     0.079 C
BRANCH  22  23
HETATM   23  C16 UNL     1      25.187   8.746  24.054  1.00  0.00     0.201 C
BRANCH  23  24
HETATM   24  S1  UNL     1      25.102   8.235  25.593  1.00  0.00     0.255 S
HETATM   25  O2  UNL     1      24.652   9.108  26.549  1.00  0.00    -0.211 OA
HETATM   26  O3  UNL     1      24.425   6.853  25.728  1.00  0.00    -0.211 OA
ENDBRANCH  23  24
ENDBRANCH  22  23
ENDBRANCH  20  22
ENDBRANCH  19  20
ENDBRANCH  18  19
ENDBRANCH  16  18
ENDBRANCH  15  16
ENDBRANCH  12  15
ENDBRANCH   6  12
BRANCH   4  27
HETATM   27  C5  UNL     1      15.316   9.370  25.728  1.00  0.00     0.009 A
HETATM   28  C6  UNL     1      15.034  10.617  25.209  1.00  0.00     0.120 A
HETATM   29  N1  UNL     1      15.550  11.535  26.063  1.00  0.00    -0.311 N
HETATM   30  N2  UNL     1      16.131  10.916  27.073  1.00  0.00    -0.311 N
ATOM     31  H1  UNL     1      15.497  12.547  25.943  1.00  0.00     0.186 HD
HETATM   32  C7  UNL     1      15.996   9.567  26.883  1.00  0.00     0.120 A
ATOM     33  H2  UNL     1      16.600  11.365  27.860  1.00  0.00     0.186 HD
ENDBRANCH   4  27
TORSDOF 11
ENDMDL