MODEL 1
REMARK VINA RESULT: -8.001076637      0.000      0.000
REMARK  11 active torsions:
REMARK  status: ('A' for Active; 'I' for Inactive)
REMARK    1  A    between atoms: O1_2  and  C2_3
REMARK    2  A    between atoms: C5_6  and  O2_7
REMARK    3  A    between atoms: O2_7  and  C6_8
REMARK    4  A    between atoms: C6_8  and  C7_9
REMARK    5  A    between atoms: C7_9  and  O3_10
REMARK    6  A    between atoms: O3_10  and  C8_11
REMARK    7  A    between atoms: C8_11  and  C9_12
REMARK    8  A    between atoms: C9_12  and  N1_13
REMARK    9  A    between atoms: C11_18  and  C12_19
REMARK   10  A    between atoms: C12_19  and  C13_20
REMARK   11  A    between atoms: C17_24  and  C18_25
ROOT
HETATM    1  C2  UNL     1      15.426   5.939  19.949  1.00  0.00     0.068 A
HETATM    2  C3  UNL     1      16.725   6.331  19.915  1.00  0.00     0.039 A
HETATM    3  C4  UNL     1      17.506   6.333  21.066  1.00  0.00     0.040 A
HETATM    4  C5  UNL     1      17.005   5.941  22.290  1.00  0.00     0.075 A
HETATM    5  C11 UNL     1      15.657   5.542  22.289  1.00  0.00    -0.018 A
HETATM    6  C20 UNL     1      14.888   5.541  21.152  1.00  0.00     0.047 A
ENDROOT
BRANCH   5   7
HETATM    7  C12 UNL     1      15.034   5.121  23.546  1.00  0.00     0.080 C
BRANCH   7   8
HETATM    8  C13 UNL     1      14.211   6.192  24.151  1.00  0.00    -0.053 A
HETATM    9  C14 UNL     1      12.831   5.979  24.246  1.00  0.00     0.007 A
HETATM   10  C15 UNL     1      11.982   6.907  24.806  1.00  0.00     0.002 A
HETATM   11  C16 UNL     1      12.514   8.099  25.295  1.00  0.00     0.015 A
HETATM   12  C17 UNL     1      13.864   8.338  25.215  1.00  0.00     0.005 A
HETATM   13  C19 UNL     1      14.688   7.377  24.644  1.00  0.00     0.022 A
BRANCH  12  14
HETATM   14  C18 UNL     1      14.415   9.589  25.729  1.00  0.00     0.120 C
HETATM   15  N4  UNL     1      14.054  10.714  25.242  1.00  0.00    -0.387 N
ATOM     16  H42 UNL     1      13.370  10.715  24.485  1.00  0.00     0.157 HD
ATOM     17  H41 UNL     1      14.439  11.588  25.601  1.00  0.00     0.157 HD
HETATM   18  N5  UNL     1      15.367   9.588  26.783  1.00  0.00    -0.082 NA
ENDBRANCH  12  14
ENDBRANCH   7   8
ENDBRANCH   5   7
BRANCH   4  19
HETATM   19  O2  UNL     1      17.708   5.917  23.460  1.00  0.00    -0.348 OA
BRANCH  19  20
HETATM   20  C6  UNL     1      18.638   6.733  24.027  1.00  0.00     0.201 C
BRANCH  20  21
HETATM   21  C7  UNL     1      18.190   8.108  24.432  1.00  0.00     0.194 C
BRANCH  21  22
HETATM   22  O3  UNL     1      19.215   8.680  25.182  1.00  0.00    -0.387 OA
BRANCH  22  23
HETATM   23  C8  UNL     1      20.321   9.038  24.460  1.00  0.00     0.187 C
BRANCH  23  24
HETATM   24  C9  UNL     1      21.635   8.647  25.076  1.00  0.00     0.148 C
BRANCH  24  25
HETATM   25  N1  UNL     1      21.458   7.576  26.037  1.00  0.00    -0.365 N
HETATM   26  C10 UNL     1      22.435   6.905  26.526  1.00  0.00     0.197 C
HETATM   27  N2  UNL     1      23.761   7.203  26.124  1.00  0.00    -0.067 NA
HETATM   28  N3  UNL     1      22.221   5.874  27.456  1.00  0.00    -0.067 NA
ATOM     29  H1  UNL     1      20.512   7.346  26.339  1.00  0.00     0.161 HD
ENDBRANCH  24  25
ENDBRANCH  23  24
ENDBRANCH  22  23
ENDBRANCH  21  22
ENDBRANCH  20  21
ENDBRANCH  19  20
ENDBRANCH   4  19
BRANCH   1  30
HETATM   30  O1  UNL     1      14.631   5.929  18.809  1.00  0.00    -0.356 OA
HETATM   31  C1  UNL     1      14.558   7.012  17.908  1.00  0.00     0.210 C
ENDBRANCH   1  30
TORSDOF 11
ENDMDL