MODEL 4
REMARK VINA RESULT: -7.377636794      2.803      6.404
REMARK  14 active torsions:
REMARK  status: ('A' for Active; 'I' for Inactive)
REMARK    1  A    between atoms: N1_1  and  C1_5
REMARK    2  A    between atoms: C1_5  and  C2_6
REMARK    3  A    between atoms: C2_6  and  C3_7
REMARK    4  A    between atoms: C3_7  and  N2_8
REMARK    5  A    between atoms: N2_8  and  C4_11
REMARK    6  A    between atoms: C4_11  and  C5_12
REMARK    7  A    between atoms: C5_12  and  C6_13
REMARK    8  A    between atoms: C6_13  and  N3_14
REMARK    9  A    between atoms: N3_14  and  C7_17
REMARK   10  A    between atoms: C7_17  and  C8_18
REMARK   11  A    between atoms: C8_18  and  N4_19
REMARK   12  A    between atoms: N4_19  and  C9_21
REMARK   13  A    between atoms: C11_23  and  C12_24
REMARK   14  A    between atoms: N5_32  and  O1_33
ROOT
HETATM    1  N4  UNL     1      13.604   8.904  25.848  1.00  0.00    -0.375 N
ATOM      2  H4  UNL     1      12.681   9.293  26.041  1.00  0.00     0.161 HD
ENDROOT
BRANCH   1   3
HETATM    3  C8  UNL     1      14.764   9.631  26.206  1.00  0.00     0.148 C
BRANCH   3   4
HETATM    4  C7  UNL     1      15.181  10.775  25.382  1.00  0.00     0.251 C
BRANCH   4   5
HETATM    5  N3  UNL     1      16.351  11.504  25.796  1.00  0.00    -0.074 N
ATOM      6  H32 UNL     1      16.156  12.121  26.585  1.00  0.00     0.277 HD
ATOM      7  H31 UNL     1      16.620  12.213  25.114  1.00  0.00     0.277 HD
BRANCH   5   8
HETATM    8  C6  UNL     1      17.449  10.579  26.085  1.00  0.00     0.234 C
BRANCH   8   9
HETATM    9  C5  UNL     1      18.128  10.091  24.865  1.00  0.00     0.055 C
BRANCH   9  10
HETATM   10  C4  UNL     1      19.127   9.030  24.958  1.00  0.00     0.233 C
BRANCH  10  11
HETATM   11  N2  UNL     1      20.294   9.130  24.101  1.00  0.00    -0.075 N
ATOM     12  H22 UNL     1      20.525  10.100  23.885  1.00  0.00     0.277 HD
ATOM     13  H21 UNL     1      20.099   8.806  23.155  1.00  0.00     0.277 HD
BRANCH  11  14
HETATM   14  C3  UNL     1      21.412   8.431  24.689  1.00  0.00     0.233 C
BRANCH  14  15
HETATM   15  C2  UNL     1      21.090   7.446  25.760  1.00  0.00     0.055 C
BRANCH  15  16
HETATM   16  C1  UNL     1      22.343   7.110  26.539  1.00  0.00     0.231 C
BRANCH  16  17
HETATM   17  N1  UNL     1      22.120   6.065  27.500  1.00  0.00    -0.079 N
ATOM     18  H13 UNL     1      22.983   5.564  27.708  1.00  0.00     0.274 HD
ATOM     19  H12 UNL     1      21.929   6.450  28.425  1.00  0.00     0.274 HD
ATOM     20  H11 UNL     1      21.382   5.424  27.208  1.00  0.00     0.274 HD
ENDBRANCH  16  17
ENDBRANCH  15  16
ENDBRANCH  14  15
ENDBRANCH  11  14
ENDBRANCH  10  11
ENDBRANCH   9  10
ENDBRANCH   8   9
ENDBRANCH   5   8
ENDBRANCH   4   5
ENDBRANCH   3   4
ENDBRANCH   1   3
BRANCH   1  21
HETATM   21  C9  UNL     1      13.708   7.752  25.278  1.00  0.00     0.101 A
HETATM   22  C10 UNL     1      14.858   7.501  24.559  1.00  0.00     0.060 A
HETATM   23  C11 UNL     1      15.003   6.249  23.944  1.00  0.00    -0.020 A
HETATM   24  C21 UNL     1      13.969   5.361  24.111  1.00  0.00     0.029 A
HETATM   25  C22 UNL     1      12.827   5.613  24.826  1.00  0.00     0.090 A
HETATM   26  N6  UNL     1      12.735   6.841  25.404  1.00  0.00    -0.353 N
ATOM     27  H6  UNL     1      11.904   7.074  25.948  1.00  0.00     0.166 HD
BRANCH  23  28
HETATM   28  C12 UNL     1      16.209   5.897  23.199  1.00  0.00    -0.007 A
HETATM   29  C13 UNL     1      16.568   4.617  22.862  1.00  0.00     0.027 A
HETATM   30  C14 UNL     1      17.727   4.399  22.116  1.00  0.00    -0.006 A
HETATM   31  C15 UNL     1      18.104   3.121  21.750  1.00  0.00     0.014 A
HETATM   32  C19 UNL     1      18.531   5.441  21.706  1.00  0.00     0.072 A
HETATM   33  C16 UNL     1      19.252   2.901  20.995  1.00  0.00     0.001 A
HETATM   34  C17 UNL     1      20.052   3.949  20.585  1.00  0.00     0.002 A
HETATM   35  C18 UNL     1      19.685   5.219  20.944  1.00  0.00     0.033 A
HETATM   36  N5  UNL     1      18.160   6.687  22.049  1.00  0.00    -0.234 N
HETATM   37  C20 UNL     1      17.049   6.933  22.767  1.00  0.00     0.135 A
BRANCH  36  38
HETATM   38  O1  UNL     1      18.996   7.716  21.624  1.00  0.00    -0.283 OA
ATOM     39  H1  UNL     1      18.635   8.308  20.974  1.00  0.00     0.245 HD
ENDBRANCH  36  38
ENDBRANCH  23  28
ENDBRANCH   1  21
TORSDOF 14
ENDMDL