MODEL 4
REMARK VINA RESULT: -7.055330307      1.407      1.947
REMARK  12 active torsions:
REMARK  status: ('A' for Active; 'I' for Inactive)
REMARK    1  A    between atoms: C3_5  and  N2_6
REMARK    2  A    between atoms: N2_6  and  C4_8
REMARK    3  A    between atoms: C4_8  and  C5_9
REMARK    4  A    between atoms: C5_9  and  C6_10
REMARK    5  A    between atoms: C6_10  and  C7_11
REMARK    6  A    between atoms: C7_11  and  O1_12
REMARK    7  A    between atoms: O1_12  and  C8_13
REMARK    8  A    between atoms: C8_13  and  C9_14
REMARK    9  A    between atoms: C9_14  and  O2_15
REMARK   10  A    between atoms: O2_15  and  C10_16
REMARK   11  A    between atoms: C10_16  and  C11_17
REMARK   12  A    between atoms: C11_17  and  N3_18
REMARK       I    between atoms: N3_18  and  C12_20
ROOT
HETATM    1  C4  UNL     1      18.463   5.819  23.007  1.00  0.00     0.121 C
ENDROOT
BRANCH   1   2
HETATM    2  N2  UNL     1      17.073   5.847  23.444  1.00  0.00    -0.376 N
ATOM      3  H2  UNL     1      16.485   5.025  23.302  1.00  0.00     0.161 HD
BRANCH   2   4
HETATM    4  C3  UNL     1      16.575   6.895  24.008  1.00  0.00     0.115 A
HETATM    5  N1  UNL     1      17.340   7.921  24.433  1.00  0.00    -0.332 N
HETATM    6  C2  UNL     1      16.819   9.003  25.017  1.00  0.00     0.079 A
ATOM      7  H1  UNL     1      18.351   7.868  24.305  1.00  0.00     0.168 HD
HETATM    8  C1  UNL     1      17.725  10.089  25.459  1.00  0.00     0.089 C
HETATM    9  N6  UNL     1      15.495   9.098  25.196  1.00  0.00    -0.345 N
HETATM   10  C19 UNL     1      14.668   8.138  24.808  1.00  0.00     0.053 A
ATOM     11  H6  UNL     1      15.113   9.933  25.642  1.00  0.00     0.167 HD
HETATM   12  C13 UNL     1      15.216   7.011  24.200  1.00  0.00     0.035 A
HETATM   13  C17 UNL     1      13.310   8.289  25.018  1.00  0.00    -0.034 A
HETATM   14  C14 UNL     1      14.358   6.006  23.794  1.00  0.00     0.017 A
HETATM   15  C15 UNL     1      13.009   6.119  23.983  1.00  0.00     0.002 A
HETATM   16  C16 UNL     1      12.505   7.253  24.591  1.00  0.00     0.009 A
HETATM   17  C18 UNL     1      12.693   9.455  25.651  1.00  0.00     0.050 C
ENDBRANCH   2   4
ENDBRANCH   1   2
BRANCH   1  18
HETATM   18  C5  UNL     1      18.515   6.111  21.536  1.00  0.00     0.022 C
BRANCH  18  19
HETATM   19  C6  UNL     1      19.114   7.442  21.216  1.00  0.00     0.028 C
BRANCH  19  20
HETATM   20  C7  UNL     1      20.208   7.727  22.250  1.00  0.00     0.167 C
BRANCH  20  21
HETATM   21  O1  UNL     1      19.881   8.853  22.953  1.00  0.00    -0.389 OA
BRANCH  21  22
HETATM   22  C8  UNL     1      20.905   9.689  23.303  1.00  0.00     0.193 C
BRANCH  22  23
HETATM   23  C9  UNL     1      22.244   9.022  23.123  1.00  0.00     0.193 C
BRANCH  23  24
HETATM   24  O2  UNL     1      23.123   9.433  24.114  1.00  0.00    -0.387 OA
BRANCH  24  25
HETATM   25  C10 UNL     1      23.865   8.438  24.686  1.00  0.00     0.187 C
BRANCH  25  26
HETATM   26  C11 UNL     1      24.025   8.521  26.175  1.00  0.00     0.148 C
BRANCH  26  27
HETATM   27  N3  UNL     1      22.742   8.290  26.848  1.00  0.00    -0.363 N
HETATM   28  C12 UNL     1      22.001   7.089  26.690  1.00  0.00     0.181 C
HETATM   29  N4  UNL     1      22.224   6.036  27.434  1.00  0.00    -0.374 N
HETATM   30  N5  UNL     1      20.994   7.047  25.694  1.00  0.00    -0.064 NA
ATOM     31  H42 UNL     1      22.949   6.066  28.151  1.00  0.00     0.158 HD
ATOM     32  H41 UNL     1      21.693   5.174  27.320  1.00  0.00     0.158 HD
ATOM     33  H3  UNL     1      22.367   9.021  27.453  1.00  0.00     0.162 HD
ENDBRANCH  26  27
ENDBRANCH  25  26
ENDBRANCH  24  25
ENDBRANCH  23  24
ENDBRANCH  22  23
ENDBRANCH  21  22
ENDBRANCH  20  21
ENDBRANCH  19  20
ENDBRANCH  18  19
ENDBRANCH   1  18
TORSDOF 12
ENDMDL