MODEL 2
REMARK VINA RESULT: -7.337893076      1.405      2.450
REMARK  14 active torsions:
REMARK  status: ('A' for Active; 'I' for Inactive)
REMARK    1  A    between atoms: C2_2  and  C3_3
REMARK    2  A    between atoms: C3_3  and  N1_4
REMARK    3  A    between atoms: N1_4  and  C4_7
REMARK    4  A    between atoms: C4_7  and  C5_8
REMARK    5  A    between atoms: C5_8  and  C6_9
REMARK    6  A    between atoms: C6_9  and  N2_10
REMARK    7  A    between atoms: N2_10  and  C7_12
REMARK    8  A    between atoms: C16_25  and  N5_26
REMARK    9  A    between atoms: N5_26  and  C17_28
REMARK   10  A    between atoms: C17_28  and  C18_29
REMARK   11  A    between atoms: C18_29  and  O1_30
REMARK   12  A    between atoms: O1_30  and  C19_31
REMARK   13  A    between atoms: C19_31  and  C20_32
REMARK   14  A    between atoms: C20_32  and  N6_33
ROOT
HETATM    1  C7  UNL     1      17.031   6.958  23.834  1.00  0.00     0.113 A
HETATM    2  N3  UNL     1      17.847   5.974  23.337  1.00  0.00    -0.352 N
ATOM      3  H3  UNL     1      18.845   6.165  23.249  1.00  0.00     0.166 HD
HETATM    4  C8  UNL     1      17.387   4.771  22.960  1.00  0.00     0.090 A
HETATM    5  C9  UNL     1      16.074   4.458  23.054  1.00  0.00     0.029 A
HETATM    6  C10 UNL     1      15.227   5.413  23.544  1.00  0.00    -0.020 A
HETATM    7  C11 UNL     1      13.905   5.065  23.748  1.00  0.00     0.013 A
HETATM    8  C12 UNL     1      13.056   5.949  24.321  1.00  0.00     0.013 A
HETATM    9  C13 UNL     1      13.489   7.199  24.698  1.00  0.00    -0.020 A
HETATM   10  C14 UNL     1      12.583   8.080  25.197  1.00  0.00     0.029 A
HETATM   11  C15 UNL     1      12.985   9.343  25.488  1.00  0.00     0.090 A
HETATM   12  N4  UNL     1      14.257   9.714  25.280  1.00  0.00    -0.352 N
ATOM     13  H4  UNL     1      14.531  10.671  25.502  1.00  0.00     0.166 HD
HETATM   14  C16 UNL     1      15.203   8.856  24.781  1.00  0.00     0.113 A
HETATM   15  C21 UNL     1      14.836   7.587  24.497  1.00  0.00     0.033 A
HETATM   16  C22 UNL     1      15.706   6.682  23.932  1.00  0.00     0.033 A
ENDROOT
BRANCH   1  17
HETATM   17  N2  UNL     1      17.678   7.889  24.359  1.00  0.00    -0.376 N
ATOM     18  H2  UNL     1      17.152   8.727  24.610  1.00  0.00     0.161 HD
BRANCH  17  19
HETATM   19  C6  UNL     1      19.089   7.902  24.648  1.00  0.00     0.123 C
BRANCH  19  20
HETATM   20  C5  UNL     1      19.984   8.812  23.949  1.00  0.00     0.047 C
BRANCH  20  21
HETATM   21  C4  UNL     1      20.639   8.347  22.677  1.00  0.00     0.234 C
BRANCH  21  22
HETATM   22  N1  UNL     1      19.761   8.487  21.537  1.00  0.00    -0.072 N
ATOM     23  H12 UNL     1      19.912   9.386  21.080  1.00  0.00     0.277 HD
ATOM     24  H11 UNL     1      18.796   8.607  21.844  1.00  0.00     0.277 HD
BRANCH  22  25
HETATM   25  C3  UNL     1      19.853   7.414  20.577  1.00  0.00     0.259 C
BRANCH  25  26
HETATM   26  C2  UNL     1      18.482   7.164  20.052  1.00  0.00    -0.010 C
HETATM   27  C1  UNL     1      17.500   7.970  20.367  1.00  0.00     0.008 C
ENDBRANCH  25  26
ENDBRANCH  22  25
ENDBRANCH  21  22
ENDBRANCH  20  21
ENDBRANCH  19  20
ENDBRANCH  17  19
ENDBRANCH   1  17
BRANCH  14  28
HETATM   28  N5  UNL     1      16.235   9.456  24.393  1.00  0.00    -0.373 N
ATOM     29  H5  UNL     1      16.943   8.931  23.879  1.00  0.00     0.161 HD
BRANCH  28  30
HETATM   30  C17 UNL     1      16.462  10.876  24.647  1.00  0.00     0.147 C
BRANCH  30  31
HETATM   31  C18 UNL     1      17.523  11.225  25.603  1.00  0.00     0.187 C
BRANCH  31  32
HETATM   32  O1  UNL     1      17.719  10.410  26.681  1.00  0.00    -0.388 OA
BRANCH  32  33
HETATM   33  C19 UNL     1      16.873  10.713  27.715  1.00  0.00     0.195 C
BRANCH  33  34
HETATM   34  C20 UNL     1      16.798  12.168  28.073  1.00  0.00     0.255 C
BRANCH  34  35
HETATM   35  N6  UNL     1      15.475  12.704  28.137  1.00  0.00    -0.077 N
ATOM     36  H63 UNL     1      15.472  13.674  27.822  1.00  0.00     0.274 HD
ATOM     37  H62 UNL     1      14.888  12.282  27.418  1.00  0.00     0.274 HD
ATOM     38  H61 UNL     1      15.024  12.628  29.049  1.00  0.00     0.274 HD
ENDBRANCH  34  35
ENDBRANCH  33  34
ENDBRANCH  32  33
ENDBRANCH  31  32
ENDBRANCH  30  31
ENDBRANCH  28  30
ENDBRANCH  14  28
TORSDOF 14
ENDMDL