MODEL 1
REMARK VINA RESULT: -7.679759241      0.000      0.000
REMARK  11 active torsions:
REMARK  status: ('A' for Active; 'I' for Inactive)
REMARK    1  A    between atoms: O1_2  and  C2_3
REMARK    2  A    between atoms: C2_3  and  C3_4
REMARK    3  A    between atoms: C3_4  and  C4_5
REMARK    4  A    between atoms: C6_7  and  N1_8
REMARK    5  A    between atoms: N1_8  and  C7_10
REMARK    6  A    between atoms: C7_10  and  C8_11
REMARK    7  A    between atoms: C8_11  and  N2_12
REMARK    8  A    between atoms: N6_20  and  C11_22
REMARK    9  A    between atoms: C11_22  and  C12_23
REMARK   10  A    between atoms: C12_23  and  C13_24
REMARK   11  A    between atoms: C16_27  and  O2_28
ROOT
HETATM    1  C4  UNL     1      15.933   6.122  22.990  1.00  0.00    -0.049 A
HETATM    2  C5  UNL     1      15.191   6.823  23.916  1.00  0.00     0.055 A
HETATM    3  C6  UNL     1      15.794   7.667  24.813  1.00  0.00     0.102 A
HETATM    4  N5  UNL     1      17.121   7.816  24.792  1.00  0.00    -0.329 N
ATOM      5  H5  UNL     1      17.564   8.446  25.462  1.00  0.00     0.169 HD
HETATM    6  C10 UNL     1      17.878   7.157  23.912  1.00  0.00     0.102 A
HETATM    7  N6  UNL     1      19.176   7.338  23.932  1.00  0.00    -0.376 N
ATOM      8  H6  UNL     1      19.768   6.841  23.266  1.00  0.00     0.161 HD
HETATM    9  C20 UNL     1      17.303   6.307  23.005  1.00  0.00     0.055 A
ENDROOT
BRANCH   7  10
HETATM   10  C11 UNL     1      19.773   8.234  24.891  1.00  0.00     0.126 C
BRANCH  10  11
HETATM   11  C12 UNL     1      20.963   7.518  25.494  1.00  0.00     0.058 C
BRANCH  11  12
HETATM   12  C13 UNL     1      22.208   8.294  25.407  1.00  0.00    -0.057 A
HETATM   13  C14 UNL     1      22.952   8.498  26.573  1.00  0.00     0.010 A
HETATM   14  C15 UNL     1      24.116   9.227  26.477  1.00  0.00     0.037 A
HETATM   15  C16 UNL     1      24.583   9.762  25.291  1.00  0.00     0.068 A
HETATM   16  C18 UNL     1      23.829   9.545  24.152  1.00  0.00     0.037 A
HETATM   17  C19 UNL     1      22.651   8.816  24.221  1.00  0.00     0.010 A
BRANCH  15  18
HETATM   18  O2  UNL     1      25.766  10.480  25.299  1.00  0.00    -0.356 OA
HETATM   19  C17 UNL     1      25.824  11.868  25.085  1.00  0.00     0.210 C
ENDBRANCH  15  18
ENDBRANCH  11  12
ENDBRANCH  10  11
ENDBRANCH   7  10
BRANCH   3  20
HETATM   20  N1  UNL     1      15.036   8.387  25.764  1.00  0.00    -0.375 N
ATOM     21  H1  UNL     1      15.039   8.092  26.740  1.00  0.00     0.161 HD
BRANCH  20  22
HETATM   22  C7  UNL     1      14.266   9.527  25.371  1.00  0.00     0.141 C
BRANCH  22  23
HETATM   23  C8  UNL     1      15.192  10.713  25.217  1.00  0.00     0.141 C
BRANCH  23  24
HETATM   24  N2  UNL     1      15.476  11.229  26.537  1.00  0.00    -0.365 N
HETATM   25  C9  UNL     1      16.583  11.039  27.151  1.00  0.00     0.197 C
HETATM   26  N3  UNL     1      16.762  11.586  28.440  1.00  0.00    -0.067 NA
HETATM   27  N4  UNL     1      17.627  10.294  26.563  1.00  0.00    -0.067 NA
ATOM     28  H2  UNL     1      14.753  11.775  27.006  1.00  0.00     0.161 HD
ENDBRANCH  23  24
ENDBRANCH  22  23
ENDBRANCH  20  22
ENDBRANCH   3  20
BRANCH   1  29
HETATM   29  C3  UNL     1      15.309   5.189  21.993  1.00  0.00     0.065 C
BRANCH  29  30
HETATM   30  C2  UNL     1      15.690   5.597  20.582  1.00  0.00     0.171 C
BRANCH  30  31
HETATM   31  O1  UNL     1      16.247   4.573  19.845  1.00  0.00    -0.396 OA
HETATM   32  C1  UNL     1      16.060   3.312  20.364  1.00  0.00     0.201 C
ENDBRANCH  30  31
ENDBRANCH  29  30
ENDBRANCH   1  29
TORSDOF 11
ENDMDL