MODEL 4
REMARK VINA RESULT: -7.545491414      2.992      6.767
REMARK  12 active torsions:
REMARK  status: ('A' for Active; 'I' for Inactive)
REMARK    1  A    between atoms: C1_4  and  C2_6
REMARK    2  A    between atoms: C2_6  and  C3_7
REMARK    3  A    between atoms: C3_7  and  C4_8
REMARK    4  A    between atoms: C8_12  and  O1_13
REMARK    5  A    between atoms: O1_13  and  C9_14
REMARK    6  A    between atoms: C9_14  and  C10_15
REMARK    7  A    between atoms: C10_15  and  O2_16
REMARK    8  A    between atoms: C10_15  and  C11_18
REMARK    9  A    between atoms: C11_18  and  N3_19
REMARK   10  A    between atoms: N3_19  and  S1_21
REMARK   11  A    between atoms: S1_21  and  C12_24
REMARK   12  A    between atoms: C12_24  and  C13_25
ROOT
HETATM    1  C10 UNL     1     -15.701   6.665 -29.698  1.00  0.00     0.161 C
ENDROOT
BRANCH   1   2
HETATM    2  C9  UNL     1     -16.986   6.237 -30.353  1.00  0.00     0.209 C
BRANCH   2   3
HETATM    3  O1  UNL     1     -17.763   7.392 -30.591  1.00  0.00    -0.349 OA
BRANCH   3   4
HETATM    4  C8  UNL     1     -18.955   7.296 -31.286  1.00  0.00     0.069 A
HETATM    5  C7  UNL     1     -19.997   8.172 -31.131  1.00  0.00     0.037 A
HETATM    6  C6  UNL     1     -21.184   8.057 -31.840  1.00  0.00     0.003 A
HETATM    7  C5  UNL     1     -21.280   7.003 -32.728  1.00  0.00     0.007 A
HETATM    8  C4  UNL     1     -20.267   6.093 -32.924  1.00  0.00    -0.055 A
HETATM    9  C19 UNL     1     -19.114   6.268 -32.186  1.00  0.00     0.044 A
BRANCH   8  10
HETATM   10  C3  UNL     1     -20.343   4.967 -33.860  1.00  0.00     0.045 C
BRANCH  10  11
HETATM   11  C2  UNL     1     -19.080   4.115 -33.791  1.00  0.00     0.077 C
BRANCH  11  12
HETATM   12  C1  UNL     1     -18.582   3.804 -35.140  1.00  0.00     0.086 C
HETATM   13  N1  UNL     1     -17.534   3.077 -35.343  1.00  0.00    -0.391 N
ATOM     14  H12 UNL     1     -17.189   2.862 -36.278  1.00  0.00     0.157 HD
ATOM     15  H11 UNL     1     -17.050   2.717 -34.521  1.00  0.00     0.157 HD
HETATM   16  N2  UNL     1     -19.265   4.312 -36.299  1.00  0.00    -0.088 NA
ENDBRANCH  11  12
ENDBRANCH  10  11
ENDBRANCH   8  10
ENDBRANCH   3   4
ENDBRANCH   2   3
ENDBRANCH   1   2
BRANCH   1  17
HETATM   17  O2  UNL     1     -15.380   7.941 -30.105  1.00  0.00    -0.392 OA
ATOM     18  H2  UNL     1     -14.761   8.322 -29.494  1.00  0.00     0.210 HD
ENDBRANCH   1  17
BRANCH   1  19
HETATM   19  C11 UNL     1     -15.928   6.606 -28.181  1.00  0.00     0.165 C
BRANCH  19  20
HETATM   20  N3  UNL     1     -17.178   5.959 -27.958  1.00  0.00    -0.317 N
ATOM     21  H3  UNL     1     -18.011   6.193 -28.499  1.00  0.00     0.172 HD
BRANCH  20  22
HETATM   22  S1  UNL     1     -17.203   4.780 -26.743  1.00  0.00     0.230 S
HETATM   23  O3  UNL     1     -16.293   5.236 -25.611  1.00  0.00    -0.206 OA
HETATM   24  O4  UNL     1     -16.689   3.446 -27.206  1.00  0.00    -0.206 OA
BRANCH  22  25
HETATM   25  C12 UNL     1     -18.841   4.550 -26.130  1.00  0.00     0.201 C
BRANCH  25  26
HETATM   26  C13 UNL     1     -19.806   4.849 -27.207  1.00  0.00    -0.043 A
HETATM   27  C14 UNL     1     -19.760   4.225 -28.420  1.00  0.00     0.008 A
HETATM   28  C15 UNL     1     -20.689   4.559 -29.385  1.00  0.00     0.001 A
HETATM   29  C16 UNL     1     -21.672   5.500 -29.185  1.00  0.00     0.000 A
HETATM   30  C17 UNL     1     -21.683   6.106 -27.947  1.00  0.00     0.001 A
HETATM   31  C18 UNL     1     -20.773   5.795 -26.967  1.00  0.00     0.008 A
ENDBRANCH  25  26
ENDBRANCH  22  25
ENDBRANCH  20  22
ENDBRANCH  19  20
ENDBRANCH   1  19
TORSDOF 12
ENDMDL