MODEL 5
REMARK VINA RESULT: -6.831039298      2.665      6.559
REMARK  12 active torsions:
REMARK  status: ('A' for Active; 'I' for Inactive)
REMARK    1  A    between atoms: C5_5  and  C6_6
REMARK    2  A    between atoms: C6_6  and  C7_7
REMARK    3  A    between atoms: C8_9  and  N1_10
REMARK    4  A    between atoms: N1_10  and  C9_12
REMARK    5  A    between atoms: C9_12  and  C10_13
REMARK    6  A    between atoms: C10_13  and  O1_14
REMARK    7  A    between atoms: O1_14  and  C11_15
REMARK    8  A    between atoms: C11_15  and  C12_16
REMARK    9  A    between atoms: C12_16  and  O2_17
REMARK   10  A    between atoms: O2_17  and  C13_18
REMARK   11  A    between atoms: C13_18  and  C14_19
REMARK   12  A    between atoms: C14_19  and  N2_20
REMARK       I    between atoms: N2_20  and  C15_22
ROOT
HETATM    1  C7  UNL     1     -21.963   5.230 -29.270  1.00  0.00     0.031 A
HETATM    2  S1  UNL     1     -21.980   6.799 -29.935  1.00  0.00    -0.055 SA
HETATM    3  C8  UNL     1     -21.963   6.371 -31.585  1.00  0.00     0.146 A
HETATM    4  N4  UNL     1     -21.944   5.042 -31.554  1.00  0.00    -0.324 N
ATOM      5  H4  UNL     1     -21.930   4.499 -32.418  1.00  0.00     0.169 HD
HETATM    6  C16 UNL     1     -21.943   4.444 -30.387  1.00  0.00     0.131 A
HETATM    7  N5  UNL     1     -21.928   2.993 -30.269  1.00  0.00    -0.082 NA
ENDROOT
BRANCH   3   8
HETATM    8  N1  UNL     1     -21.966   7.142 -32.652  1.00  0.00    -0.368 N
ATOM      9  H1  UNL     1     -21.419   8.004 -32.660  1.00  0.00     0.161 HD
BRANCH   8  10
HETATM   10  C9  UNL     1     -22.747   6.766 -33.817  1.00  0.00     0.148 C
BRANCH  10  11
HETATM   11  C10 UNL     1     -21.755   6.431 -34.907  1.00  0.00     0.187 C
BRANCH  11  12
HETATM   12  O1  UNL     1     -21.197   5.171 -34.776  1.00  0.00    -0.387 OA
BRANCH  12  13
HETATM   13  C11 UNL     1     -19.815   5.138 -34.832  1.00  0.00     0.193 C
BRANCH  13  14
HETATM   14  C12 UNL     1     -19.190   4.556 -33.585  1.00  0.00     0.193 C
BRANCH  14  15
HETATM   15  O2  UNL     1     -19.110   5.474 -32.556  1.00  0.00    -0.387 OA
BRANCH  15  16
HETATM   16  C13 UNL     1     -18.443   5.025 -31.445  1.00  0.00     0.187 C
BRANCH  16  17
HETATM   17  C14 UNL     1     -17.730   6.124 -30.693  1.00  0.00     0.150 C
BRANCH  17  18
HETATM   18  N2  UNL     1     -16.348   5.770 -30.432  1.00  0.00    -0.343 N
HETATM   19  C15 UNL     1     -15.366   6.728 -30.081  1.00  0.00     0.328 C
HETATM   20  N3  UNL     1     -14.038   6.304 -29.842  1.00  0.00    -0.040 NA
HETATM   21  O3  UNL     1     -15.661   7.963 -29.978  1.00  0.00    -0.251 OA
ATOM     22  H2  UNL     1     -16.072   4.791 -30.503  1.00  0.00     0.163 HD
ENDBRANCH  17  18
ENDBRANCH  16  17
ENDBRANCH  15  16
ENDBRANCH  14  15
ENDBRANCH  13  14
ENDBRANCH  12  13
ENDBRANCH  11  12
ENDBRANCH  10  11
ENDBRANCH   8  10
ENDBRANCH   3   8
BRANCH   1  23
HETATM   23  C6  UNL     1     -21.963   4.875 -27.811  1.00  0.00     0.088 C
BRANCH  23  24
HETATM   24  C5  UNL     1     -20.633   4.946 -27.218  1.00  0.00    -0.053 A
HETATM   25  C4  UNL     1     -20.355   5.559 -26.019  1.00  0.00     0.008 A
HETATM   26  C3  UNL     1     -19.088   5.601 -25.484  1.00  0.00     0.007 A
HETATM   27  C2  UNL     1     -18.035   5.019 -26.149  1.00  0.00    -0.062 A
HETATM   28  C1  UNL     1     -16.641   5.053 -25.586  1.00  0.00     0.048 C
HETATM   29  C18 UNL     1     -18.309   4.403 -27.356  1.00  0.00     0.007 A
HETATM   30  C17 UNL     1     -19.580   4.361 -27.892  1.00  0.00     0.008 A
ENDBRANCH  23  24
ENDBRANCH   1  23
TORSDOF 12
ENDMDL