MODEL 5
REMARK VINA RESULT: -6.266866916      1.552      2.573
REMARK  13 active torsions:
REMARK  status: ('A' for Active; 'I' for Inactive)
REMARK    1  A    between atoms: C1_4  and  C2_5
REMARK    2  A    between atoms: C1_4  and  N2_14
REMARK    3  A    between atoms: C2_5  and  C3_6
REMARK    4  A    between atoms: C7_10  and  O1_11
REMARK    5  A    between atoms: N2_14  and  C9_16
REMARK    6  A    between atoms: C9_16  and  C10_17
REMARK    7  A    between atoms: C10_17  and  O2_18
REMARK    8  A    between atoms: O2_18  and  C11_19
REMARK    9  A    between atoms: C11_19  and  C12_20
REMARK   10  A    between atoms: C12_20  and  O3_21
REMARK   11  A    between atoms: O3_21  and  C13_22
REMARK   12  A    between atoms: C13_22  and  C14_23
REMARK   13  A    between atoms: C14_23  and  C15_24
ROOT
HETATM    1  C10 UNL     1     -19.577   7.179 -30.453  1.00  0.00     0.187 C
ENDROOT
BRANCH   1   2
HETATM    2  C9  UNL     1     -18.165   6.920 -30.938  1.00  0.00     0.147 C
BRANCH   2   3
HETATM    3  N2  UNL     1     -17.218   6.931 -29.859  1.00  0.00    -0.378 N
ATOM      4  H2  UNL     1     -17.172   7.750 -29.253  1.00  0.00     0.160 HD
BRANCH   3   5
HETATM    5  C1  UNL     1     -16.357   5.858 -29.611  1.00  0.00     0.074 C
HETATM    6  N1  UNL     1     -15.902   5.081 -30.505  1.00  0.00    -0.389 N
ATOM      7  H12 UNL     1     -15.273   4.298 -30.324  1.00  0.00     0.157 HD
ATOM      8  H11 UNL     1     -16.181   5.236 -31.474  1.00  0.00     0.157 HD
BRANCH   5   9
HETATM    9  C2  UNL     1     -15.945   5.630 -28.180  1.00  0.00     0.114 C
BRANCH   9  10
HETATM   10  C3  UNL     1     -17.153   5.426 -27.340  1.00  0.00    -0.049 A
HETATM   11  C4  UNL     1     -17.179   5.930 -26.045  1.00  0.00     0.007 A
HETATM   12  C5  UNL     1     -18.319   5.723 -25.278  1.00  0.00     0.003 A
HETATM   13  C6  UNL     1     -19.399   5.034 -25.788  1.00  0.00     0.036 A
HETATM   14  C7  UNL     1     -19.391   4.529 -27.069  1.00  0.00     0.066 A
HETATM   15  C8  UNL     1     -18.235   4.747 -27.824  1.00  0.00     0.044 A
BRANCH  14  16
HETATM   16  O1  UNL     1     -20.475   3.832 -27.593  1.00  0.00    -0.361 OA
ATOM     17  H1  UNL     1     -20.363   3.119 -28.210  1.00  0.00     0.217 HD
ENDBRANCH  14  16
ENDBRANCH   9  10
ENDBRANCH   5   9
ENDBRANCH   3   5
ENDBRANCH   2   3
ENDBRANCH   1   2
BRANCH   1  18
HETATM   18  O2  UNL     1     -20.313   6.009 -30.427  1.00  0.00    -0.387 OA
BRANCH  18  19
HETATM   19  C11 UNL     1     -19.939   5.060 -31.346  1.00  0.00     0.193 C
BRANCH  19  20
HETATM   20  C12 UNL     1     -20.955   3.959 -31.400  1.00  0.00     0.193 C
BRANCH  20  21
HETATM   21  O3  UNL     1     -21.397   3.569 -30.130  1.00  0.00    -0.389 OA
BRANCH  21  22
HETATM   22  C13 UNL     1     -22.421   2.657 -30.145  1.00  0.00     0.175 C
BRANCH  22  23
HETATM   23  C14 UNL     1     -23.755   3.276 -29.780  1.00  0.00     0.102 C
BRANCH  23  24
HETATM   24  C15 UNL     1     -23.519   4.621 -29.161  1.00  0.00     0.084 A
HETATM   25  N3  UNL     1     -23.264   4.863 -27.866  1.00  0.00    -0.344 N
HETATM   26  C16 UNL     1     -23.109   6.178 -27.676  1.00  0.00     0.060 A
ATOM     27  H3  UNL     1     -23.200   4.153 -27.138  1.00  0.00     0.167 HD
HETATM   28  C17 UNL     1     -22.839   6.953 -26.563  1.00  0.00     0.032 A
HETATM   29  C21 UNL     1     -23.275   6.769 -28.906  1.00  0.00     0.060 A
HETATM   30  C18 UNL     1     -22.741   8.319 -26.716  1.00  0.00     0.002 A
HETATM   31  C19 UNL     1     -22.906   8.929 -27.949  1.00  0.00     0.002 A
HETATM   32  C20 UNL     1     -23.171   8.158 -29.038  1.00  0.00     0.032 A
HETATM   33  N4  UNL     1     -23.524   5.796 -29.795  1.00  0.00    -0.344 N
ATOM     34  H4  UNL     1     -23.692   5.931 -30.792  1.00  0.00     0.167 HD
ENDBRANCH  23  24
ENDBRANCH  22  23
ENDBRANCH  21  22
ENDBRANCH  20  21
ENDBRANCH  19  20
ENDBRANCH  18  19
ENDBRANCH   1  18
TORSDOF 13
ENDMDL