MODEL 2
REMARK VINA RESULT: -7.444341561      3.099      6.760
REMARK  11 active torsions:
REMARK  status: ('A' for Active; 'I' for Inactive)
REMARK    1  A    between atoms: C1_4  and  C2_6
REMARK    2  A    between atoms: C5_9  and  C6_10
REMARK    3  A    between atoms: C6_10  and  C7_11
REMARK    4  A    between atoms: C7_11  and  C8_12
REMARK    5  A    between atoms: C8_12  and  C9_14
REMARK    6  A    between atoms: C9_14  and  N3_15
REMARK    7  A    between atoms: C9_14  and  C18_28
REMARK    8  A    between atoms: N3_15  and  O2_17
REMARK    9  A    between atoms: O2_17  and  C10_18
REMARK   10  A    between atoms: C10_18  and  C11_19
REMARK   11  A    between atoms: C12_20  and  C13_21
ROOT
HETATM    1  C9  UNL     1     -18.861   5.423 -30.775  1.00  0.00     0.264 C
ENDROOT
BRANCH   1   2
HETATM    2  C8  UNL     1     -19.868   4.843 -29.804  1.00  0.00     0.160 C
HETATM    3  O1  UNL     1     -20.500   3.855 -30.102  1.00  0.00    -0.295 OA
BRANCH   2   4
HETATM    4  C7  UNL     1     -20.062   5.508 -28.508  1.00  0.00     0.086 C
BRANCH   4   5
HETATM    5  C6  UNL     1     -21.557   5.326 -28.171  1.00  0.00     0.046 C
BRANCH   5   6
HETATM    6  C5  UNL     1     -22.092   6.667 -27.938  1.00  0.00    -0.058 A
HETATM    7  C4  UNL     1     -22.535   7.015 -26.692  1.00  0.00     0.008 A
HETATM    8  C3  UNL     1     -23.060   8.276 -26.476  1.00  0.00     0.015 A
HETATM    9  C2  UNL     1     -23.132   9.176 -27.538  1.00  0.00     0.004 A
HETATM   10  C20 UNL     1     -22.692   8.822 -28.763  1.00  0.00     0.015 A
HETATM   11  C19 UNL     1     -22.170   7.562 -28.969  1.00  0.00     0.008 A
BRANCH   9  12
HETATM   12  C1  UNL     1     -23.634  10.505 -27.256  1.00  0.00     0.120 C
HETATM   13  N1  UNL     1     -23.102  11.598 -27.766  1.00  0.00    -0.387 N
ATOM     14  H12 UNL     1     -23.456  12.535 -27.567  1.00  0.00     0.157 HD
ATOM     15  H11 UNL     1     -22.314  11.479 -28.403  1.00  0.00     0.157 HD
HETATM   16  N2  UNL     1     -24.727  10.670 -26.371  1.00  0.00    -0.082 NA
ENDBRANCH   9  12
ENDBRANCH   5   6
ENDBRANCH   4   5
ENDBRANCH   2   4
ENDBRANCH   1   2
BRANCH   1  17
HETATM   17  N3  UNL     1     -18.456   6.649 -30.289  1.00  0.00    -0.282 N
ATOM     18  H3  UNL     1     -18.943   6.947 -29.445  1.00  0.00     0.189 HD
BRANCH  17  19
HETATM   19  O2  UNL     1     -17.560   7.497 -30.720  1.00  0.00    -0.280 OA
BRANCH  19  20
HETATM   20  C10 UNL     1     -16.282   6.760 -30.757  1.00  0.00     0.228 C
BRANCH  20  21
HETATM   21  C11 UNL     1     -15.553   7.200 -29.576  1.00  0.00     0.004 C
HETATM   22  C12 UNL     1     -15.513   6.904 -28.375  1.00  0.00     0.027 C
BRANCH  22  23
HETATM   23  C13 UNL     1     -16.210   5.946 -27.540  1.00  0.00     0.031 A
HETATM   24  C14 UNL     1     -16.685   6.336 -26.388  1.00  0.00     0.029 A
HETATM   25  C15 UNL     1     -17.409   5.443 -25.494  1.00  0.00     0.004 A
HETATM   26  C16 UNL     1     -17.571   4.186 -25.900  1.00  0.00     0.017 A
HETATM   27  C17 UNL     1     -17.040   3.733 -27.174  1.00  0.00     0.088 A
HETATM   28  N4  UNL     1     -16.409   4.558 -27.934  1.00  0.00    -0.366 N
ATOM     29  H4  UNL     1     -16.041   4.234 -28.828  1.00  0.00     0.165 HD
ENDBRANCH  22  23
ENDBRANCH  20  21
ENDBRANCH  19  20
ENDBRANCH  17  19
ENDBRANCH   1  17
BRANCH   1  30
HETATM   30  C18 UNL     1     -19.468   5.421 -32.101  1.00  0.00     0.263 C
HETATM   31  N5  UNL     1     -19.025   4.569 -33.103  1.00  0.00    -0.060 NA
HETATM   32  O3  UNL     1     -20.408   6.247 -32.303  1.00  0.00    -0.274 OA
ENDBRANCH   1  30
TORSDOF 11
ENDMDL