MODEL 1
REMARK VINA RESULT: -7.998571319      0.000      0.000
REMARK  12 active torsions:
REMARK  status: ('A' for Active; 'I' for Inactive)
REMARK    1  A    between atoms: C1_2  and  C2_4
REMARK    2  A    between atoms: C4_7  and  C5_8
REMARK    3  A    between atoms: C5_8  and  C6_9
REMARK    4  A    between atoms: C6_9  and  C7_10
REMARK    5  A    between atoms: C7_10  and  N2_11
REMARK    6  A    between atoms: C7_10  and  C8_15
REMARK    7  A    between atoms: C7_10  and  C17_24
REMARK    8  A    between atoms: C8_15  and  C9_16
REMARK    9  A    between atoms: C9_16  and  C10_17
REMARK   10  A    between atoms: C10_17  and  C11_18
REMARK   11  A    between atoms: C17_24  and  C18_25
REMARK   12  A    between atoms: C18_25  and  N3_26
ROOT
HETATM    1  C7  UNL     1     -19.715   5.880 -31.243  1.00  0.00     0.125 C
ENDROOT
BRANCH   1   2
HETATM    2  C6  UNL     1     -20.526   5.131 -32.277  1.00  0.00     0.045 C
BRANCH   2   3
HETATM    3  C5  UNL     1     -20.785   5.859 -33.543  1.00  0.00     0.067 C
BRANCH   3   4
HETATM    4  C4  UNL     1     -19.979   5.259 -34.687  1.00  0.00     0.051 A
HETATM    5  S1  UNL     1     -19.694   5.899 -36.245  1.00  0.00    -0.086 SA
HETATM    6  C3  UNL     1     -18.731   4.630 -36.865  1.00  0.00     0.086 A
HETATM    7  C2  UNL     1     -18.685   3.759 -35.798  1.00  0.00     0.105 A
HETATM    8  N6  UNL     1     -19.332   4.125 -34.726  1.00  0.00    -0.349 N
ATOM      9  H6  UNL     1     -19.332   3.518 -33.907  1.00  0.00     0.166 HD
BRANCH   7  10
HETATM   10  C1  UNL     1     -17.935   2.480 -35.888  1.00  0.00     0.281 C
HETATM   11  N1  UNL     1     -18.247   1.444 -34.989  1.00  0.00    -0.056 NA
HETATM   12  O1  UNL     1     -17.060   2.354 -36.746  1.00  0.00    -0.269 OA
ENDBRANCH   7  10
ENDBRANCH   3   4
ENDBRANCH   2   3
ENDBRANCH   1   2
BRANCH   1  13
HETATM   13  N2  UNL     1     -19.490   7.208 -31.774  1.00  0.00    -0.070 N
ATOM     14  H23 UNL     1     -18.963   7.209 -32.646  1.00  0.00     0.275 HD
ATOM     15  H22 UNL     1     -20.337   7.646 -32.135  1.00  0.00     0.275 HD
ATOM     16  H21 UNL     1     -19.042   7.747 -31.033  1.00  0.00     0.275 HD
ENDBRANCH   1  13
BRANCH   1  17
HETATM   17  C8  UNL     1     -20.422   5.810 -29.949  1.00  0.00     0.039 C
BRANCH  17  18
HETATM   18  C9  UNL     1     -20.429   4.532 -29.205  1.00  0.00     0.007 C
BRANCH  18  19
HETATM   19  C10 UNL     1     -20.649   4.608 -27.723  1.00  0.00     0.038 C
BRANCH  19  20
HETATM   20  C11 UNL     1     -19.302   4.683 -27.031  1.00  0.00    -0.058 A
HETATM   21  C12 UNL     1     -18.175   4.118 -27.587  1.00  0.00     0.007 A
HETATM   22  C13 UNL     1     -16.999   4.236 -26.888  1.00  0.00     0.001 A
HETATM   23  C14 UNL     1     -16.954   4.894 -25.677  1.00  0.00     0.000 A
HETATM   24  C15 UNL     1     -18.110   5.452 -25.145  1.00  0.00     0.001 A
HETATM   25  C16 UNL     1     -19.289   5.348 -25.822  1.00  0.00     0.007 A
ENDBRANCH  19  20
ENDBRANCH  18  19
ENDBRANCH  17  18
ENDBRANCH   1  17
BRANCH   1  26
HETATM   26  C17 UNL     1     -18.353   5.222 -31.162  1.00  0.00     0.058 C
BRANCH  26  27
HETATM   27  C18 UNL     1     -17.328   6.056 -30.435  1.00  0.00     0.124 C
BRANCH  27  28
HETATM   28  N3  UNL     1     -16.057   5.331 -30.594  1.00  0.00    -0.367 N
HETATM   29  C19 UNL     1     -14.935   5.890 -30.265  1.00  0.00     0.196 C
HETATM   30  N4  UNL     1     -14.903   7.214 -29.745  1.00  0.00    -0.067 NA
HETATM   31  N5  UNL     1     -13.761   5.113 -30.454  1.00  0.00    -0.067 NA
ATOM     32  H3  UNL     1     -16.059   4.382 -30.967  1.00  0.00     0.161 HD
ENDBRANCH  27  28
ENDBRANCH  26  27
ENDBRANCH   1  26
TORSDOF 12
ENDMDL