MODEL 3
REMARK VINA RESULT: -6.533425103      3.273      5.439
REMARK  12 active torsions:
REMARK  status: ('A' for Active; 'I' for Inactive)
REMARK    1  A    between atoms: C2_2  and  C3_3
REMARK    2  A    between atoms: C3_3  and  C4_4
REMARK    3  A    between atoms: C4_4  and  C5_5
REMARK       I    between atoms: C5_5  and  N1_7
REMARK    4  A    between atoms: N1_7  and  C6_9
REMARK    5  A    between atoms: C6_9  and  C7_10
REMARK    6  A    between atoms: C7_10  and  N2_11
REMARK    7  A    between atoms: N2_11  and  C8_13
REMARK    8  A    between atoms: C8_13  and  C9_14
REMARK    9  A    between atoms: C9_14  and  C10_15
REMARK   10  A    between atoms: C13_18  and  C14_19
REMARK   11  A    between atoms: C14_19  and  N3_20
REMARK   12  A    between atoms: N3_20  and  C15_21
ROOT
HETATM    1  C10 UNL     1     -18.795   5.968 -30.408  1.00  0.00    -0.053 A
HETATM    2  C11 UNL     1     -18.655   7.288 -30.735  1.00  0.00     0.008 A
HETATM    3  C12 UNL     1     -19.713   8.026 -31.289  1.00  0.00     0.014 A
HETATM    4  C13 UNL     1     -20.922   7.419 -31.513  1.00  0.00    -0.007 A
HETATM    5  C20 UNL     1     -21.085   6.101 -31.196  1.00  0.00     0.014 A
HETATM    6  C21 UNL     1     -20.020   5.385 -30.645  1.00  0.00     0.008 A
ENDROOT
BRANCH   4   7
HETATM    7  C14 UNL     1     -22.051   8.247 -32.077  1.00  0.00     0.196 C
BRANCH   7   8
HETATM    8  N3  UNL     1     -22.601   9.064 -31.212  1.00  0.00    -0.397 NA
BRANCH   8   9
HETATM    9  C15 UNL     1     -23.085   9.757 -30.473  1.00  0.00     0.210 A
HETATM   10  N4  UNL     1     -23.655  10.551 -29.607  1.00  0.00    -0.325 N
HETATM   11  C16 UNL     1     -23.895  11.764 -29.274  1.00  0.00     0.184 A
ATOM     12  H4  UNL     1     -24.089   9.958 -28.900  1.00  0.00     0.169 HD
HETATM   13  N5  UNL     1     -23.411  12.780 -30.072  1.00  0.00    -0.337 N
HETATM   14  C17 UNL     1     -22.722  12.281 -31.135  1.00  0.00     0.139 A
ATOM     15  H5  UNL     1     -23.552  13.774 -29.891  1.00  0.00     0.168 HD
HETATM   16  N6  UNL     1     -22.116  13.067 -32.101  1.00  0.00    -0.337 N
HETATM   17  C19 UNL     1     -22.531  11.055 -31.389  1.00  0.00     0.136 A
HETATM   18  C18 UNL     1     -21.548  12.213 -32.948  1.00  0.00     0.182 A
ATOM     19  H6  UNL     1     -22.107  14.085 -32.152  1.00  0.00     0.168 HD
HETATM   20  N7  UNL     1     -21.818  10.920 -32.489  1.00  0.00    -0.345 N
ATOM     21  H7  UNL     1     -21.522  10.044 -32.921  1.00  0.00     0.167 HD
ENDBRANCH   8   9
ENDBRANCH   7   8
ENDBRANCH   4   7
BRANCH   1  22
HETATM   22  C9  UNL     1     -17.669   5.163 -29.754  1.00  0.00     0.083 C
BRANCH  22  23
HETATM   23  C8  UNL     1     -16.369   5.747 -30.184  1.00  0.00     0.064 C
BRANCH  23  24
HETATM   24  N2  UNL     1     -15.399   6.084 -29.254  1.00  0.00    -0.381 N
ATOM     25  H2  UNL     1     -14.458   5.708 -29.369  1.00  0.00     0.164 HD
BRANCH  24  26
HETATM   26  C7  UNL     1     -15.658   6.914 -28.172  1.00  0.00     0.079 C
BRANCH  26  27
HETATM   27  C6  UNL     1     -15.667   6.365 -26.790  1.00  0.00     0.167 C
BRANCH  27  28
HETATM   28  N1  UNL     1     -17.021   6.161 -26.292  1.00  0.00    -0.356 N
HETATM   29  C5  UNL     1     -17.575   4.877 -26.156  1.00  0.00     0.218 C
HETATM   30  O1  UNL     1     -16.866   3.881 -26.462  1.00  0.00    -0.274 OA
ATOM     31  H1  UNL     1     -17.582   6.973 -26.035  1.00  0.00     0.162 HD
BRANCH  29  32
HETATM   32  C4  UNL     1     -18.930   4.611 -25.682  1.00  0.00     0.106 C
BRANCH  32  33
HETATM   33  C3  UNL     1     -19.925   4.427 -26.813  1.00  0.00     0.035 C
BRANCH  33  34
HETATM   34  C2  UNL     1     -20.739   5.668 -27.009  1.00  0.00    -0.036 C
HETATM   35  C1  UNL     1     -21.932   5.636 -27.543  1.00  0.00     0.007 C
ENDBRANCH  33  34
ENDBRANCH  32  33
ENDBRANCH  29  32
ENDBRANCH  27  28
ENDBRANCH  26  27
ENDBRANCH  24  26
ENDBRANCH  23  24
ENDBRANCH  22  23
ENDBRANCH   1  22
TORSDOF 12
ENDMDL