MODEL 1
REMARK VINA RESULT: -6.966089850      0.000      0.000
REMARK  11 active torsions:
REMARK  status: ('A' for Active; 'I' for Inactive)
REMARK    1  A    between atoms: N1_2  and  C2_3
REMARK    2  A    between atoms: N1_2  and  S1_16
REMARK    3  A    between atoms: C2_3  and  C3_4
REMARK    4  A    between atoms: C3_4  and  O1_5
REMARK    5  A    between atoms: O1_5  and  C4_6
REMARK    6  A    between atoms: C4_6  and  C5_7
REMARK    7  A    between atoms: C5_7  and  C6_8
REMARK    8  A    between atoms: C6_8  and  C7_9
REMARK    9  A    between atoms: S1_16  and  N4_19
REMARK   10  A    between atoms: N4_19  and  C10_21
REMARK   11  A    between atoms: C13_24  and  C14_25
ROOT
HETATM    1  S1  UNL     1     -19.998   7.030 -31.172  1.00  0.00     0.303 S
HETATM    2  O2  UNL     1     -18.558   7.441 -31.167  1.00  0.00    -0.188 OA
HETATM    3  O3  UNL     1     -20.753   8.205 -30.558  1.00  0.00    -0.188 OA
ENDROOT
BRANCH   1   4
HETATM    4  N1  UNL     1     -20.258   5.697 -30.119  1.00  0.00    -0.195 NA
HETATM    5  C1  UNL     1     -20.994   6.145 -28.967  1.00  0.00     0.131 C
BRANCH   4   6
HETATM    6  C2  UNL     1     -19.071   5.019 -29.731  1.00  0.00     0.134 C
BRANCH   6   7
HETATM    7  C3  UNL     1     -19.162   4.725 -28.244  1.00  0.00     0.183 C
BRANCH   7   8
HETATM    8  O1  UNL     1     -18.143   3.861 -27.847  1.00  0.00    -0.390 OA
BRANCH   8   9
HETATM    9  C4  UNL     1     -17.543   4.260 -26.682  1.00  0.00     0.168 C
BRANCH   9  10
HETATM   10  C5  UNL     1     -17.322   5.738 -26.558  1.00  0.00     0.032 C
BRANCH  10  11
HETATM   11  C6  UNL     1     -15.908   6.089 -26.950  1.00  0.00     0.060 C
BRANCH  11  12
HETATM   12  C7  UNL     1     -15.711   6.175 -28.411  1.00  0.00     0.025 A
HETATM   13  C8  UNL     1     -15.591   7.322 -29.185  1.00  0.00     0.114 A
HETATM   14  N2  UNL     1     -15.427   6.930 -30.454  1.00  0.00    -0.360 N
HETATM   15  C9  UNL     1     -15.435   5.593 -30.528  1.00  0.00     0.180 A
ATOM     16  H2  UNL     1     -15.312   7.559 -31.249  1.00  0.00     0.166 HD
HETATM   17  N3  UNL     1     -15.608   5.150 -29.287  1.00  0.00    -0.355 N
ATOM     18  H3  UNL     1     -15.655   4.165 -29.029  1.00  0.00     0.166 HD
ENDBRANCH  11  12
ENDBRANCH  10  11
ENDBRANCH   9  10
ENDBRANCH   8   9
ENDBRANCH   7   8
ENDBRANCH   6   7
ENDBRANCH   4   6
ENDBRANCH   1   4
BRANCH   1  19
HETATM   19  N4  UNL     1     -20.606   6.672 -32.736  1.00  0.00    -0.272 N
ATOM     20  H4  UNL     1     -21.473   7.128 -33.015  1.00  0.00     0.180 HD
BRANCH  19  21
HETATM   21  C10 UNL     1     -20.002   5.795 -33.672  1.00  0.00     0.043 A
HETATM   22  C11 UNL     1     -20.000   6.061 -35.025  1.00  0.00     0.031 A
HETATM   23  C12 UNL     1     -19.414   5.196 -35.923  1.00  0.00     0.017 A
HETATM   24  C13 UNL     1     -18.786   4.005 -35.527  1.00  0.00     0.005 A
HETATM   25  C15 UNL     1     -18.798   3.759 -34.177  1.00  0.00     0.017 A
HETATM   26  C16 UNL     1     -19.385   4.622 -33.271  1.00  0.00     0.031 A
BRANCH  24  27
HETATM   27  C14 UNL     1     -18.186   3.134 -36.508  1.00  0.00     0.120 C
HETATM   28  N5  UNL     1     -16.972   2.782 -36.443  1.00  0.00    -0.387 N
ATOM     29  H52 UNL     1     -16.408   3.131 -35.669  1.00  0.00     0.157 HD
ATOM     30  H51 UNL     1     -16.548   2.167 -37.137  1.00  0.00     0.157 HD
HETATM   31  N6  UNL     1     -18.973   2.647 -37.588  1.00  0.00    -0.082 NA
ENDBRANCH  24  27
ENDBRANCH  19  21
ENDBRANCH   1  19
TORSDOF 11
ENDMDL