MODEL 1
REMARK VINA RESULT: -7.929915921      0.000      0.000
REMARK  12 active torsions:
REMARK  status: ('A' for Active; 'I' for Inactive)
REMARK    1  A    between atoms: O1_2  and  C2_3
REMARK    2  A    between atoms: C5_6  and  C6_7
REMARK    3  A    between atoms: C6_7  and  C7_8
REMARK    4  A    between atoms: C7_8  and  N1_9
REMARK    5  A    between atoms: N1_9  and  C8_11
REMARK    6  A    between atoms: C8_11  and  C9_12
REMARK    7  A    between atoms: C9_12  and  O2_13
REMARK    8  A    between atoms: C9_12  and  C10_15
REMARK    9  A    between atoms: C10_15  and  O3_16
REMARK   10  A    between atoms: O3_16  and  C11_17
REMARK   11  A    between atoms: C15_21  and  C16_22
REMARK   12  A    between atoms: C17_23  and  N2_24
ROOT
HETATM    1  C9  UNL     1     -21.108   4.387 -29.167  1.00  0.00     0.159 C
ENDROOT
BRANCH   1   2
HETATM    2  C8  UNL     1     -22.232   5.436 -29.291  1.00  0.00     0.147 C
BRANCH   2   3
HETATM    3  N1  UNL     1     -21.920   6.418 -30.264  1.00  0.00    -0.418 N
ATOM      4  H1  UNL     1     -22.502   6.539 -31.092  1.00  0.00     0.153 HD
BRANCH   3   5
HETATM    5  C7  UNL     1     -20.778   7.224 -30.052  1.00  0.00     0.118 C
BRANCH   5   6
HETATM    6  C6  UNL     1     -20.069   7.717 -31.280  1.00  0.00     0.057 C
BRANCH   6   7
HETATM    7  C5  UNL     1     -19.878   6.678 -32.321  1.00  0.00    -0.057 A
HETATM    8  C4  UNL     1     -19.105   5.568 -32.022  1.00  0.00     0.010 A
HETATM    9  C3  UNL     1     -18.895   4.562 -32.941  1.00  0.00     0.037 A
HETATM   10  C2  UNL     1     -19.462   4.654 -34.190  1.00  0.00     0.068 A
HETATM   11  C21 UNL     1     -20.229   5.754 -34.489  1.00  0.00     0.037 A
HETATM   12  C20 UNL     1     -20.449   6.773 -33.573  1.00  0.00     0.010 A
BRANCH  10  13
HETATM   13  O1  UNL     1     -19.276   3.655 -35.160  1.00  0.00    -0.356 OA
HETATM   14  C1  UNL     1     -18.084   2.914 -35.234  1.00  0.00     0.210 C
ENDBRANCH  10  13
ENDBRANCH   6   7
ENDBRANCH   5   6
ENDBRANCH   3   5
ENDBRANCH   2   3
ENDBRANCH   1   2
BRANCH   1  15
HETATM   15  O2  UNL     1     -21.735   3.120 -29.353  1.00  0.00    -0.392 OA
ATOM     16  H2  UNL     1     -21.737   2.967 -30.290  1.00  0.00     0.210 HD
ENDBRANCH   1  15
BRANCH   1  17
HETATM   17  C10 UNL     1     -20.658   4.422 -27.732  1.00  0.00     0.209 C
BRANCH  17  18
HETATM   18  O3  UNL     1     -19.358   4.112 -27.559  1.00  0.00    -0.349 OA
BRANCH  18  19
HETATM   19  C11 UNL     1     -18.240   4.883 -27.531  1.00  0.00     0.069 A
HETATM   20  C12 UNL     1     -17.569   5.140 -26.364  1.00  0.00     0.037 A
HETATM   21  C13 UNL     1     -16.422   5.941 -26.353  1.00  0.00     0.004 A
HETATM   22  C14 UNL     1     -15.944   6.488 -27.536  1.00  0.00     0.011 A
HETATM   23  C15 UNL     1     -16.578   6.261 -28.731  1.00  0.00    -0.032 A
HETATM   24  C19 UNL     1     -17.728   5.451 -28.694  1.00  0.00     0.048 A
BRANCH  23  25
HETATM   25  C16 UNL     1     -16.141   6.791 -29.991  1.00  0.00     0.028 C
HETATM   26  C17 UNL     1     -14.976   6.969 -30.438  1.00  0.00     0.091 C
BRANCH  26  27
HETATM   27  N2  UNL     1     -13.755   6.696 -29.817  1.00  0.00    -0.343 N
HETATM   28  C18 UNL     1     -12.939   5.847 -30.324  1.00  0.00     0.200 C
HETATM   29  N3  UNL     1     -11.683   5.561 -29.691  1.00  0.00    -0.067 NA
HETATM   30  N4  UNL     1     -13.278   5.183 -31.518  1.00  0.00    -0.067 NA
ATOM     31  H2  UNL     1     -13.510   7.177 -28.952  1.00  0.00     0.167 HD
ENDBRANCH  26  27
ENDBRANCH  23  25
ENDBRANCH  18  19
ENDBRANCH  17  18
ENDBRANCH   1  17
TORSDOF 12
ENDMDL