MODEL 5
REMARK VINA RESULT: -6.205330608      3.337      6.219
REMARK  14 active torsions:
REMARK  status: ('A' for Active; 'I' for Inactive)
REMARK    1  A    between atoms: N1_2  and  C2_4
REMARK    2  A    between atoms: C2_4  and  N2_6
REMARK    3  A    between atoms: N2_6  and  C3_8
REMARK    4  A    between atoms: C3_8  and  C4_9
REMARK    5  A    between atoms: C4_9  and  N3_10
REMARK    6  A    between atoms: N3_10  and  C5_13
REMARK    7  A    between atoms: C5_13  and  C6_14
REMARK    8  A    between atoms: C6_14  and  O1_15
REMARK    9  A    between atoms: C6_14  and  C7_17
REMARK   10  A    between atoms: C7_17  and  O2_18
REMARK   11  A    between atoms: O2_18  and  C8_19
REMARK   12  A    between atoms: C11_22  and  C12_23
REMARK   13  A    between atoms: C12_23  and  C13_24
REMARK   14  A    between atoms: C13_24  and  C14_25
ROOT
HETATM    1  C7  UNL     1     -16.208   4.880 -27.435  1.00  0.00     0.209 C
ENDROOT
BRANCH   1   2
HETATM    2  C6  UNL     1     -15.922   6.276 -26.959  1.00  0.00     0.168 C
BRANCH   2   3
HETATM    3  C5  UNL     1     -15.655   7.196 -28.111  1.00  0.00     0.266 C
BRANCH   3   4
HETATM    4  N3  UNL     1     -14.664   6.700 -29.037  1.00  0.00    -0.071 N
ATOM      5  H32 UNL     1     -14.335   5.769 -28.782  1.00  0.00     0.277 HD
ATOM      6  H31 UNL     1     -13.779   7.200 -28.952  1.00  0.00     0.277 HD
BRANCH   4   7
HETATM    7  C4  UNL     1     -15.180   6.741 -30.382  1.00  0.00     0.252 C
BRANCH   7   8
HETATM    8  C3  UNL     1     -16.636   7.078 -30.491  1.00  0.00     0.149 C
BRANCH   8   9
HETATM    9  N2  UNL     1     -17.397   5.936 -30.895  1.00  0.00    -0.366 N
ATOM     10  H2  UNL     1     -16.946   5.022 -30.853  1.00  0.00     0.161 HD
BRANCH   9  11
HETATM   11  C2  UNL     1     -18.723   5.994 -31.344  1.00  0.00     0.167 C
HETATM   12  S1  UNL     1     -19.573   7.377 -31.221  1.00  0.00    -0.041 SA
BRANCH  11  13
HETATM   13  N1  UNL     1     -19.363   4.882 -31.942  1.00  0.00    -0.372 N
HETATM   14  C1  UNL     1     -19.264   4.568 -33.342  1.00  0.00     0.148 C
ATOM     15  H1  UNL     1     -19.925   4.270 -31.348  1.00  0.00     0.161 HD
ENDBRANCH  11  13
ENDBRANCH   9  11
ENDBRANCH   8   9
ENDBRANCH   7   8
ENDBRANCH   4   7
ENDBRANCH   3   4
ENDBRANCH   2   3
BRANCH   2  16
HETATM   16  O1  UNL     1     -14.813   6.285 -26.116  1.00  0.00    -0.392 OA
ATOM     17  H1  UNL     1     -14.743   5.434 -25.698  1.00  0.00     0.210 HD
ENDBRANCH   2  16
ENDBRANCH   1   2
BRANCH   1  18
HETATM   18  O2  UNL     1     -17.197   4.351 -26.563  1.00  0.00    -0.349 OA
BRANCH  18  19
HETATM   19  C8  UNL     1     -18.486   4.797 -26.675  1.00  0.00     0.068 A
HETATM   20  C9  UNL     1     -19.225   5.403 -25.687  1.00  0.00     0.037 A
HETATM   21  C10 UNL     1     -20.529   5.817 -25.909  1.00  0.00     0.010 A
HETATM   22  C11 UNL     1     -21.159   5.647 -27.122  1.00  0.00    -0.058 A
HETATM   23  C19 UNL     1     -20.413   5.038 -28.109  1.00  0.00     0.010 A
HETATM   24  C20 UNL     1     -19.116   4.620 -27.908  1.00  0.00     0.037 A
BRANCH  22  25
HETATM   25  C12 UNL     1     -22.536   6.080 -27.369  1.00  0.00     0.043 C
BRANCH  25  26
HETATM   26  C13 UNL     1     -22.947   7.315 -26.600  1.00  0.00     0.043 C
BRANCH  26  27
HETATM   27  C14 UNL     1     -23.043   8.428 -27.553  1.00  0.00    -0.055 A
HETATM   28  C15 UNL     1     -23.227   9.707 -27.095  1.00  0.00     0.024 A
HETATM   29  C16 UNL     1     -23.326  10.776 -27.996  1.00  0.00     0.088 A
HETATM   30  N4  UNL     1     -23.239  10.554 -29.319  1.00  0.00    -0.375 N
HETATM   31  C17 UNL     1     -23.059   9.317 -29.793  1.00  0.00     0.088 A
ATOM     32  H4  UNL     1     -23.312  11.338 -29.968  1.00  0.00     0.164 HD
HETATM   33  C18 UNL     1     -22.958   8.235 -28.910  1.00  0.00     0.024 A
ENDBRANCH  26  27
ENDBRANCH  25  26
ENDBRANCH  22  25
ENDBRANCH  18  19
ENDBRANCH   1  18
TORSDOF 14
ENDMDL