MODEL 3
REMARK VINA RESULT: -6.177163712      1.735      2.350
REMARK  13 active torsions:
REMARK  status: ('A' for Active; 'I' for Inactive)
REMARK    1  A    between atoms: C1_4  and  C2_6
REMARK    2  A    between atoms: C6_10  and  C7_11
REMARK    3  A    between atoms: C7_11  and  N3_12
REMARK    4  A    between atoms: N3_12  and  C8_15
REMARK    5  A    between atoms: C8_15  and  C9_16
REMARK    6  A    between atoms: C9_16  and  O1_17
REMARK    7  A    between atoms: O1_17  and  C10_18
REMARK    8  A    between atoms: C10_18  and  C11_19
REMARK    9  A    between atoms: C11_19  and  O2_20
REMARK   10  A    between atoms: O2_20  and  C12_21
REMARK   11  A    between atoms: C12_21  and  C13_22
REMARK   12  A    between atoms: C14_23  and  C15_24
REMARK   13  A    between atoms: C19_28  and  C20_29
ROOT
HETATM    1  C9  UNL     1     -16.339   6.155 -28.149  1.00  0.00     0.195 C
ENDROOT
BRANCH   1   2
HETATM    2  C8  UNL     1     -15.447   5.972 -29.355  1.00  0.00     0.258 C
BRANCH   2   3
HETATM    3  N3  UNL     1     -16.246   5.356 -30.398  1.00  0.00    -0.069 N
ATOM      4  H32 UNL     1     -15.854   4.460 -30.689  1.00  0.00     0.277 HD
ATOM      5  H31 UNL     1     -16.162   5.860 -31.281  1.00  0.00     0.277 HD
BRANCH   3   6
HETATM    6  C7  UNL     1     -17.632   5.221 -29.994  1.00  0.00     0.270 C
BRANCH   6   7
HETATM    7  C6  UNL     1     -18.528   5.907 -30.946  1.00  0.00    -0.032 A
HETATM    8  C5  UNL     1     -18.917   7.206 -30.743  1.00  0.00     0.009 A
HETATM    9  C4  UNL     1     -19.749   7.826 -31.641  1.00  0.00     0.002 A
HETATM   10  C3  UNL     1     -20.199   7.146 -32.753  1.00  0.00     0.015 A
HETATM   11  C2  UNL     1     -19.804   5.846 -32.947  1.00  0.00     0.005 A
HETATM   12  C22 UNL     1     -18.972   5.222 -32.051  1.00  0.00     0.023 A
BRANCH  11  13
HETATM   13  C1  UNL     1     -20.262   5.094 -34.117  1.00  0.00     0.120 C
HETATM   14  N1  UNL     1     -19.475   4.228 -34.647  1.00  0.00    -0.387 N
ATOM     15  H12 UNL     1     -19.795   3.705 -35.462  1.00  0.00     0.157 HD
ATOM     16  H11 UNL     1     -18.548   4.073 -34.250  1.00  0.00     0.157 HD
HETATM   17  N2  UNL     1     -21.549   5.310 -34.668  1.00  0.00    -0.082 NA
ENDBRANCH  11  13
ENDBRANCH   6   7
ENDBRANCH   3   6
ENDBRANCH   2   3
ENDBRANCH   1   2
BRANCH   1  18
HETATM   18  O1  UNL     1     -15.609   6.263 -26.994  1.00  0.00    -0.387 OA
BRANCH  18  19
HETATM   19  C10 UNL     1     -16.280   5.686 -25.935  1.00  0.00     0.193 C
BRANCH  19  20
HETATM   20  C11 UNL     1     -17.139   4.506 -26.323  1.00  0.00     0.195 C
BRANCH  20  21
HETATM   21  O2  UNL     1     -18.097   4.325 -25.339  1.00  0.00    -0.377 OA
BRANCH  21  22
HETATM   22  C12 UNL     1     -19.057   5.336 -25.350  1.00  0.00     0.261 C
BRANCH  22  23
HETATM   23  C13 UNL     1     -19.842   5.235 -26.581  1.00  0.00    -0.075 C
HETATM   24  C14 UNL     1     -20.500   5.133 -27.596  1.00  0.00    -0.065 C
BRANCH  24  25
HETATM   25  C15 UNL     1     -21.284   4.988 -28.796  1.00  0.00     0.018 A
HETATM   26  C16 UNL     1     -21.333   3.773 -29.471  1.00  0.00     0.020 A
HETATM   27  C17 UNL     1     -22.087   3.641 -30.622  1.00  0.00     0.002 A
HETATM   28  C18 UNL     1     -22.798   4.715 -31.109  1.00  0.00     0.017 A
HETATM   29  C19 UNL     1     -22.776   5.937 -30.469  1.00  0.00     0.030 A
HETATM   30  C21 UNL     1     -22.007   6.043 -29.310  1.00  0.00     0.037 A
BRANCH  29  31
HETATM   31  C20 UNL     1     -23.528   7.059 -30.990  1.00  0.00     0.265 C
HETATM   32  N4  UNL     1     -24.116   6.991 -32.266  1.00  0.00    -0.057 NA
HETATM   33  O3  UNL     1     -23.653   8.087 -30.300  1.00  0.00    -0.271 OA
ENDBRANCH  29  31
ENDBRANCH  24  25
ENDBRANCH  22  23
ENDBRANCH  21  22
ENDBRANCH  20  21
ENDBRANCH  19  20
ENDBRANCH  18  19
ENDBRANCH   1  18
TORSDOF 13
ENDMDL