MODEL 4
REMARK VINA RESULT: -8.820149536      1.366      1.541
REMARK  15 active torsions:
REMARK  status: ('A' for Active; 'I' for Inactive)
REMARK    1  A    between atoms: C2_2  and  O1_3
REMARK    2  A    between atoms: O1_3  and  C3_4
REMARK    3  A    between atoms: C3_4  and  C4_6
REMARK    4  A    between atoms: C9_11  and  O3_12
REMARK    5  A    between atoms: C11_17  and  O6_18
REMARK    6  A    between atoms: C11_17  and  C12_20
REMARK    7  A    between atoms: C12_20  and  N2_24
REMARK    8  A    between atoms: N2_24  and  N3_26
REMARK       I    between atoms: N3_26  and  C13_28
REMARK    9  A    between atoms: C13_28  and  C14_30
REMARK   10  A    between atoms: C16_34  and  C17_35
REMARK   11  A    between atoms: C17_35  and  N5_36
REMARK   12  A    between atoms: N5_36  and  N6_37
REMARK       I    between atoms: N6_37  and  C18_39
REMARK   13  A    between atoms: C18_39  and  C19_41
REMARK   14  A    between atoms: C19_41  and  N7_42
REMARK   15  A    between atoms: C19_41  and  C20_46
ROOT
HETATM    1  N2  UNL     1     -18.423 -27.185 -15.711  1.00  0.00    -0.283 N
ATOM      2  H2  UNL     1     -19.368 -27.209 -16.095  1.00  0.00     0.188 HD
ENDROOT
BRANCH   1   3
HETATM    3  C12 UNL     1     -17.339 -27.054 -16.581  1.00  0.00     0.140 C
HETATM    4  N1  UNL     1     -17.218 -27.825 -17.612  1.00  0.00    -0.385 N
ATOM      5  H12 UNL     1     -16.426 -27.730 -18.248  1.00  0.00     0.157 HD
ATOM      6  H11 UNL     1     -17.945 -28.528 -17.746  1.00  0.00     0.157 HD
BRANCH   3   7
HETATM    7  C11 UNL     1     -16.268 -26.018 -16.384  1.00  0.00     0.236 A
HETATM    8  C6  UNL     1     -16.943 -24.715 -16.242  1.00  0.00     0.029 A
HETATM    9  C5  UNL     1     -17.692 -23.943 -17.133  1.00  0.00     0.034 A
HETATM   10  C7  UNL     1     -16.773 -24.275 -14.956  1.00  0.00     0.092 A
HETATM   11  C4  UNL     1     -18.283 -22.751 -16.801  1.00  0.00     0.073 A
HETATM   12  C9  UNL     1     -18.107 -22.314 -15.496  1.00  0.00     0.084 A
HETATM   13  C8  UNL     1     -17.373 -23.059 -14.601  1.00  0.00     0.075 A
HETATM   14  O4  UNL     1     -15.999 -25.182 -14.258  1.00  0.00    -0.275 OA
HETATM   15  C10 UNL     1     -15.638 -26.237 -15.071  1.00  0.00     0.312 A
HETATM   16  O5  UNL     1     -14.899 -27.219 -14.750  1.00  0.00    -0.260 OA
BRANCH  11  17
HETATM   17  C3  UNL     1     -19.058 -21.983 -17.784  1.00  0.00     0.296 C
HETATM   18  O2  UNL     1     -18.505 -20.997 -18.338  1.00  0.00    -0.259 OA
BRANCH  17  19
HETATM   19  O1  UNL     1     -20.344 -22.288 -18.123  1.00  0.00    -0.318 OA
BRANCH  19  20
HETATM   20  C2  UNL     1     -21.011 -21.980 -19.317  1.00  0.00     0.174 C
HETATM   21  C1  UNL     1     -22.082 -22.974 -19.639  1.00  0.00     0.034 C
ENDBRANCH  19  20
ENDBRANCH  17  19
ENDBRANCH  11  17
BRANCH  12  22
HETATM   22  O3  UNL     1     -18.700 -21.102 -15.127  1.00  0.00    -0.360 OA
ATOM     23  H3  UNL     1     -18.362 -20.305 -15.518  1.00  0.00     0.217 HD
ENDBRANCH  12  22
BRANCH   7  24
HETATM   24  O6  UNL     1     -15.406 -25.983 -17.451  1.00  0.00    -0.369 OA
ATOM     25  H6  UNL     1     -15.715 -26.565 -18.136  1.00  0.00     0.212 HD
ENDBRANCH   7  24
ENDBRANCH   3   7
ENDBRANCH   1   3
BRANCH   1  26
HETATM   26  N3  UNL     1     -18.247 -27.284 -14.329  1.00  0.00    -0.264 N
HETATM   27  C13 UNL     1     -19.077 -26.502 -13.503  1.00  0.00     0.278 C
HETATM   28  O7  UNL     1     -19.937 -25.748 -14.013  1.00  0.00    -0.265 OA
ATOM     29  H3  UNL     1     -17.540 -27.902 -13.932  1.00  0.00     0.190 HD
BRANCH  27  30
HETATM   30  C14 UNL     1     -18.944 -26.556 -12.052  1.00  0.00     0.091 A
HETATM   31  C15 UNL     1     -17.800 -26.300 -11.318  1.00  0.00     0.113 A
HETATM   32  N4  UNL     1     -17.885 -26.396 -10.039  1.00  0.00    -0.357 N
HETATM   33  C16 UNL     1     -19.039 -26.731  -9.454  1.00  0.00     0.106 A
ATOM     34  H4  UNL     1     -17.063 -26.214  -9.464  1.00  0.00     0.166 HD
HETATM   35  S1  UNL     1     -20.055 -26.920 -10.806  1.00  0.00    -0.063 SA
BRANCH  33  36
HETATM   36  C17 UNL     1     -19.281 -26.861  -8.000  1.00  0.00     0.246 C
BRANCH  36  37
HETATM   37  N5  UNL     1     -18.592 -26.616  -7.105  1.00  0.00    -0.333 NA
BRANCH  37  38
HETATM   38  N6  UNL     1     -17.765 -26.286  -6.141  1.00  0.00    -0.202 N
HETATM   39  C18 UNL     1     -18.080 -25.490  -5.010  1.00  0.00     0.277 C
HETATM   40  O8  UNL     1     -19.233 -25.048  -4.825  1.00  0.00    -0.269 OA
ATOM     41  H6  UNL     1     -16.808 -26.632  -6.212  1.00  0.00     0.205 HD
BRANCH  39  42
HETATM   42  C19 UNL     1     -17.033 -25.139  -3.975  1.00  0.00     0.276 C
BRANCH  42  43
HETATM   43  N7  UNL     1     -15.724 -25.479  -4.580  1.00  0.00    -0.066 N
ATOM     44  H73 UNL     1     -15.031 -25.789  -3.899  1.00  0.00     0.275 HD
ATOM     45  H72 UNL     1     -15.744 -26.334  -5.136  1.00  0.00     0.275 HD
ATOM     46  H71 UNL     1     -15.434 -24.657  -5.108  1.00  0.00     0.275 HD
ENDBRANCH  42  43
BRANCH  42  47
HETATM   47  C20 UNL     1     -17.167 -26.070  -2.762  1.00  0.00     0.038 C
HETATM   48  C21 UNL     1     -15.896 -26.406  -2.079  1.00  0.00     0.007 C
ENDBRANCH  42  47
ENDBRANCH  39  42
ENDBRANCH  37  38
ENDBRANCH  36  37
ENDBRANCH  33  36
ENDBRANCH  27  30
ENDBRANCH   1  26
TORSDOF 15
ENDMDL