MODEL 5
REMARK VINA RESULT: -8.088460325      2.492      6.676
REMARK  12 active torsions:
REMARK  status: ('A' for Active; 'I' for Inactive)
REMARK    1  A    between atoms: O1_2  and  C2_3
REMARK    2  A    between atoms: C2_3  and  C3_5
REMARK    3  A    between atoms: C4_6  and  C5_7
REMARK       I    between atoms: C5_7  and  N1_9
REMARK    4  A    between atoms: N1_9  and  N2_11
REMARK    5  A    between atoms: N4_16  and  C6_17
REMARK    6  A    between atoms: C8_27  and  N8_28
REMARK       I    between atoms: N8_28  and  C9_30
REMARK    7  A    between atoms: C9_30  and  C10_32
REMARK    8  A    between atoms: C18_42  and  C19_43
REMARK    9  A    between atoms: C19_43  and  O6_44
REMARK   10  A    between atoms: C19_43  and  C20_46
REMARK   11  A    between atoms: C20_46  and  N10_47
REMARK   12  A    between atoms: C20_46  and  C21_51
ROOT
HETATM    1  C3  UNL     1     -17.523 -24.569 -14.671  1.00  0.00     0.119 A
HETATM    2  C4  UNL     1     -16.936 -25.072 -13.530  1.00  0.00     0.138 A
HETATM    3  N3  UNL     1     -17.188 -26.418 -13.547  1.00  0.00    -0.284 N
ATOM      4  H3  UNL     1     -16.878 -27.079 -12.835  1.00  0.00     0.188 HD
HETATM    5  N4  UNL     1     -17.878 -26.729 -14.596  1.00  0.00    -0.216 N
HETATM    6  C8  UNL     1     -18.131 -25.590 -15.355  1.00  0.00     0.151 A
ENDROOT
BRANCH   6   7
HETATM    7  N8  UNL     1     -19.014 -25.662 -16.401  1.00  0.00    -0.305 N
HETATM    8  C9  UNL     1     -18.904 -25.794 -17.799  1.00  0.00     0.274 C
HETATM    9  O5  UNL     1     -17.812 -25.725 -18.389  1.00  0.00    -0.266 OA
ATOM     10  H8  UNL     1     -19.985 -25.607 -16.093  1.00  0.00     0.170 HD
BRANCH   8  11
HETATM   11  C10 UNL     1     -20.108 -26.026 -18.631  1.00  0.00     0.110 A
HETATM   12  N9  UNL     1     -20.384 -27.357 -18.846  1.00  0.00    -0.351 N
HETATM   13  C11 UNL     1     -21.416 -27.780 -19.559  1.00  0.00     0.043 A
ATOM     14  H9  UNL     1     -19.762 -28.053 -18.435  1.00  0.00     0.166 HD
HETATM   15  C12 UNL     1     -21.693 -29.126 -19.775  1.00  0.00     0.030 A
HETATM   16  C16 UNL     1     -22.239 -26.819 -20.103  1.00  0.00    -0.009 A
HETATM   17  C13 UNL     1     -22.779 -29.526 -20.525  1.00  0.00     0.002 A
HETATM   18  C14 UNL     1     -23.609 -28.573 -21.074  1.00  0.00     0.001 A
HETATM   19  C15 UNL     1     -23.322 -27.248 -20.851  1.00  0.00     0.014 A
HETATM   20  C17 UNL     1     -21.978 -25.481 -19.899  1.00  0.00     0.026 A
HETATM   21  C18 UNL     1     -20.877 -25.040 -19.139  1.00  0.00     0.006 A
BRANCH  21  22
HETATM   22  C19 UNL     1     -20.617 -23.627 -18.907  1.00  0.00     0.194 C
BRANCH  22  23
HETATM   23  O6  UNL     1     -21.888 -23.015 -18.826  1.00  0.00    -0.388 OA
ATOM     24  H6  UNL     1     -22.177 -23.145 -17.930  1.00  0.00     0.210 HD
ENDBRANCH  22  23
BRANCH  22  25
HETATM   25  C20 UNL     1     -19.863 -22.940 -20.049  1.00  0.00     0.316 C
BRANCH  25  26
HETATM   26  N10 UNL     1     -20.799 -21.868 -20.484  1.00  0.00    -0.062 N
ATOM     27 3H10 UNL     1     -21.319 -21.427 -19.725  1.00  0.00     0.275 HD
ATOM     28 2H10 UNL     1     -20.344 -21.015 -20.809  1.00  0.00     0.275 HD
ATOM     29 1H10 UNL     1     -21.380 -22.331 -21.182  1.00  0.00     0.275 HD
ENDBRANCH  25  26
BRANCH  25  30
HETATM   30  C21 UNL     1     -18.655 -22.234 -19.552  1.00  0.00     0.207 C
HETATM   31  O7  UNL     1     -18.657 -21.180 -18.888  1.00  0.00    -0.646 OA
HETATM   32  O8  UNL     1     -17.377 -22.758 -19.826  1.00  0.00    -0.646 OA
ENDBRANCH  25  30
ENDBRANCH  22  25
ENDBRANCH  21  22
ENDBRANCH   8  11
ENDBRANCH   6   7
BRANCH   1  33
HETATM   33  C2  UNL     1     -17.253 -23.219 -15.131  1.00  0.00     0.299 C
HETATM   34  O2  UNL     1     -16.146 -22.657 -14.967  1.00  0.00    -0.259 OA
BRANCH  33  35
HETATM   35  O1  UNL     1     -18.216 -22.478 -15.776  1.00  0.00    -0.322 OA
HETATM   36  C1  UNL     1     -19.191 -21.721 -15.063  1.00  0.00     0.213 C
ENDBRANCH  33  35
ENDBRANCH   1  33
BRANCH   5  37
HETATM   37  C6  UNL     1     -18.315 -28.054 -14.922  1.00  0.00     0.196 A
HETATM   38  N5  UNL     1     -19.271 -28.792 -14.301  1.00  0.00    -0.220 N
HETATM   39  O4  UNL     1     -19.363 -29.933 -14.899  1.00  0.00    -0.153 OA
ATOM     40  H5  UNL     1     -19.824 -28.495 -13.498  1.00  0.00     0.198 HD
HETATM   41  N6  UNL     1     -18.518 -30.008 -15.894  1.00  0.00    -0.222 N
HETATM   42  C7  UNL     1     -17.852 -28.858 -15.934  1.00  0.00     0.169 A
ATOM     43  H6  UNL     1     -18.393 -30.801 -16.523  1.00  0.00     0.198 HD
HETATM   44  N7  UNL     1     -16.927 -28.551 -16.782  1.00  0.00    -0.381 N
ATOM     45  H72 UNL     1     -16.417 -27.669 -16.812  1.00  0.00     0.157 HD
ATOM     46  H71 UNL     1     -16.584 -29.149 -17.533  1.00  0.00     0.157 HD
ENDBRANCH   5  37
BRANCH   2  47
HETATM   47  C5  UNL     1     -16.279 -24.514 -12.378  1.00  0.00     0.288 C
HETATM   48  O3  UNL     1     -16.869 -24.657 -11.253  1.00  0.00    -0.264 OA
HETATM   49  N1  UNL     1     -15.067 -23.828 -12.407  1.00  0.00    -0.271 N
ATOM     50  H1  UNL     1     -14.588 -23.692 -13.297  1.00  0.00     0.189 HD
BRANCH  49  51
HETATM   51  N2  UNL     1     -14.506 -23.332 -11.255  1.00  0.00    -0.342 N
ATOM     52  H22 UNL     1     -14.828 -23.701 -10.360  1.00  0.00     0.176 HD
ATOM     53  H21 UNL     1     -13.785 -22.612 -11.289  1.00  0.00     0.176 HD
ENDBRANCH  49  51
ENDBRANCH   2  47
TORSDOF 12
ENDMDL