MODEL 3
REMARK VINA RESULT: -7.885974580      1.540      2.801
REMARK  18 active torsions:
REMARK  status: ('A' for Active; 'I' for Inactive)
REMARK    1  A    between atoms: N2_5  and  N3_6
REMARK    2  A    between atoms: N4_10  and  O2_11
REMARK    3  A    between atoms: O2_11  and  C4_12
REMARK    4  A    between atoms: C6_14  and  O3_15
REMARK    5  A    between atoms: C7_17  and  O4_18
REMARK    6  A    between atoms: C8_20  and  N5_21
REMARK    7  A    between atoms: C9_23  and  C10_24
REMARK    8  A    between atoms: C13_27  and  O5_28
REMARK    9  A    between atoms: C16_32  and  C17_33
REMARK   10  A    between atoms: C17_33  and  O6_34
REMARK   11  A    between atoms: C17_33  and  N6_36
REMARK   12  A    between atoms: N6_36  and  N7_38
REMARK   13  A    between atoms: N8_42  and  O7_44
REMARK   14  A    between atoms: O7_44  and  C19_45
REMARK   15  A    between atoms: C19_45  and  C20_47
REMARK   16  A    between atoms: C20_47  and  O9_48
REMARK   17  A    between atoms: C20_47  and  C21_50
REMARK   18  A    between atoms: C21_50  and  O10_51
ROOT
HETATM    1  C4  UNL     1     -17.683 -26.457 -14.365  1.00  0.00     0.119 A
HETATM    2  C5  UNL     1     -18.521 -27.503 -14.670  1.00  0.00     0.080 A
HETATM    3  C6  UNL     1     -19.397 -28.050 -13.770  1.00  0.00     0.103 A
HETATM    4  C7  UNL     1     -19.460 -27.550 -12.500  1.00  0.00     0.127 A
HETATM    5  C8  UNL     1     -18.627 -26.484 -12.137  1.00  0.00     0.086 A
HETATM    6  C16 UNL     1     -17.762 -25.952 -13.048  1.00  0.00     0.082 A
ENDROOT
BRANCH   1   7
HETATM    7  O2  UNL     1     -16.802 -25.905 -15.262  1.00  0.00    -0.219 OA
BRANCH   7   8
HETATM    8  N4  UNL     1     -16.745 -26.202 -16.593  1.00  0.00    -0.060 N
HETATM    9  C3  UNL     1     -16.214 -27.474 -17.003  1.00  0.00     0.329 C
HETATM   10  N2  UNL     1     -15.544 -27.387 -18.272  1.00  0.00    -0.227 N
HETATM   11  C2  UNL     1     -16.010 -26.485 -19.254  1.00  0.00     0.358 C
HETATM   12  N1  UNL     1     -16.865 -25.401 -18.907  1.00  0.00    -0.132 N
HETATM   13  O1  UNL     1     -15.639 -26.679 -20.446  1.00  0.00    -0.244 OA
HETATM   14  C1  UNL     1     -17.306 -24.546 -19.988  1.00  0.00     0.180 C
HETATM   15  C18 UNL     1     -17.243 -25.244 -17.553  1.00  0.00     0.732 C
HETATM   16  N8  UNL     1     -17.983 -24.284 -17.165  1.00  0.00    -0.086 N
ATOM     17  H8  UNL     1     -18.189 -24.282 -16.167  1.00  0.00     0.214 HD
BRANCH  10  18
HETATM   18  N3  UNL     1     -14.406 -28.216 -18.542  1.00  0.00    -0.337 N
ATOM     19  H32 UNL     1     -14.021 -28.264 -19.485  1.00  0.00     0.177 HD
ATOM     20  H31 UNL     1     -13.979 -28.758 -17.790  1.00  0.00     0.177 HD
ENDBRANCH  10  18
BRANCH  16  21
HETATM   21  O7  UNL     1     -18.535 -23.277 -17.851  1.00  0.00    -0.182 OA
BRANCH  21  22
HETATM   22  C19 UNL     1     -18.427 -21.931 -17.553  1.00  0.00     0.312 C
HETATM   23  O8  UNL     1     -18.481 -21.116 -18.526  1.00  0.00    -0.260 OA
BRANCH  22  24
HETATM   24  C20 UNL     1     -18.257 -21.377 -16.205  1.00  0.00     0.243 C
BRANCH  24  25
HETATM   25  O9  UNL     1     -17.132 -21.847 -15.565  1.00  0.00    -0.383 OA
ATOM     26  H9  UNL     1     -17.325 -22.492 -14.895  1.00  0.00     0.210 HD
ENDBRANCH  24  25
BRANCH  24  27
HETATM   27  C21 UNL     1     -19.436 -21.574 -15.295  1.00  0.00     0.206 C
BRANCH  27  28
HETATM   28  O10 UNL     1     -19.885 -22.886 -15.254  1.00  0.00    -0.398 OA
ATOM     29  H10 UNL     1     -20.510 -23.047 -14.557  1.00  0.00     0.209 HD
ENDBRANCH  27  28
ENDBRANCH  24  27
ENDBRANCH  22  24
ENDBRANCH  21  22
ENDBRANCH  16  21
ENDBRANCH   7   8
ENDBRANCH   1   7
BRANCH   6  30
HETATM   30  C17 UNL     1     -16.863 -24.868 -12.731  1.00  0.00     0.170 C
BRANCH  30  31
HETATM   31  O6  UNL     1     -16.150 -25.031 -11.650  1.00  0.00    -0.344 OA
ATOM     32  H6  UNL     1     -15.249 -24.734 -11.707  1.00  0.00     0.219 HD
ENDBRANCH  30  31
BRANCH  30  33
HETATM   33  N6  UNL     1     -16.673 -23.673 -13.453  1.00  0.00    -0.286 N
ATOM     34  H6  UNL     1     -17.426 -22.992 -13.548  1.00  0.00     0.188 HD
BRANCH  33  35
HETATM   35  N7  UNL     1     -15.406 -23.445 -14.045  1.00  0.00    -0.343 N
ATOM     36  H72 UNL     1     -14.720 -22.858 -13.570  1.00  0.00     0.176 HD
ATOM     37  H71 UNL     1     -15.211 -23.881 -14.945  1.00  0.00     0.176 HD
ENDBRANCH  33  35
ENDBRANCH  30  33
ENDBRANCH   6  30
BRANCH   3  38
HETATM   38  O3  UNL     1     -20.220 -29.102 -14.120  1.00  0.00    -0.358 OA
ATOM     39  H3  UNL     1     -20.467 -29.766 -13.488  1.00  0.00     0.217 HD
ENDBRANCH   3  38
BRANCH   5  40
HETATM   40  N5  UNL     1     -18.746 -26.050 -10.799  1.00  0.00    -0.362 N
HETATM   41  C9  UNL     1     -18.314 -26.749  -9.806  1.00  0.00     0.100 C
ATOM     42  H5  UNL     1     -19.189 -25.151 -10.612  1.00  0.00     0.165 HD
BRANCH  41  43
HETATM   43  C10 UNL     1     -18.453 -26.264  -8.424  1.00  0.00    -0.021 A
HETATM   44  C11 UNL     1     -18.367 -27.195  -7.387  1.00  0.00     0.015 A
HETATM   45  C12 UNL     1     -18.495 -26.797  -6.088  1.00  0.00     0.037 A
HETATM   46  C13 UNL     1     -18.710 -25.476  -5.758  1.00  0.00     0.065 A
HETATM   47  C14 UNL     1     -18.793 -24.562  -6.784  1.00  0.00     0.037 A
HETATM   48  C15 UNL     1     -18.665 -24.961  -8.101  1.00  0.00     0.015 A
BRANCH  46  49
HETATM   49  O5  UNL     1     -18.841 -25.064  -4.454  1.00  0.00    -0.361 OA
ATOM     50  H5  UNL     1     -18.244 -24.439  -4.061  1.00  0.00     0.217 HD
ENDBRANCH  46  49
ENDBRANCH  41  43
ENDBRANCH   5  40
BRANCH   4  51
HETATM   51  O4  UNL     1     -20.349 -28.086 -11.542  1.00  0.00    -0.356 OA
ATOM     52  H4  UNL     1     -21.227 -28.359 -11.782  1.00  0.00     0.218 HD
ENDBRANCH   4  51
TORSDOF 18
ENDMDL