MODEL 4
REMARK VINA RESULT: -9.499330082      2.548      3.761
REMARK  16 active torsions:
REMARK  status: ('A' for Active; 'I' for Inactive)
REMARK    1  A    between atoms: O1_2  and  C2_3
REMARK    2  A    between atoms: C2_3  and  C3_5
REMARK    3  A    between atoms: C6_16  and  N4_17
REMARK    4  A    between atoms: N4_17  and  C7_19
REMARK    5  A    between atoms: C7_19  and  O4_20
REMARK    6  A    between atoms: C7_19  and  C8_22
REMARK    7  A    between atoms: C8_22  and  N5_23
REMARK    8  A    between atoms: C8_22  and  C18_41
REMARK    9  A    between atoms: N5_23  and  O5_25
REMARK   10  A    between atoms: O5_25  and  C9_26
REMARK   11  A    between atoms: C9_26  and  C11_28
REMARK   12  A    between atoms: C11_28  and  O6_29
REMARK   13  A    between atoms: C11_28  and  C12_31
REMARK   14  A    between atoms: C15_34  and  O7_35
REMARK   15  A    between atoms: C16_37  and  O8_38
REMARK   16  A    between atoms: C20_44  and  N6_45
ROOT
HETATM    1  C8  UNL     1     -18.171 -25.643 -10.397  1.00  0.00     0.132 C
ENDROOT
BRANCH   1   2
HETATM    2  C7  UNL     1     -17.222 -25.340 -11.429  1.00  0.00     0.169 C
BRANCH   2   3
HETATM    3  N4  UNL     1     -16.987 -24.218 -12.203  1.00  0.00    -0.339 N
ATOM      4  H4  UNL     1     -16.818 -23.329 -11.732  1.00  0.00     0.164 HD
BRANCH   3   5
HETATM    5  C6  UNL     1     -16.969 -24.246 -13.673  1.00  0.00     0.278 C
HETATM    6  C5  UNL     1     -18.092 -25.185 -14.086  1.00  0.00     0.292 C
HETATM    7  N3  UNL     1     -17.598 -26.005 -15.175  1.00  0.00    -0.196 N
HETATM    8  O3  UNL     1     -19.037 -24.293 -14.610  1.00  0.00    -0.299 OA
HETATM    9  C4  UNL     1     -17.367 -25.321 -16.404  1.00  0.00     0.674 C
ATOM     10  H3  UNL     1     -17.428 -27.004 -15.068  1.00  0.00     0.180 HD
HETATM   11  N1  UNL     1     -17.624 -23.909 -16.401  1.00  0.00    -0.160 N
HETATM   12  N2  UNL     1     -16.956 -25.904 -17.459  1.00  0.00    -0.235 N
HETATM   13  C3  UNL     1     -18.237 -23.320 -15.247  1.00  0.00     0.359 C
ATOM     14  H1  UNL     1     -17.375 -23.334 -17.206  1.00  0.00     0.184 HD
HETATM   15  O9  UNL     1     -17.303 -23.025 -14.232  1.00  0.00    -0.300 OA
ATOM     16  H22 UNL     1     -16.790 -25.415 -18.338  1.00  0.00     0.174 HD
ATOM     17  H21 UNL     1     -16.773 -26.907 -17.461  1.00  0.00     0.174 HD
BRANCH  13  18
HETATM   18  C2  UNL     1     -18.983 -22.098 -15.580  1.00  0.00     0.346 C
HETATM   19  O2  UNL     1     -19.950 -21.702 -14.842  1.00  0.00    -0.257 OA
BRANCH  18  20
HETATM   20  O1  UNL     1     -18.713 -21.299 -16.680  1.00  0.00    -0.321 OA
HETATM   21  C1  UNL     1     -19.515 -21.355 -17.865  1.00  0.00     0.213 C
ENDBRANCH  18  20
ENDBRANCH  13  18
ENDBRANCH   3   5
ENDBRANCH   2   3
BRANCH   2  22
HETATM   22  O4  UNL     1     -16.386 -26.321 -11.707  1.00  0.00    -0.344 OA
ATOM     23  H4  UNL     1     -16.820 -27.166 -11.731  1.00  0.00     0.219 HD
ENDBRANCH   2  22
ENDBRANCH   1   2
BRANCH   1  24
HETATM   24  N5  UNL     1     -17.836 -25.277  -9.213  1.00  0.00    -0.260 N
ATOM     25  H5  UNL     1     -16.866 -24.973  -9.134  1.00  0.00     0.194 HD
BRANCH  24  26
HETATM   26  O5  UNL     1     -18.513 -25.217  -8.073  1.00  0.00    -0.272 OA
BRANCH  26  27
HETATM   27  C9  UNL     1     -18.203 -25.965  -6.909  1.00  0.00     0.181 C
HETATM   28  C10 UNL     1     -18.822 -27.353  -6.938  1.00  0.00     0.045 C
BRANCH  27  29
HETATM   29  C11 UNL     1     -18.483 -25.240  -5.657  1.00  0.00     0.182 C
BRANCH  29  30
HETATM   30  O6  UNL     1     -18.428 -23.837  -5.855  1.00  0.00    -0.388 OA
ATOM     31  H6  UNL     1     -17.915 -23.415  -5.175  1.00  0.00     0.210 HD
ENDBRANCH  29  30
BRANCH  29  32
HETATM   32  C12 UNL     1     -17.642 -25.589  -4.487  1.00  0.00    -0.024 A
HETATM   33  C13 UNL     1     -17.801 -25.023  -3.265  1.00  0.00     0.013 A
HETATM   34  C14 UNL     1     -16.962 -25.397  -2.202  1.00  0.00     0.040 A
HETATM   35  C15 UNL     1     -15.966 -26.332  -2.352  1.00  0.00     0.098 A
HETATM   36  C16 UNL     1     -15.824 -26.895  -3.603  1.00  0.00     0.099 A
HETATM   37  C17 UNL     1     -16.630 -26.546  -4.654  1.00  0.00     0.049 A
BRANCH  35  38
HETATM   38  O7  UNL     1     -15.164 -26.667  -1.268  1.00  0.00    -0.358 OA
ATOM     39  H7  UNL     1     -14.503 -27.343  -1.361  1.00  0.00     0.217 HD
ENDBRANCH  35  38
BRANCH  36  40
HETATM   40  O8  UNL     1     -14.805 -27.847  -3.739  1.00  0.00    -0.358 OA
ATOM     41  H8  UNL     1     -14.537 -28.050  -4.628  1.00  0.00     0.217 HD
ENDBRANCH  36  40
ENDBRANCH  29  32
ENDBRANCH  27  29
ENDBRANCH  26  27
ENDBRANCH  24  26
ENDBRANCH   1  24
BRANCH   1  42
HETATM   42  C18 UNL     1     -19.437 -26.408 -10.623  1.00  0.00     0.074 A
HETATM   43  C19 UNL     1     -20.520 -26.266  -9.797  1.00  0.00     0.085 A
HETATM   44  S1  UNL     1     -21.707 -27.236 -10.563  1.00  0.00    -0.064 SA
HETATM   45  C20 UNL     1     -20.776 -27.768 -11.876  1.00  0.00     0.142 A
HETATM   46  N7  UNL     1     -19.599 -27.184 -11.678  1.00  0.00    -0.335 N
ATOM     47  H7  UNL     1     -18.831 -27.333 -12.333  1.00  0.00     0.168 HD
BRANCH  45  48
HETATM   48  N6  UNL     1     -21.106 -28.572 -12.877  1.00  0.00    -0.380 N
ATOM     49  H62 UNL     1     -21.990 -29.065 -12.999  1.00  0.00     0.158 HD
ATOM     50  H61 UNL     1     -20.564 -28.849 -13.695  1.00  0.00     0.158 HD
ENDBRANCH  45  48
ENDBRANCH   1  42
TORSDOF 16
ENDMDL