MODEL 1
REMARK VINA RESULT: -7.384040631      0.000      0.000
REMARK  14 active torsions:
REMARK  status: ('A' for Active; 'I' for Inactive)
REMARK    1  A    between atoms: N1_1  and  C1_5
REMARK    2  A    between atoms: C3_7  and  N2_8
REMARK    3  A    between atoms: C4_12  and  O1_13
REMARK    4  A    between atoms: O1_13  and  C5_14
REMARK    5  A    between atoms: C6_16  and  O3_17
REMARK    6  A    between atoms: O3_17  and  C7_18
REMARK    7  A    between atoms: C9_20  and  O4_21
REMARK    8  A    between atoms: C9_20  and  C15_28
REMARK    9  A    between atoms: O4_21  and  C10_22
REMARK   10  A    between atoms: C16_34  and  C17_35
REMARK   11  A    between atoms: C17_35  and  O8_36
REMARK   12  A    between atoms: C18_39  and  N4_40
REMARK   13  A    between atoms: C20_45  and  N5_46
REMARK   14  A    between atoms: C22_51  and  O10_52
ROOT
HETATM    1  C5  UNL     1     -14.391 -29.941 -14.130  1.00  0.00     0.293 C
HETATM    2  O2  UNL     1     -14.551 -28.600 -14.025  1.00  0.00    -0.327 OA
HETATM    3  C6  UNL     1     -14.755 -27.857 -15.107  1.00  0.00     0.296 C
HETATM    4  C18 UNL     1     -15.642 -28.538 -16.192  1.00  0.00     0.240 C
HETATM    5  C19 UNL     1     -15.558 -30.011 -16.211  1.00  0.00     0.075 C
HETATM    6  C20 UNL     1     -15.692 -30.498 -14.779  1.00  0.00     0.240 C
ENDROOT
BRANCH   3   7
HETATM    7  O3  UNL     1     -15.488 -26.713 -14.789  1.00  0.00    -0.329 OA
BRANCH   7   8
HETATM    8  C7  UNL     1     -16.006 -26.677 -13.536  1.00  0.00     0.271 C
HETATM    9  C8  UNL     1     -17.421 -27.107 -13.335  1.00  0.00     0.142 C
HETATM   10  C9  UNL     1     -18.246 -26.033 -12.597  1.00  0.00     0.324 C
HETATM   11  N3  UNL     1     -18.283 -24.899 -13.467  1.00  0.00    -0.004 N
HETATM   12  C16 UNL     1     -17.033 -24.796 -14.168  1.00  0.00     0.351 C
ATOM     13  H32 UNL     1     -19.081 -24.925 -14.101  1.00  0.00     0.284 HD
ATOM     14  H31 UNL     1     -18.520 -24.040 -12.970  1.00  0.00     0.284 HD
HETATM   15  O9  UNL     1     -16.014 -25.233 -13.293  1.00  0.00    -0.326 OA
BRANCH  10  16
HETATM   16  O4  UNL     1     -19.507 -26.476 -12.365  1.00  0.00    -0.315 OA
BRANCH  16  17
HETATM   17  C10 UNL     1     -19.684 -27.660 -11.732  1.00  0.00     0.263 C
HETATM   18  C11 UNL     1     -20.792 -28.474 -12.328  1.00  0.00     0.061 C
HETATM   19  C12 UNL     1     -21.936 -27.562 -12.627  1.00  0.00     0.007 C
HETATM   20  C13 UNL     1     -22.006 -26.519 -11.542  1.00  0.00     0.026 C
HETATM   21  C14 UNL     1     -21.330 -26.913 -10.269  1.00  0.00     0.171 C
HETATM   22  O5  UNL     1     -20.020 -27.333 -10.395  1.00  0.00    -0.361 OA
ENDBRANCH  16  17
ENDBRANCH  10  16
BRANCH  10  23
HETATM   23  C15 UNL     1     -17.532 -25.691 -11.336  1.00  0.00     0.239 C
HETATM   24  O6  UNL     1     -17.299 -24.647 -10.790  1.00  0.00    -0.644 OA
HETATM   25  O7  UNL     1     -17.020 -26.858 -10.669  1.00  0.00    -0.644 OA
ENDBRANCH  10  23
BRANCH  12  26
HETATM   26  C17 UNL     1     -16.846 -23.344 -14.571  1.00  0.00     0.225 C
BRANCH  26  27
HETATM   27  O8  UNL     1     -15.515 -23.012 -14.337  1.00  0.00    -0.397 OA
ATOM     28  H8  UNL     1     -15.481 -22.082 -14.147  1.00  0.00     0.209 HD
ENDBRANCH  26  27
ENDBRANCH  12  26
ENDBRANCH   7   8
ENDBRANCH   3   7
BRANCH   4  29
HETATM   29  N4  UNL     1     -15.199 -28.068 -17.511  1.00  0.00    -0.070 N
ATOM     30  H43 UNL     1     -15.366 -27.071 -17.649  1.00  0.00     0.274 HD
ATOM     31  H42 UNL     1     -14.183 -28.052 -17.602  1.00  0.00     0.274 HD
ATOM     32  H41 UNL     1     -15.648 -28.644 -18.223  1.00  0.00     0.274 HD
ENDBRANCH   4  29
BRANCH   1  33
HETATM   33  O1  UNL     1     -14.252 -30.513 -12.868  1.00  0.00    -0.352 OA
BRANCH  33  34
HETATM   34  C4  UNL     1     -12.991 -31.036 -12.644  1.00  0.00     0.157 C
HETATM   35  C3  UNL     1     -12.393 -30.404 -11.394  1.00  0.00     0.214 C
HETATM   36  C2  UNL     1     -11.114 -31.111 -11.004  1.00  0.00     0.070 C
HETATM   37  C1  UNL     1     -11.220 -32.606 -11.016  1.00  0.00     0.214 C
HETATM   38  C22 UNL     1     -12.639 -33.064 -11.225  1.00  0.00     0.151 C
HETATM   39  C21 UNL     1     -13.084 -32.521 -12.570  1.00  0.00     0.068 C
BRANCH  35  40
HETATM   40  N2  UNL     1     -12.016 -29.051 -11.750  1.00  0.00    -0.072 N
ATOM     41  H23 UNL     1     -12.778 -28.379 -11.655  1.00  0.00     0.274 HD
ATOM     42  H22 UNL     1     -11.383 -28.616 -11.077  1.00  0.00     0.274 HD
ATOM     43  H21 UNL     1     -11.633 -29.100 -12.694  1.00  0.00     0.274 HD
ENDBRANCH  35  40
BRANCH  37  44
HETATM   44  N1  UNL     1     -10.451 -33.097 -12.158  1.00  0.00    -0.072 N
ATOM     45  H13 UNL     1     -11.021 -33.616 -12.826  1.00  0.00     0.274 HD
ATOM     46  H12 UNL     1     -10.154 -32.351 -12.786  1.00  0.00     0.274 HD
ATOM     47  H11 UNL     1      -9.669 -33.643 -11.794  1.00  0.00     0.274 HD
ENDBRANCH  37  44
BRANCH  38  48
HETATM   48  O10 UNL     1     -13.482 -32.746 -10.189  1.00  0.00    -0.393 OA
ATOM     49  H10 UNL     1     -13.970 -31.942 -10.325  1.00  0.00     0.210 HD
ENDBRANCH  38  48
ENDBRANCH  33  34
ENDBRANCH   1  33
BRANCH   6  50
HETATM   50  N5  UNL     1     -15.698 -31.933 -14.801  1.00  0.00    -0.070 N
ATOM     51  H53 UNL     1     -16.294 -32.292 -15.548  1.00  0.00     0.274 HD
ATOM     52  H52 UNL     1     -14.803 -32.305 -15.120  1.00  0.00     0.274 HD
ATOM     53  H51 UNL     1     -15.963 -32.322 -13.896  1.00  0.00     0.274 HD
ENDBRANCH   6  50
TORSDOF 14
ENDMDL