MODEL 5
REMARK VINA RESULT: -9.668312384      1.044      1.895
REMARK  12 active torsions:
REMARK  status: ('A' for Active; 'I' for Inactive)
REMARK    1  A    between atoms: O1_2  and  C2_3
REMARK    2  A    between atoms: C3_4  and  O2_5
REMARK    3  A    between atoms: O2_5  and  C4_6
REMARK    4  A    between atoms: C4_6  and  C5_7
REMARK    5  A    between atoms: C4_6  and  C7_15
REMARK    6  A    between atoms: C5_7  and  N1_8
REMARK       I    between atoms: C7_15  and  N5_17
REMARK    7  A    between atoms: N5_17  and  N6_19
REMARK       I    between atoms: N6_19  and  C8_21
REMARK       I    between atoms: C8_21  and  N7_23
REMARK    8  A    between atoms: N7_23  and  N8_25
REMARK       I    between atoms: N8_25  and  C9_27
REMARK    9  A    between atoms: C9_27  and  C10_29
REMARK   10  A    between atoms: C13_32  and  O6_33
REMARK   11  A    between atoms: C18_39  and  C19_40
REMARK   12  A    between atoms: C22_47  and  O7_48
ROOT
HETATM    1  C4  UNL     1     -17.309 -25.710 -13.575  1.00  0.00     0.242 C
ENDROOT
BRANCH   1   2
HETATM    2  O2  UNL     1     -16.962 -27.003 -13.758  1.00  0.00    -0.332 OA
BRANCH   2   3
HETATM    3  C3  UNL     1     -15.864 -27.734 -14.031  1.00  0.00     0.106 A
HETATM    4  C2  UNL     1     -15.757 -28.757 -14.906  1.00  0.00     0.136 A
HETATM    5  C22 UNL     1     -14.572 -29.476 -15.132  1.00  0.00     0.116 A
HETATM    6  C18 UNL     1     -13.449 -29.138 -14.437  1.00  0.00     0.043 A
HETATM    7  C17 UNL     1     -13.549 -28.075 -13.527  1.00  0.00     0.021 A
HETATM    8  C16 UNL     1     -14.701 -27.386 -13.316  1.00  0.00     0.041 A
BRANCH   4   9
HETATM    9  O1  UNL     1     -16.833 -29.198 -15.690  1.00  0.00    -0.351 OA
HETATM   10  C1  UNL     1     -17.744 -30.050 -14.969  1.00  0.00     0.210 C
ENDBRANCH   4   9
BRANCH   5  11
HETATM   11  O7  UNL     1     -14.531 -30.512 -16.038  1.00  0.00    -0.357 OA
ATOM     12  H7  UNL     1     -13.713 -30.779 -16.440  1.00  0.00     0.217 HD
ENDBRANCH   5  11
BRANCH   6  13
HETATM   13  C19 UNL     1     -12.196 -29.823 -14.615  1.00  0.00     0.110 C
HETATM   14  N9  UNL     1     -12.003 -31.030 -14.167  1.00  0.00    -0.374 N
HETATM   15  C20 UNL     1     -10.677 -31.519 -14.455  1.00  0.00     0.141 C
ATOM     16  H9  UNL     1     -12.710 -31.570 -13.667  1.00  0.00     0.161 HD
HETATM   17  C21 UNL     1     -10.256 -30.616 -15.592  1.00  0.00     0.141 C
HETATM   18  N10 UNL     1     -11.022 -29.420 -15.256  1.00  0.00    -0.374 N
ATOM     19  H10 UNL     1     -10.747 -28.458 -15.455  1.00  0.00     0.161 HD
ENDBRANCH   6  13
ENDBRANCH   2   3
ENDBRANCH   1   2
BRANCH   1  20
HETATM   20  C5  UNL     1     -18.538 -25.418 -14.451  1.00  0.00     0.190 C
BRANCH  20  21
HETATM   21  N1  UNL     1     -18.589 -24.038 -14.861  1.00  0.00    -0.266 N
HETATM   22  C6  UNL     1     -17.543 -23.208 -14.972  1.00  0.00     0.216 A
HETATM   23  N2  UNL     1     -18.020 -22.025 -15.376  1.00  0.00    -0.282 N
HETATM   24  N3  UNL     1     -19.329 -22.115 -15.512  1.00  0.00    -0.225 N
ATOM     25  H2  UNL     1     -17.462 -21.189 -15.551  1.00  0.00     0.189 HD
HETATM   26  N4  UNL     1     -19.678 -23.352 -15.196  1.00  0.00    -0.003 NA
ATOM     27  H3  UNL     1     -19.957 -21.368 -15.807  1.00  0.00     0.205 HD
ENDBRANCH  20  21
ENDBRANCH   1  20
BRANCH   1  28
HETATM   28  C7  UNL     1     -17.744 -25.497 -12.155  1.00  0.00     0.267 C
HETATM   29  O3  UNL     1     -17.247 -24.555 -11.487  1.00  0.00    -0.269 OA
HETATM   30  N5  UNL     1     -18.702 -26.334 -11.557  1.00  0.00    -0.264 N
ATOM     31  H5  UNL     1     -19.097 -27.096 -12.107  1.00  0.00     0.190 HD
BRANCH  30  32
HETATM   32  N6  UNL     1     -19.130 -26.165 -10.252  1.00  0.00    -0.248 N
HETATM   33  C8  UNL     1     -18.410 -26.576  -9.107  1.00  0.00     0.353 C
HETATM   34  O4  UNL     1     -17.297 -27.136  -9.231  1.00  0.00    -0.244 OA
HETATM   35  N7  UNL     1     -18.947 -26.354  -7.827  1.00  0.00    -0.247 N
ATOM     36  H7  UNL     1     -19.854 -25.895  -7.750  1.00  0.00     0.192 HD
ATOM     37  H6  UNL     1     -20.032 -25.711 -10.106  1.00  0.00     0.192 HD
BRANCH  35  38
HETATM   38  N8  UNL     1     -18.283 -26.739  -6.647  1.00  0.00    -0.262 N
HETATM   39  C9  UNL     1     -17.798 -25.711  -5.820  1.00  0.00     0.270 C
HETATM   40  O5  UNL     1     -17.946 -24.478  -6.107  1.00  0.00    -0.266 OA
ATOM     41  H8  UNL     1     -18.158 -27.721  -6.403  1.00  0.00     0.190 HD
BRANCH  39  42
HETATM   42  C10 UNL     1     -17.103 -26.047  -4.584  1.00  0.00     0.033 A
HETATM   43  C11 UNL     1     -17.413 -25.376  -3.406  1.00  0.00     0.020 A
HETATM   44  C12 UNL     1     -16.782 -25.656  -2.224  1.00  0.00     0.037 A
HETATM   45  C13 UNL     1     -15.806 -26.624  -2.159  1.00  0.00     0.065 A
HETATM   46  C14 UNL     1     -15.483 -27.299  -3.313  1.00  0.00     0.037 A
HETATM   47  C15 UNL     1     -16.129 -27.007  -4.502  1.00  0.00     0.020 A
BRANCH  45  48
HETATM   48  O6  UNL     1     -15.160 -26.910  -0.947  1.00  0.00    -0.361 OA
ATOM     49  H6  UNL     1     -14.310 -26.534  -0.750  1.00  0.00     0.217 HD
ENDBRANCH  45  48
ENDBRANCH  39  42
ENDBRANCH  35  38
ENDBRANCH  30  32
ENDBRANCH   1  28
TORSDOF 12
ENDMDL