MODEL 3
REMARK VINA RESULT: -8.400176825      2.121      6.222
REMARK  16 active torsions:
REMARK  status: ('A' for Active; 'I' for Inactive)
REMARK    1  A    between atoms: C2_2  and  O1_3
REMARK    2  A    between atoms: C2_2  and  C3_5
REMARK       I    between atoms: C3_5  and  N1_7
REMARK    3  A    between atoms: N1_7  and  C4_9
REMARK    4  A    between atoms: C4_9  and  C5_10
REMARK    5  A    between atoms: C4_9  and  C16_29
REMARK       I    between atoms: C5_10  and  N2_12
REMARK    6  A    between atoms: N2_12  and  O4_14
REMARK    7  A    between atoms: O4_14  and  C6_15
REMARK    8  A    between atoms: C6_15  and  C7_17
REMARK       I    between atoms: N3_21  and  C11_22
REMARK    9  A    between atoms: C11_22  and  O7_24
REMARK   10  A    between atoms: O7_24  and  C12_25
REMARK   11  A    between atoms: C16_29  and  C17_31
REMARK   12  A    between atoms: C17_31  and  O9_32
REMARK   13  A    between atoms: C17_31  and  C18_34
REMARK   14  A    between atoms: C19_36  and  O11_37
REMARK   15  A    between atoms: C20_39  and  O12_40
REMARK   16  A    between atoms: C21_42  and  O13_43
ROOT
HETATM    1  C4  UNL     1     -18.763 -26.685  -9.810  1.00  0.00     0.252 C
ENDROOT
BRANCH   1   2
HETATM    2  N1  UNL     1     -19.030 -25.784  -8.693  1.00  0.00    -0.339 N
HETATM    3  C3  UNL     1     -18.770 -26.159  -7.357  1.00  0.00     0.247 C
HETATM    4  O2  UNL     1     -18.298 -27.300  -7.134  1.00  0.00    -0.271 OA
ATOM      5  H1  UNL     1     -19.415 -24.859  -8.883  1.00  0.00     0.163 HD
BRANCH   3   6
HETATM    6  C2  UNL     1     -19.033 -25.265  -6.215  1.00  0.00     0.206 C
HETATM    7  C1  UNL     1     -17.794 -24.727  -5.586  1.00  0.00     0.049 C
BRANCH   6   8
HETATM    8  O1  UNL     1     -19.824 -24.198  -6.657  1.00  0.00    -0.387 OA
ATOM      9  H1  UNL     1     -20.183 -24.410  -7.511  1.00  0.00     0.210 HD
ENDBRANCH   6   8
ENDBRANCH   3   6
ENDBRANCH   1   2
BRANCH   1  10
HETATM   10  C5  UNL     1     -17.697 -26.104 -10.642  1.00  0.00     0.272 C
HETATM   11  O3  UNL     1     -17.293 -24.912 -10.383  1.00  0.00    -0.269 OA
HETATM   12  N2  UNL     1     -17.081 -26.768 -11.720  1.00  0.00    -0.224 N
ATOM     13  H2  UNL     1     -17.377 -27.717 -11.948  1.00  0.00     0.198 HD
BRANCH  12  14
HETATM   14  O4  UNL     1     -16.100 -26.184 -12.471  1.00  0.00    -0.195 OA
BRANCH  14  15
HETATM   15  C6  UNL     1     -15.004 -26.828 -12.996  1.00  0.00     0.304 C
HETATM   16  O5  UNL     1     -14.291 -27.526 -12.231  1.00  0.00    -0.261 OA
BRANCH  15  17
HETATM   17  C7  UNL     1     -14.645 -26.717 -14.444  1.00  0.00     0.191 C
HETATM   18  C8  UNL     1     -14.622 -28.115 -15.045  1.00  0.00     0.037 C
HETATM   19  C9  UNL     1     -15.949 -28.284 -15.740  1.00  0.00     0.022 C
HETATM   20  C10 UNL     1     -16.715 -26.989 -15.443  1.00  0.00     0.129 C
HETATM   21  N3  UNL     1     -15.682 -26.022 -15.164  1.00  0.00    -0.314 N
HETATM   22  C11 UNL     1     -15.673 -24.657 -15.521  1.00  0.00     0.364 C
HETATM   23  O6  UNL     1     -14.737 -23.870 -15.247  1.00  0.00    -0.238 OA
BRANCH  22  24
HETATM   24  O7  UNL     1     -16.748 -24.110 -16.223  1.00  0.00    -0.294 OA
BRANCH  24  25
HETATM   25  C12 UNL     1     -17.808 -23.440 -15.590  1.00  0.00     0.061 C
HETATM   26  C13 UNL     1     -17.681 -23.388 -14.099  1.00  0.00     0.046 C
HETATM   27  C14 UNL     1     -17.971 -22.019 -16.094  1.00  0.00     0.046 C
HETATM   28  C15 UNL     1     -19.078 -24.201 -15.927  1.00  0.00     0.046 C
ENDBRANCH  24  25
ENDBRANCH  22  24
ENDBRANCH  15  17
ENDBRANCH  14  15
ENDBRANCH  12  14
ENDBRANCH   1  10
BRANCH   1  29
HETATM   29  C16 UNL     1     -19.988 -26.755 -10.675  1.00  0.00     0.193 C
HETATM   30  O8  UNL     1     -19.856 -26.397 -11.831  1.00  0.00    -0.292 OA
BRANCH  29  31
HETATM   31  C17 UNL     1     -21.279 -27.237 -10.130  1.00  0.00     0.250 C
BRANCH  31  32
HETATM   32  O9  UNL     1     -22.185 -26.207  -9.923  1.00  0.00    -0.381 OA
ATOM     33  H9  UNL     1     -22.569 -26.231  -9.055  1.00  0.00     0.211 HD
ENDBRANCH  31  32
BRANCH  31  34
HETATM   34  C18 UNL     1     -21.914 -28.224 -11.035  1.00  0.00     0.128 A
HETATM   35  O10 UNL     1     -21.470 -28.500 -12.259  1.00  0.00    -0.284 OA
HETATM   36  C19 UNL     1     -22.244 -29.419 -12.816  1.00  0.00     0.220 A
HETATM   37  C20 UNL     1     -23.245 -29.775 -11.937  1.00  0.00     0.160 A
HETATM   38  C21 UNL     1     -23.025 -29.012 -10.815  1.00  0.00     0.137 A
BRANCH  36  39
HETATM   39  O11 UNL     1     -22.121 -29.983 -14.091  1.00  0.00    -0.339 OA
ATOM     40  H11 UNL     1     -22.703 -29.872 -14.833  1.00  0.00     0.220 HD
ENDBRANCH  36  39
BRANCH  37  41
HETATM   41  O12 UNL     1     -24.259 -30.703 -12.137  1.00  0.00    -0.354 OA
ATOM     42  H12 UNL     1     -25.136 -30.692 -11.773  1.00  0.00     0.218 HD
ENDBRANCH  37  41
BRANCH  38  43
HETATM   43  O13 UNL     1     -23.770 -29.009  -9.645  1.00  0.00    -0.356 OA
ATOM     44  H13 UNL     1     -24.629 -29.403  -9.553  1.00  0.00     0.218 HD
ENDBRANCH  38  43
ENDBRANCH  31  34
ENDBRANCH  29  31
ENDBRANCH   1  29
TORSDOF 16
ENDMDL