MODEL 1
REMARK VINA RESULT: -8.458337271      0.000      0.000
REMARK  16 active torsions:
REMARK  status: ('A' for Active; 'I' for Inactive)
REMARK    1  A    between atoms: C2_2  and  O2_7
REMARK    2  A    between atoms: N1_3  and  O1_5
REMARK    3  A    between atoms: O2_7  and  C3_8
REMARK    4  A    between atoms: C3_8  and  C5_10
REMARK    5  A    between atoms: C6_12  and  C7_13
REMARK    6  A    between atoms: C10_16  and  O4_17
REMARK    7  A    between atoms: C10_16  and  C11_19
REMARK    8  A    between atoms: C14_25  and  C15_26
REMARK    9  A    between atoms: C16_27  and  C17_28
REMARK   10  A    between atoms: C17_28  and  O8_29
REMARK   11  A    between atoms: C17_28  and  C18_31
REMARK   12  A    between atoms: C18_31  and  O9_33
REMARK   13  A    between atoms: C18_31  and  C20_35
REMARK   14  A    between atoms: C20_35  and  O10_36
REMARK   15  A    between atoms: C22_40  and  O12_41
REMARK   16  A    between atoms: C23_44  and  O14_45
ROOT
HETATM    1  C7  UNL     1     -17.563 -26.035 -13.008  1.00  0.00     0.060 C
HETATM    2  C8  UNL     1     -16.256 -26.786 -12.843  1.00  0.00     0.014 C
HETATM    3  C9  UNL     1     -15.134 -25.826 -13.005  1.00  0.00     0.053 C
HETATM    4  C10 UNL     1     -15.686 -24.836 -13.995  1.00  0.00     0.179 C
HETATM    5  C12 UNL     1     -17.205 -24.919 -13.863  1.00  0.00     0.129 C
HETATM    6  C13 UNL     1     -17.828 -25.079 -15.266  1.00  0.00     0.211 C
HETATM    7  O7  UNL     1     -19.148 -24.615 -15.267  1.00  0.00    -0.377 OA
HETATM    8  C14 UNL     1     -19.097 -23.226 -15.309  1.00  0.00     0.168 C
HETATM    9  C21 UNL     1     -17.855 -22.805 -14.565  1.00  0.00     0.205 C
HETATM   10  O11 UNL     1     -17.630 -23.659 -13.488  1.00  0.00    -0.371 OA
ENDROOT
BRANCH   1  11
HETATM   11  C6  UNL     1     -18.291 -25.841 -11.737  1.00  0.00     0.184 C
HETATM   12  O3  UNL     1     -19.248 -26.853 -11.706  1.00  0.00    -0.368 OA
HETATM   13  C5  UNL     1     -19.893 -27.045 -10.532  1.00  0.00     0.206 C
HETATM   14  C23 UNL     1     -19.622 -26.110  -9.421  1.00  0.00     0.291 C
HETATM   15  O13 UNL     1     -18.497 -25.351  -9.490  1.00  0.00    -0.327 OA
HETATM   16  C22 UNL     1     -17.575 -25.828 -10.464  1.00  0.00     0.289 C
BRANCH  13  17
HETATM   17  C3  UNL     1     -21.393 -27.170 -10.799  1.00  0.00     0.160 C
HETATM   18  C4  UNL     1     -22.129 -26.026 -10.165  1.00  0.00     0.043 C
BRANCH  17  19
HETATM   19  O2  UNL     1     -21.699 -27.378 -12.145  1.00  0.00    -0.330 OA
BRANCH  19  20
HETATM   20  C2  UNL     1     -21.765 -28.614 -12.771  1.00  0.00     0.133 C
HETATM   21  C1  UNL     1     -22.966 -29.490 -12.585  1.00  0.00     0.099 C
HETATM   22  N1  UNL     1     -20.778 -28.969 -13.500  1.00  0.00    -0.251 N
ATOM     23  H1  UNL     1     -19.972 -28.355 -13.609  1.00  0.00     0.196 HD
BRANCH  22  24
HETATM   24  O1  UNL     1     -20.811 -30.193 -14.138  1.00  0.00    -0.288 OA
ATOM     25  H1  UNL     1     -20.340 -30.929 -13.764  1.00  0.00     0.244 HD
ENDBRANCH  22  24
ENDBRANCH  19  20
ENDBRANCH  17  19
ENDBRANCH  13  17
BRANCH  14  26
HETATM   26  O14 UNL     1     -19.599 -26.763  -8.165  1.00  0.00    -0.368 OA
ATOM     27  H14 UNL     1     -18.716 -26.972  -7.884  1.00  0.00     0.212 HD
ENDBRANCH  14  26
BRANCH  16  28
HETATM   28  O12 UNL     1     -17.161 -27.061  -9.984  1.00  0.00    -0.368 OA
ATOM     29  H12 UNL     1     -16.854 -27.079  -9.084  1.00  0.00     0.212 HD
ENDBRANCH  16  28
ENDBRANCH   1  11
BRANCH   4  30
HETATM   30  O4  UNL     1     -15.211 -23.547 -13.721  1.00  0.00    -0.376 OA
ATOM     31  H4  UNL     1     -15.550 -22.925 -14.353  1.00  0.00     0.211 HD
ENDBRANCH   4  30
BRANCH   4  32
HETATM   32  C11 UNL     1     -15.191 -25.206 -15.324  1.00  0.00     0.212 C
HETATM   33  O5  UNL     1     -14.753 -24.368 -16.160  1.00  0.00    -0.646 OA
HETATM   34  O6  UNL     1     -15.187 -26.533 -15.717  1.00  0.00    -0.646 OA
ENDBRANCH   4  32
BRANCH   8  35
HETATM   35  C15 UNL     1     -19.020 -22.694 -16.702  1.00  0.00     0.005 C
HETATM   36  C16 UNL     1     -19.926 -22.987 -17.618  1.00  0.00     0.006 C
BRANCH  36  37
HETATM   37  C17 UNL     1     -19.795 -22.431 -18.981  1.00  0.00     0.176 C
BRANCH  37  38
HETATM   38  O8  UNL     1     -19.229 -21.158 -18.860  1.00  0.00    -0.389 OA
ATOM     39  H8  UNL     1     -19.666 -20.592 -19.484  1.00  0.00     0.210 HD
ENDBRANCH  37  38
BRANCH  37  40
HETATM   40  C18 UNL     1     -21.135 -22.368 -19.685  1.00  0.00     0.104 C
HETATM   41  C19 UNL     1     -20.919 -22.255 -21.159  1.00  0.00     0.051 C
BRANCH  40  42
HETATM   42  O9  UNL     1     -21.882 -21.350 -19.138  1.00  0.00    -0.385 OA
ATOM     43  H9  UNL     1     -21.436 -20.525 -19.284  1.00  0.00     0.210 HD
ENDBRANCH  40  42
BRANCH  40  44
HETATM   44  C20 UNL     1     -21.824 -23.693 -19.421  1.00  0.00     0.204 C
BRANCH  44  45
HETATM   45  O10 UNL     1     -23.174 -23.465 -19.171  1.00  0.00    -0.398 OA
ATOM     46  H10 UNL     1     -23.413 -23.879 -18.350  1.00  0.00     0.209 HD
ENDBRANCH  44  45
ENDBRANCH  40  44
ENDBRANCH  37  40
ENDBRANCH  36  37
ENDBRANCH   8  35
TORSDOF 16
ENDMDL