MODEL 1
REMARK VINA RESULT: -8.575309879      0.000      0.000
REMARK  18 active torsions:
REMARK  status: ('A' for Active; 'I' for Inactive)
REMARK    1  A    between atoms: O1_2  and  C2_3
REMARK    2  A    between atoms: C2_3  and  C3_5
REMARK    3  A    between atoms: C3_5  and  O3_6
REMARK    4  A    between atoms: C3_5  and  C8_14
REMARK    5  A    between atoms: O3_6  and  C4_7
REMARK    6  A    between atoms: C10_16  and  O5_17
REMARK    7  A    between atoms: C10_16  and  N2_19
REMARK    8  A    between atoms: N2_19  and  C11_21
REMARK    9  A    between atoms: C14_24  and  C15_25
REMARK   10  A    between atoms: C15_25  and  C16_26
REMARK   11  A    between atoms: C15_25  and  C17_31
REMARK   12  A    between atoms: C16_26  and  O6_27
REMARK   13  A    between atoms: C16_26  and  O7_29
REMARK   14  A    between atoms: C17_31  and  O8_32
REMARK   15  A    between atoms: C17_31  and  O9_34
REMARK   16  A    between atoms: C17_31  and  O10_36
REMARK   17  A    between atoms: O10_36  and  C18_37
REMARK   18  A    between atoms: N3_39  and  N4_41
ROOT
HETATM    1  C11 UNL     1     -18.249 -26.046  -9.908  1.00  0.00     0.030 A
HETATM    2  C12 UNL     1     -18.069 -27.178  -9.102  1.00  0.00     0.030 A
HETATM    3  C13 UNL     1     -18.187 -27.065  -7.739  1.00  0.00     0.010 A
HETATM    4  C14 UNL     1     -18.476 -25.876  -7.101  1.00  0.00    -0.041 A
HETATM    5  C20 UNL     1     -18.648 -24.767  -7.939  1.00  0.00     0.010 A
HETATM    6  C21 UNL     1     -18.537 -24.847  -9.315  1.00  0.00     0.030 A
ENDROOT
BRANCH   1   7
HETATM    7  N2  UNL     1     -18.135 -26.184 -11.305  1.00  0.00    -0.358 N
ATOM      8  H2  UNL     1     -18.898 -26.638 -11.806  1.00  0.00     0.162 HD
BRANCH   7   9
HETATM    9  C10 UNL     1     -17.020 -25.729 -12.057  1.00  0.00     0.141 C
HETATM   10  C9  UNL     1     -17.442 -24.910 -13.260  1.00  0.00     0.080 C
HETATM   11  C8  UNL     1     -17.912 -25.837 -14.335  1.00  0.00     0.091 C
HETATM   12  S1  UNL     1     -16.520 -27.040 -14.294  1.00  0.00    -0.156 SA
HETATM   13  C22 UNL     1     -16.066 -26.773 -12.529  1.00  0.00     0.135 C
BRANCH  11  14
HETATM   14  C3  UNL     1     -17.957 -25.117 -15.653  1.00  0.00     0.243 C
BRANCH  14  15
HETATM   15  C2  UNL     1     -16.610 -24.842 -16.199  1.00  0.00     0.289 C
HETATM   16  O2  UNL     1     -16.165 -25.412 -17.253  1.00  0.00    -0.262 OA
BRANCH  15  17
HETATM   17  O1  UNL     1     -15.728 -23.943 -15.604  1.00  0.00    -0.324 OA
HETATM   18  C1  UNL     1     -14.425 -24.335 -15.214  1.00  0.00     0.213 C
ENDBRANCH  15  17
ENDBRANCH  14  15
BRANCH  14  19
HETATM   19  O3  UNL     1     -18.612 -23.882 -15.433  1.00  0.00    -0.321 OA
BRANCH  19  20
HETATM   20  C4  UNL     1     -18.960 -23.124 -16.530  1.00  0.00     0.138 C
HETATM   21  N1  UNL     1     -19.766 -23.616 -17.389  1.00  0.00    -0.370 N
HETATM   22  C5  UNL     1     -20.184 -22.876 -18.581  1.00  0.00     0.147 C
ATOM     23  H1  UNL     1     -20.130 -24.557 -17.240  1.00  0.00     0.161 HD
HETATM   24  C6  UNL     1     -19.719 -21.448 -18.552  1.00  0.00     0.187 C
HETATM   25  O4  UNL     1     -19.472 -20.983 -17.262  1.00  0.00    -0.382 OA
HETATM   26  C7  UNL     1     -18.423 -21.743 -16.747  1.00  0.00     0.251 C
ENDBRANCH  19  20
ENDBRANCH  14  19
ENDBRANCH  11  14
BRANCH   9  27
HETATM   27  O5  UNL     1     -16.290 -24.818 -11.258  1.00  0.00    -0.370 OA
ATOM     28  H5  UNL     1     -16.087 -25.310 -10.471  1.00  0.00     0.212 HD
ENDBRANCH   9  27
ENDBRANCH   7   9
ENDBRANCH   1   7
BRANCH   4  29
HETATM   29  C15 UNL     1     -18.607 -25.727  -5.642  1.00  0.00     0.167 C
BRANCH  29  30
HETATM   30  C16 UNL     1     -19.583 -24.614  -5.315  1.00  0.00     0.270 C
BRANCH  30  31
HETATM   31  O6  UNL     1     -20.436 -24.911  -4.288  1.00  0.00    -0.370 OA
ATOM     32  H6  UNL     1     -21.110 -24.256  -4.148  1.00  0.00     0.212 HD
ENDBRANCH  30  31
BRANCH  30  33
HETATM   33  O7  UNL     1     -18.810 -23.506  -4.902  1.00  0.00    -0.370 OA
ATOM     34  H7  UNL     1     -19.137 -23.247  -4.049  1.00  0.00     0.212 HD
ENDBRANCH  30  33
ENDBRANCH  29  30
BRANCH  29  35
HETATM   35  C17 UNL     1     -17.285 -25.579  -4.958  1.00  0.00     0.296 C
BRANCH  35  36
HETATM   36  O8  UNL     1     -16.559 -26.757  -5.217  1.00  0.00    -0.342 OA
ATOM     37  H8  UNL     1     -15.893 -26.823  -4.543  1.00  0.00     0.215 HD
ENDBRANCH  35  36
BRANCH  35  38
HETATM   38  O9  UNL     1     -16.585 -24.518  -5.479  1.00  0.00    -0.342 OA
ATOM     39  H9  UNL     1     -16.529 -23.811  -4.848  1.00  0.00     0.215 HD
ENDBRANCH  35  38
BRANCH  35  40
HETATM   40  O10 UNL     1     -17.422 -25.392  -3.558  1.00  0.00    -0.276 OA
BRANCH  40  41
HETATM   41  C18 UNL     1     -16.462 -25.892  -2.718  1.00  0.00     0.134 C
HETATM   42  C19 UNL     1     -16.668 -27.177  -2.006  1.00  0.00     0.099 C
HETATM   43  N3  UNL     1     -15.373 -25.239  -2.548  1.00  0.00    -0.290 N
ATOM     44  H3  UNL     1     -15.221 -24.354  -3.033  1.00  0.00     0.188 HD
BRANCH  43  45
HETATM   45  N4  UNL     1     -14.400 -25.753  -1.693  1.00  0.00    -0.343 N
ATOM     46  H42 UNL     1     -14.648 -26.492  -1.035  1.00  0.00     0.176 HD
ATOM     47  H41 UNL     1     -13.451 -25.381  -1.740  1.00  0.00     0.176 HD
ENDBRANCH  43  45
ENDBRANCH  40  41
ENDBRANCH  35  40
ENDBRANCH  29  35
ENDBRANCH   4  29
TORSDOF 18
ENDMDL