MODEL 4
REMARK VINA RESULT: -7.515392795      2.569      3.588
REMARK  8 active torsions:
REMARK  status: ('A' for Active; 'I' for Inactive)
REMARK    1  A    between atoms: C2_2  and  C3_3
REMARK    2  A    between atoms: C3_3  and  N1_6
REMARK    3  A    between atoms: N1_6  and  C5_8
REMARK    4  A    between atoms: C6_9  and  O1_10
REMARK    5  A    between atoms: O1_10  and  C7_11
REMARK    6  A    between atoms: C7_11  and  C8_13
REMARK    7  A    between atoms: C8_13  and  O3_14
REMARK    8  A    between atoms: C23_32  and  O5_33
ROOT
HETATM    1  C5  UNL     1      -2.640   3.699  11.688  1.00  0.00     0.115 C
HETATM    2  C6  UNL     1      -2.491   2.225  11.377  1.00  0.00     0.155 C
HETATM    3  C9  UNL     1      -1.020   2.055  10.965  1.00  0.00     0.040 C
HETATM    4  C10 UNL     1      -0.505   3.437  10.817  1.00  0.00    -0.001 C
HETATM    5  C11 UNL     1      -1.781   4.244  10.565  1.00  0.00     0.015 C
HETATM    6  C12 UNL     1      -1.423   5.672  10.660  1.00  0.00     0.007 C
HETATM    7  C13 UNL     1      -0.525   5.983   9.459  1.00  0.00     0.009 C
HETATM    8  C14 UNL     1       0.011   4.752   8.803  1.00  0.00     0.033 C
HETATM    9  C15 UNL     1       0.473   3.686   9.740  1.00  0.00    -0.003 C
HETATM   10  C16 UNL     1       1.823   3.928  10.347  1.00  0.00     0.006 C
HETATM   11  C17 UNL     1       2.626   4.989   9.684  1.00  0.00     0.014 C
HETATM   12  C18 UNL     1       2.438   5.047   8.196  1.00  0.00     0.012 C
HETATM   13  C19 UNL     1       3.218   6.253   7.689  1.00  0.00     0.020 C
HETATM   14  C20 UNL     1       2.962   3.757   7.612  1.00  0.00     0.101 C
HETATM   15 CL1  UNL     1       4.667   3.822   7.194  1.00  0.00    -0.124 Cl
HETATM   16  C21 UNL     1       2.101   3.429   6.422  1.00  0.00     0.102 C
HETATM   17  C22 UNL     1       0.900   4.285   6.553  1.00  0.00     0.163 C
HETATM   18  O4  UNL     1      -0.034   4.255   5.764  1.00  0.00    -0.295 OA
HETATM   19  C23 UNL     1       1.020   5.161   7.775  1.00  0.00     0.130 C
ENDROOT
BRANCH   1  20
HETATM   20  N1  UNL     1      -2.169   4.089  12.976  1.00  0.00    -0.384 N
ATOM     21  H1  UNL     1      -1.184   3.969  13.214  1.00  0.00     0.160 HD
BRANCH  20  22
HETATM   22  C3  UNL     1      -3.063   4.642  13.928  1.00  0.00     0.032 C
HETATM   23  C4  UNL     1      -3.723   3.888  14.786  1.00  0.00     0.213 C
HETATM   24  F1  UNL     1      -4.573   4.439  15.682  1.00  0.00    -0.217 F
BRANCH  22  25
HETATM   25  C2  UNL     1      -3.255   6.105  13.949  1.00  0.00     0.054 C
HETATM   26  C1  UNL     1      -1.948   6.844  14.171  1.00  0.00     0.011 C
ENDBRANCH  22  25
ENDBRANCH  20  22
ENDBRANCH   1  20
BRANCH   2  27
HETATM   27  O1  UNL     1      -2.889   1.362  12.378  1.00  0.00    -0.312 OA
BRANCH  27  28
HETATM   28  C7  UNL     1      -4.026   0.603  12.242  1.00  0.00     0.282 C
HETATM   29  O2  UNL     1      -4.427  -0.097  13.190  1.00  0.00    -0.263 OA
BRANCH  28  30
HETATM   30  C8  UNL     1      -4.829   0.578  10.969  1.00  0.00     0.275 C
BRANCH  30  31
HETATM   31  O3  UNL     1      -5.703   1.634  10.900  1.00  0.00    -0.391 OA
ATOM     32  H3  UNL     1      -6.276   1.567  10.145  1.00  0.00     0.210 HD
ENDBRANCH  30  31
ENDBRANCH  28  30
ENDBRANCH  27  28
ENDBRANCH   2  27
BRANCH  19  33
HETATM   33  O5  UNL     1       0.684   6.452   7.337  1.00  0.00    -0.381 OA
ATOM     34  H5  UNL     1       0.186   6.871   8.029  1.00  0.00     0.211 HD
ENDBRANCH  19  33
TORSDOF 8
ENDMDL