MODEL 3
REMARK VINA RESULT: -8.512651788      7.266      8.086
REMARK  7 active torsions:
REMARK  status: ('A' for Active; 'I' for Inactive)
REMARK    1  A    between atoms: N2_9  and  C7_10
REMARK    2  A    between atoms: C7_10  and  N3_12
REMARK       I    between atoms: N3_12  and  C8_14
REMARK    3  A    between atoms: C8_14  and  C9_16
REMARK    4  A    between atoms: C12_19  and  C13_20
REMARK    5  A    between atoms: C13_20  and  O2_21
REMARK    6  A    between atoms: O2_21  and  C14_22
REMARK    7  A    between atoms: C16_26  and  C17_27
ROOT
HETATM    1  C9  UNL     1      -5.732   6.352   9.536  1.00  0.00     0.078 C
HETATM    2  C10 UNL     1      -4.235   6.478   9.369  1.00  0.00     0.014 C
HETATM    3  C11 UNL     1      -3.542   6.394  10.708  1.00  0.00     0.007 C
HETATM    4  C12 UNL     1      -4.400   5.560  11.631  1.00  0.00     0.010 C
HETATM    5  C19 UNL     1      -5.590   6.367  12.035  1.00  0.00     0.007 C
HETATM    6  C20 UNL     1      -6.133   7.059  10.795  1.00  0.00     0.014 C
ENDROOT
BRANCH   1   7
HETATM    7  C8  UNL     1      -6.466   7.033   8.406  1.00  0.00     0.228 C
HETATM    8  N3  UNL     1      -6.095   8.339   8.020  1.00  0.00    -0.303 N
ATOM      9  H3  UNL     1      -5.334   8.817   8.504  1.00  0.00     0.171 HD
HETATM   10  O1  UNL     1      -7.402   6.453   7.808  1.00  0.00    -0.273 OA
BRANCH   8  11
HETATM   11  C7  UNL     1      -6.777   8.987   6.964  1.00  0.00     0.176 C
HETATM   12  S1  UNL     1      -6.276   8.912   5.416  1.00  0.00    -0.041 SA
BRANCH  11  13
HETATM   13  N2  UNL     1      -7.960   9.758   7.237  1.00  0.00    -0.353 N
HETATM   14  C6  UNL     1      -7.891  10.749   8.271  1.00  0.00     0.166 C
HETATM   15  C5  UNL     1      -8.852  11.857   8.066  1.00  0.00    -0.010 A
HETATM   16  C2  UNL     1      -8.795  13.192   8.309  1.00  0.00    -0.037 A
HETATM   17  C4  UNL     1     -10.102  11.536   7.508  1.00  0.00     0.019 A
HETATM   18  C1  UNL     1      -7.685  13.991   8.889  1.00  0.00     0.050 C
HETATM   19  C3  UNL     1     -10.009  13.712   7.905  1.00  0.00     0.095 A
HETATM   20  N1  UNL     1     -10.776  12.692   7.426  1.00  0.00    -0.368 N
ATOM     21  H1  UNL     1     -11.723  12.793   7.059  1.00  0.00     0.165 HD
HETATM   22  C22 UNL     1     -10.404  10.128   7.154  1.00  0.00     0.077 C
HETATM   23  C21 UNL     1      -9.182   9.537   6.489  1.00  0.00     0.131 C
ENDBRANCH  11  13
ENDBRANCH   8  11
ENDBRANCH   1   7
BRANCH   4  24
HETATM   24  C13 UNL     1      -3.581   5.054  12.799  1.00  0.00     0.183 C
BRANCH  24  25
HETATM   25  O2  UNL     1      -4.230   5.448  13.972  1.00  0.00    -0.322 OA
BRANCH  25  26
HETATM   26  C14 UNL     1      -4.682   4.537  14.934  1.00  0.00     0.223 A
HETATM   27  N4  UNL     1      -3.986   3.426  15.233  1.00  0.00    -0.332 N
HETATM   28  C15 UNL     1      -4.401   2.537  16.154  1.00  0.00     0.105 A
ATOM     29  H4  UNL     1      -3.110   3.250  14.742  1.00  0.00     0.168 HD
HETATM   30  C16 UNL     1      -5.579   2.736  16.842  1.00  0.00     0.036 A
HETATM   31  C18 UNL     1      -6.287   3.879  16.529  1.00  0.00     0.105 A
HETATM   32  N5  UNL     1      -5.832   4.740  15.599  1.00  0.00    -0.332 N
ATOM     33  H5  UNL     1      -6.379   5.575  15.392  1.00  0.00     0.168 HD
BRANCH  30  34
HETATM   34  C17 UNL     1      -6.091   1.787  17.875  1.00  0.00     0.389 C
HETATM   35  F1  UNL     1      -6.276   2.440  19.091  1.00  0.00    -0.209 F
HETATM   36  F2  UNL     1      -7.279   1.212  17.529  1.00  0.00    -0.209 F
ENDBRANCH  30  34
ENDBRANCH  25  26
ENDBRANCH  24  25
ENDBRANCH   4  24
TORSDOF 7
ENDMDL