MODEL 5
REMARK VINA RESULT: -8.602761313      2.055      2.145
REMARK  6 active torsions:
REMARK  status: ('A' for Active; 'I' for Inactive)
REMARK    1  A    between atoms: C2_2  and  N1_3
REMARK    2  A    between atoms: C2_2  and  C17_24
REMARK    3  A    between atoms: N1_3  and  N2_5
REMARK    4  A    between atoms: C10_14  and  C12_16
REMARK    5  A    between atoms: C19_26  and  S1_27
REMARK    6  A    between atoms: S1_27  and  C20_28
ROOT
HETATM    1  C17 UNL     1      -3.734   3.911  13.581  1.00  0.00     0.035 A
HETATM    2  C18 UNL     1      -4.682   4.342  14.477  1.00  0.00     0.049 A
HETATM    3  C19 UNL     1      -5.158   3.248  15.163  1.00  0.00     0.045 A
HETATM    4  C21 UNL     1      -4.489   2.138  14.675  1.00  0.00     0.131 A
HETATM    5  C22 UNL     1      -4.663   0.758  15.100  1.00  0.00     0.119 C
HETATM    6  N4  UNL     1      -4.782  -0.343  15.435  1.00  0.00    -0.190 NA
HETATM    7  N5  UNL     1      -3.644   2.582  13.726  1.00  0.00    -0.348 N
ATOM      8  H5  UNL     1      -3.017   1.984  13.188  1.00  0.00     0.166 HD
ENDROOT
BRANCH   3   9
HETATM    9  S1  UNL     1      -6.412   3.209  16.459  1.00  0.00    -0.058 SA
BRANCH   9  10
HETATM   10  C20 UNL     1      -5.881   2.074  17.790  1.00  0.00     0.420 C
HETATM   11  F1  UNL     1      -6.700   0.946  17.721  1.00  0.00    -0.202 F
HETATM   12  F2  UNL     1      -6.183   2.706  18.978  1.00  0.00    -0.202 F
ENDBRANCH   9  10
ENDBRANCH   3   9
BRANCH   1  13
HETATM   13  C2  UNL     1      -2.940   4.716  12.616  1.00  0.00     0.145 C
HETATM   14  C1  UNL     1      -1.494   4.738  13.119  1.00  0.00     0.040 C
BRANCH  13  15
HETATM   15  N1  UNL     1      -3.385   6.094  12.606  1.00  0.00    -0.325 N
ATOM     16  H1  UNL     1      -3.338   6.604  13.487  1.00  0.00     0.181 HD
BRANCH  15  17
HETATM   17  N2  UNL     1      -3.867   6.780  11.505  1.00  0.00    -0.292 N
HETATM   18  C3  UNL     1      -5.098   7.081  11.265  1.00  0.00     0.100 C
HETATM   19  C4  UNL     1      -6.311   6.787  12.070  1.00  0.00     0.080 C
HETATM   20  N3  UNL     1      -5.462   7.813  10.076  1.00  0.00    -0.301 N
HETATM   21  C5  UNL     1      -7.363   7.619  11.308  1.00  0.00     0.034 C
HETATM   22  C6  UNL     1      -6.871   7.562   9.871  1.00  0.00     0.099 C
HETATM   23  C7  UNL     1      -7.497   8.573   8.976  1.00  0.00     0.013 C
HETATM   24  C8  UNL     1      -7.477   8.122   7.532  1.00  0.00     0.008 C
HETATM   25  C14 UNL     1      -6.791   9.912   8.980  1.00  0.00     0.001 C
HETATM   26  C9  UNL     1      -8.360   9.012   6.734  1.00  0.00     0.017 C
HETATM   27  C10 UNL     1      -8.282  10.456   7.017  1.00  0.00     0.010 C
HETATM   28  C11 UNL     1      -7.624  11.150   5.814  1.00  0.00     0.023 C
HETATM   29  C13 UNL     1      -7.615  10.908   8.240  1.00  0.00     0.021 C
HETATM   30  C15 UNL     1      -5.365   9.810   8.490  1.00  0.00     0.108 C
HETATM   31  C16 UNL     1      -4.736   8.640   9.192  1.00  0.00     0.226 C
HETATM   32  O2  UNL     1      -3.524   8.390   8.984  1.00  0.00    -0.273 OA
ATOM     33  H2  UNL     1      -3.179   7.079  10.813  1.00  0.00     0.188 HD
BRANCH  27  34
HETATM   34  C12 UNL     1      -9.698  10.991   7.027  1.00  0.00     0.240 C
HETATM   35  O1  UNL     1     -10.651  10.232   7.091  1.00  0.00    -0.306 OA
ENDBRANCH  27  34
ENDBRANCH  15  17
ENDBRANCH  13  15
ENDBRANCH   1  13
TORSDOF 6
ENDMDL