MODEL 5
REMARK VINA RESULT: -6.514882409      1.883      3.252
REMARK  7 active torsions:
REMARK  status: ('A' for Active; 'I' for Inactive)
REMARK    1  A    between atoms: C2_2  and  O1_3
REMARK    2  A    between atoms: O1_3  and  C3_4
REMARK    3  A    between atoms: C5_7  and  O2_8
REMARK    4  A    between atoms: C7_12  and  O3_13
REMARK    5  A    between atoms: C8_15  and  C9_16
REMARK    6  A    between atoms: C9_16  and  N1_17
REMARK    7  A    between atoms: N2_20  and  C12_21
ROOT
HETATM    1  C3  UNL     1      -4.398   3.008  13.796  1.00  0.00     0.103 A
HETATM    2  C4  UNL     1      -4.466   1.652  14.219  1.00  0.00     0.079 A
HETATM    3 BR1  UNL     1      -4.622   1.229  16.075  1.00  0.00    -0.045 Br
HETATM    4  C5  UNL     1      -4.462   0.711  13.274  1.00  0.00     0.106 A
HETATM    5  C6  UNL     1      -4.407   0.996  11.933  1.00  0.00     0.079 A
HETATM    6 BR2  UNL     1      -4.353  -0.379  10.641  1.00  0.00    -0.045 Br
HETATM    7  C7  UNL     1      -4.362   2.337  11.507  1.00  0.00     0.100 A
HETATM    8  C8  UNL     1      -4.339   3.315  12.433  1.00  0.00     0.049 A
ENDROOT
BRANCH   8   9
HETATM    9  C9  UNL     1      -4.243   4.742  12.053  1.00  0.00     0.107 C
BRANCH   9  10
HETATM   10  N1  UNL     1      -3.072   5.402  11.792  1.00  0.00    -0.366 N
HETATM   11  C10 UNL     1      -3.236   6.366  10.709  1.00  0.00     0.157 C
HETATM   12  C11 UNL     1      -2.803   5.684   9.417  1.00  0.00     0.293 C
HETATM   13  N2  UNL     1      -1.333   5.572   9.517  1.00  0.00     0.098 N
HETATM   14  C15 UNL     1      -1.142   4.573  10.591  1.00  0.00     0.317 C
HETATM   15  C16 UNL     1      -1.762   5.045  11.884  1.00  0.00     0.093 C
BRANCH  13  16
HETATM   16  C12 UNL     1      -0.831   4.943   8.295  1.00  0.00     0.215 C
HETATM   17  C13 UNL     1      -1.772   5.064   7.156  1.00  0.00     0.042 C
HETATM   18  C14 UNL     1      -0.175   3.654   8.396  1.00  0.00     0.042 C
ENDBRANCH  13  16
ENDBRANCH   9  10
ENDBRANCH   8   9
BRANCH   1  19
HETATM   19  O1  UNL     1      -4.398   3.846  14.840  1.00  0.00    -0.349 OA
BRANCH  19  20
HETATM   20  C2  UNL     1      -5.094   4.946  15.274  1.00  0.00     0.171 C
HETATM   21  C1  UNL     1      -6.287   4.517  16.167  1.00  0.00     0.034 C
ENDBRANCH  19  20
ENDBRANCH   1  19
BRANCH   7  22
HETATM   22  O3  UNL     1      -4.385   2.514  10.116  1.00  0.00    -0.358 OA
ATOM     23  H3  UNL     1      -5.175   2.205   9.687  1.00  0.00     0.217 HD
ENDBRANCH   7  22
BRANCH   4  24
HETATM   24  O2  UNL     1      -4.524  -0.670  13.699  1.00  0.00    -0.358 OA
ATOM     25  H2  UNL     1      -3.870  -1.268  13.356  1.00  0.00     0.217 HD
ENDBRANCH   4  24
TORSDOF 7
ENDMDL