MODEL 4
REMARK VINA RESULT: -6.424275861      4.560      7.926
REMARK  6 active torsions:
REMARK  status: ('A' for Active; 'I' for Inactive)
REMARK    1  A    between atoms: O1_2  and  C2_3
REMARK    2  A    between atoms: C3_4  and  C4_5
REMARK    3  A    between atoms: C13_16  and  C14_17
REMARK    4  A    between atoms: C16_20  and  O5_21
REMARK    5  A    between atoms: C22_29  and  C23_30
REMARK    6  A    between atoms: C23_30  and  O6_31
ROOT
HETATM    1  C2  UNL     1      -0.397  10.431  12.707  1.00  0.00     0.171 C
HETATM    2  C3  UNL     1       0.745  10.209  11.778  1.00  0.00     0.044 C
HETATM    3  C5  UNL     1       1.316   9.053  11.604  1.00  0.00    -0.010 C
HETATM    4  C6  UNL     1       0.936   7.817  12.284  1.00  0.00     0.034 C
HETATM    5  C7  UNL     1      -0.243   7.946  13.164  1.00  0.00     0.007 C
HETATM    6  C8  UNL     1      -1.544   7.395  12.555  1.00  0.00    -0.002 C
HETATM    7  C9  UNL     1      -1.216   6.118  11.871  1.00  0.00     0.006 C
HETATM    8  C10 UNL     1      -2.375   5.174  11.648  1.00  0.00     0.014 C
HETATM    9  C11 UNL     1      -3.505   5.332  12.600  1.00  0.00     0.005 C
HETATM   10  C12 UNL     1      -4.449   6.361  12.025  1.00  0.00     0.019 C
HETATM   11  C13 UNL     1      -4.221   4.112  13.024  1.00  0.00     0.097 C
HETATM   12  C16 UNL     1      -4.261   4.085  14.553  1.00  0.00     0.160 C
HETATM   13  C17 UNL     1      -3.949   5.553  14.895  1.00  0.00     0.079 C
HETATM   14  C18 UNL     1      -2.875   5.831  13.910  1.00  0.00     0.118 C
HETATM   15  F1  UNL     1      -1.796   5.039  14.237  1.00  0.00    -0.242 F
HETATM   16  C19 UNL     1      -2.521   7.249  13.696  1.00  0.00     0.031 C
HETATM   17  C20 UNL     1      -2.092   7.918  14.964  1.00  0.00     0.009 C
HETATM   18  C21 UNL     1      -1.665   9.336  14.591  1.00  0.00     0.015 C
HETATM   19  C22 UNL     1      -0.418   9.307  13.744  1.00  0.00     0.016 C
ENDROOT
BRANCH   2  20
HETATM   20  C4  UNL     1       1.281  11.338  11.034  1.00  0.00     0.207 C
HETATM   21  O2  UNL     1       1.375  12.483  11.524  1.00  0.00    -0.644 OA
HETATM   22  O3  UNL     1       1.725  11.204   9.715  1.00  0.00    -0.644 OA
ENDBRANCH   2  20
BRANCH   1  23
HETATM   23  O1  UNL     1      -1.578  10.531  12.037  1.00  0.00    -0.385 OA
HETATM   24  C1  UNL     1      -2.194  11.752  11.987  1.00  0.00     0.202 C
ENDBRANCH   1  23
BRANCH  19  25
HETATM   25  C23 UNL     1       0.762   9.549  14.699  1.00  0.00     0.177 C
BRANCH  25  26
HETATM   26  O6  UNL     1       0.569  10.755  15.346  1.00  0.00    -0.400 OA
ATOM     27  H6  UNL     1       1.097  10.765  16.136  1.00  0.00     0.209 HD
ENDBRANCH  25  26
ENDBRANCH  19  25
BRANCH  11  28
HETATM   28  C14 UNL     1      -3.801   2.839  12.444  1.00  0.00     0.130 C
HETATM   29  C15 UNL     1      -4.752   1.892  11.803  1.00  0.00     0.091 C
HETATM   30  O4  UNL     1      -2.616   2.475  12.457  1.00  0.00    -0.298 OA
ENDBRANCH  11  28
BRANCH  12  31
HETATM   31  O5  UNL     1      -3.224   3.337  15.097  1.00  0.00    -0.278 OA
HETATM   32 CL1  UNL     1      -3.821   2.073  16.085  1.00  0.00     0.062 Cl
ENDBRANCH  12  31
TORSDOF 6
ENDMDL