MODEL 1
REMARK VINA RESULT: -8.832173488      0.000      0.000
REMARK  5 active torsions:
REMARK  status: ('A' for Active; 'I' for Inactive)
REMARK       I    between atoms: C1_2  and  N1_3
REMARK       I    between atoms: C1_2  and  N5_29
REMARK    1  A    between atoms: N1_3  and  C2_5
REMARK    2  A    between atoms: C5_8  and  N2_9
REMARK    3  A    between atoms: C11_16  and  N3_17
REMARK    4  A    between atoms: N4_20  and  C14_21
REMARK    5  A    between atoms: N5_29  and  C20_31
ROOT
HETATM    1  C2  UNL     1      -2.290   5.806  13.784  1.00  0.00     0.063 A
HETATM    2  C3  UNL     1      -2.099   7.005  14.420  1.00  0.00     0.034 A
HETATM    3  C4  UNL     1      -1.792   8.197  13.757  1.00  0.00     0.031 A
HETATM    4  C5  UNL     1      -1.674   8.175  12.394  1.00  0.00     0.032 A
HETATM    5  C10 UNL     1      -1.864   6.990  11.763  1.00  0.00     0.061 A
HETATM    6  C11 UNL     1      -2.169   5.785  12.398  1.00  0.00     0.059 A
ENDROOT
BRANCH   6   7
HETATM    7  N3  UNL     1      -2.357   4.600  11.652  1.00  0.00    -0.376 N
HETATM    8  C12 UNL     1      -1.219   3.722  11.435  1.00  0.00     0.153 C
HETATM    9  C13 UNL     1      -1.555   2.476  10.695  1.00  0.00     0.292 C
HETATM   10  N4  UNL     1      -2.819   1.878  10.923  1.00  0.00     0.096 N
HETATM   11  C18 UNL     1      -3.856   2.729  11.432  1.00  0.00     0.292 C
HETATM   12  C19 UNL     1      -3.612   4.193  11.098  1.00  0.00     0.153 C
BRANCH  10  13
HETATM   13  C14 UNL     1      -2.801   0.699  11.770  1.00  0.00     0.234 C
HETATM   14  C15 UNL     1      -2.743  -0.628  11.054  1.00  0.00     0.115 C
HETATM   15  C16 UNL     1      -4.259  -0.540  10.898  1.00  0.00     0.247 C
HETATM   16  F1  UNL     1      -4.840  -1.768  11.139  1.00  0.00    -0.206 F
HETATM   17  F2  UNL     1      -4.639   0.084   9.727  1.00  0.00    -0.206 F
HETATM   18  C17 UNL     1      -4.255   0.368  12.124  1.00  0.00     0.115 C
ENDBRANCH  10  13
ENDBRANCH   6   7
BRANCH   1  19
HETATM   19  N1  UNL     1      -2.623   4.615  14.481  1.00  0.00    -0.307 N
HETATM   20  C1  UNL     1      -3.876   4.059  14.716  1.00  0.00     0.321 C
HETATM   21  O1  UNL     1      -4.939   4.573  14.335  1.00  0.00    -0.247 OA
HETATM   22  N5  UNL     1      -4.008   2.828  15.439  1.00  0.00    -0.338 N
ATOM     23  H5  UNL     1      -3.160   2.364  15.765  1.00  0.00     0.164 HD
ATOM     24  H1  UNL     1      -1.833   4.094  14.862  1.00  0.00     0.170 HD
BRANCH  22  25
HETATM   25  C20 UNL     1      -5.274   2.215  15.725  1.00  0.00     0.086 C
HETATM   26  C21 UNL     1      -5.997   2.874  16.875  1.00  0.00     0.025 C
HETATM   27  C22 UNL     1      -5.870   1.886  18.035  1.00  0.00     0.002 C
HETATM   28  C23 UNL     1      -5.894   0.532  17.340  1.00  0.00     0.002 C
HETATM   29  C24 UNL     1      -5.119   0.769  16.087  1.00  0.00     0.025 C
ENDBRANCH  22  25
ENDBRANCH   1  19
BRANCH   4  30
HETATM   30  N2  UNL     1      -1.364   9.337  11.664  1.00  0.00    -0.377 N
HETATM   31  C6  UNL     1      -2.316  10.096  10.865  1.00  0.00     0.149 C
HETATM   32  C7  UNL     1      -2.365  11.494  11.453  1.00  0.00     0.187 C
HETATM   33  O2  UNL     1      -1.108  12.043  11.634  1.00  0.00    -0.388 OA
HETATM   34  C8  UNL     1      -0.109  11.280  11.032  1.00  0.00     0.187 C
HETATM   35  C9  UNL     1       0.000   9.891  11.637  1.00  0.00     0.149 C
ENDBRANCH   4  30
TORSDOF 5
ENDMDL