MODEL 5
REMARK VINA RESULT: -8.641866982      5.059      8.213
REMARK  6 active torsions:
REMARK  status: ('A' for Active; 'I' for Inactive)
REMARK    1  A    between atoms: C5_5  and  O1_6
REMARK    2  A    between atoms: C5_5  and  C6_8
REMARK    3  A    between atoms: C9_11  and  N1_12
REMARK    4  A    between atoms: N1_12  and  C10_14
REMARK    5  A    between atoms: N2_16  and  C12_17
REMARK    6  A    between atoms: C15_20  and  N3_21
ROOT
HETATM    1  N1  UNL     1      -3.730   5.500  11.270  1.00  0.00    -0.401 N
ATOM      2  H1  UNL     1      -4.318   5.271  10.469  1.00  0.00     0.154 HD
ENDROOT
BRANCH   1   3
HETATM    3  C9  UNL     1      -4.340   5.913  12.454  1.00  0.00     0.111 C
HETATM    4  C8  UNL     1      -3.281   5.754  13.576  1.00  0.00     0.028 C
HETATM    5  C7  UNL     1      -3.203   4.303  14.039  1.00  0.00     0.010 C
HETATM    6  C6  UNL     1      -4.538   3.700  14.307  1.00  0.00     0.023 C
HETATM    7  C23 UNL     1      -5.553   4.789  14.326  1.00  0.00     0.046 C
HETATM    8  C22 UNL     1      -5.632   5.323  12.876  1.00  0.00     0.192 C
HETATM    9  F2  UNL     1      -6.673   6.251  12.873  1.00  0.00    -0.247 F
BRANCH   6  10
HETATM   10  C5  UNL     1      -4.601   2.717  15.422  1.00  0.00     0.066 C
HETATM   11  C4  UNL     1      -5.727   2.877  16.390  1.00  0.00     0.075 C
HETATM   12  C2  UNL     1      -6.011   1.628  17.190  1.00  0.00     0.056 C
HETATM   13  C1  UNL     1      -6.067   2.076  18.662  1.00  0.00     0.045 C
HETATM   14  C3  UNL     1      -7.398   1.088  16.904  1.00  0.00     0.045 C
HETATM   15  O3  UNL     1      -5.039   0.669  17.149  1.00  0.00    -0.381 OA
HETATM   16  C25 UNL     1      -4.475   0.358  15.957  1.00  0.00     0.171 C
HETATM   17  C24 UNL     1      -4.777   1.302  14.843  1.00  0.00     0.064 C
BRANCH  10  18
HETATM   18  O1  UNL     1      -3.415   2.681  16.152  1.00  0.00    -0.389 OA
ATOM     19  H1  UNL     1      -3.058   1.803  16.081  1.00  0.00     0.210 HD
ENDBRANCH  10  18
ENDBRANCH   6  10
ENDBRANCH   1   3
BRANCH   1  20
HETATM   20  C10 UNL     1      -2.337   5.386  11.139  1.00  0.00     0.189 C
HETATM   21  C11 UNL     1      -1.888   4.073  10.551  1.00  0.00     0.166 C
HETATM   22  N2  UNL     1      -0.933   4.853   9.776  1.00  0.00    -0.311 N
HETATM   23  C21 UNL     1      -1.665   6.046  10.007  1.00  0.00     0.248 C
HETATM   24  O2  UNL     1      -1.695   7.157   9.461  1.00  0.00    -0.271 OA
BRANCH  22  25
HETATM   25  C12 UNL     1       0.257   4.447   9.091  1.00  0.00     0.076 A
HETATM   26  C13 UNL     1       1.476   4.384   9.728  1.00  0.00     0.035 A
HETATM   27  C14 UNL     1       2.644   3.995   9.063  1.00  0.00     0.032 A
HETATM   28  C15 UNL     1       2.595   3.662   7.733  1.00  0.00     0.033 A
HETATM   29  C19 UNL     1       1.375   3.723   7.088  1.00  0.00     0.073 A
HETATM   30  C20 UNL     1       0.227   4.108   7.755  1.00  0.00     0.145 A
HETATM   31  F1  UNL     1      -0.983   4.158   7.097  1.00  0.00    -0.204 F
BRANCH  28  32
HETATM   32  N3  UNL     1       3.808   3.271   7.050  1.00  0.00    -0.381 N
HETATM   33  C16 UNL     1       4.042   2.890   5.656  1.00  0.00     0.124 C
HETATM   34  C17 UNL     1       5.371   2.348   6.013  1.00  0.00     0.040 C
HETATM   35  C18 UNL     1       5.200   3.067   7.318  1.00  0.00     0.124 C
ENDBRANCH  28  32
ENDBRANCH  22  25
ENDBRANCH   1  20
TORSDOF 6
ENDMDL