MODEL 1
REMARK VINA RESULT: -9.282288912      0.000      0.000
REMARK  7 active torsions:
REMARK  status: ('A' for Active; 'I' for Inactive)
REMARK    1  A    between atoms: O1_1  and  C1_3
REMARK    2  A    between atoms: C1_3  and  C2_4
REMARK    3  A    between atoms: C1_3  and  C8_12
REMARK    4  A    between atoms: C2_4  and  C3_5
REMARK    5  A    between atoms: C11_15  and  N2_16
REMARK    6  A    between atoms: C15_22  and  N4_23
REMARK    7  A    between atoms: N4_23  and  C16_25
ROOT
HETATM    1  N2  UNL     1      -4.901   6.646  10.552  1.00  0.00     0.102 N
HETATM    2  C12 UNL     1      -4.717   5.261  10.147  1.00  0.00     0.315 C
HETATM    3  C13 UNL     1      -4.232   4.624  11.400  1.00  0.00     0.011 A
HETATM    4  C14 UNL     1      -3.567   3.427  11.662  1.00  0.00     0.117 A
HETATM    5  N3  UNL     1      -3.254   3.077  12.937  1.00  0.00    -0.201 N
ATOM      6  H3  UNL     1      -2.766   2.195  13.095  1.00  0.00     0.183 HD
HETATM    7  C15 UNL     1      -3.557   3.837  13.994  1.00  0.00     0.678 A
HETATM    8  N5  UNL     1      -4.210   5.014  13.724  1.00  0.00    -0.193 N
ATOM      9  H5  UNL     1      -4.457   5.622  14.505  1.00  0.00     0.184 HD
HETATM   10  C22 UNL     1      -4.536   5.400  12.494  1.00  0.00     0.064 A
HETATM   11  C23 UNL     1      -5.231   6.617  11.950  1.00  0.00     0.331 C
ENDROOT
BRANCH   1  12
HETATM   12  C11 UNL     1      -5.820   7.331   9.706  1.00  0.00     0.224 C
HETATM   13  C10 UNL     1      -6.882   6.492   9.064  1.00  0.00     0.036 C
HETATM   14  C9  UNL     1      -7.746   7.330   8.183  1.00  0.00     0.009 C
HETATM   15  C8  UNL     1      -7.178   8.714   7.931  1.00  0.00     0.015 C
HETATM   16  C25 UNL     1      -6.922   9.463   9.195  1.00  0.00     0.009 C
HETATM   17  C24 UNL     1      -6.452   8.544  10.315  1.00  0.00     0.036 C
BRANCH  15  18
HETATM   18  C1  UNL     1      -8.081   9.499   7.010  1.00  0.00     0.126 C
BRANCH  18  19
HETATM   19  O1  UNL     1      -7.818   9.093   5.689  1.00  0.00    -0.395 OA
ATOM     20  H1  UNL     1      -8.248   9.695   5.094  1.00  0.00     0.210 HD
ENDBRANCH  18  19
BRANCH  18  21
HETATM   21  C2  UNL     1      -9.540   9.325   7.284  1.00  0.00     0.072 C
BRANCH  21  22
HETATM   22  C3  UNL     1     -10.201  10.627   6.998  1.00  0.00    -0.040 A
HETATM   23  C4  UNL     1     -10.846  10.738   5.770  1.00  0.00     0.010 A
HETATM   24  C5  UNL     1     -11.498  11.873   5.366  1.00  0.00     0.018 A
HETATM   25  C6  UNL     1     -11.482  12.936   6.272  1.00  0.00     0.087 A
HETATM   26  N1  UNL     1     -10.856  12.820   7.460  1.00  0.00    -0.375 N
HETATM   27  C7  UNL     1     -10.213  11.694   7.848  1.00  0.00     0.094 A
ATOM     28  H1  UNL     1     -10.866  13.617   8.095  1.00  0.00     0.164 HD
ENDBRANCH  21  22
ENDBRANCH  18  21
ENDBRANCH  15  18
ENDBRANCH   1  12
BRANCH   7  29
HETATM   29  N4  UNL     1      -3.288   3.502  15.197  1.00  0.00    -0.221 N
ATOM     30  H4  UNL     1      -2.337   3.673  15.524  1.00  0.00     0.178 HD
BRANCH  29  31
HETATM   31  C16 UNL     1      -4.203   2.905  16.134  1.00  0.00     0.099 C
HETATM   32  C17 UNL     1      -4.268   1.419  16.031  1.00  0.00     0.031 C
HETATM   33  C18 UNL     1      -5.570   0.766  16.272  1.00  0.00     0.081 C
HETATM   34  C19 UNL     1      -6.673   1.664  16.757  1.00  0.00     0.243 C
HETATM   35  F1  UNL     1      -6.286   2.212  17.965  1.00  0.00    -0.206 F
HETATM   36  F2  UNL     1      -7.847   0.986  16.811  1.00  0.00    -0.206 F
HETATM   37  C20 UNL     1      -6.703   2.818  15.744  1.00  0.00     0.081 C
HETATM   38  C21 UNL     1      -5.497   3.638  16.042  1.00  0.00     0.031 C
ENDBRANCH  29  31
ENDBRANCH   7  29
TORSDOF 7
ENDMDL