MODEL 4
REMARK VINA RESULT: -7.196186790      6.744      7.637
REMARK  6 active torsions:
REMARK  status: ('A' for Active; 'I' for Inactive)
REMARK    1  A    between atoms: C2_2  and  O1_3
REMARK    2  A    between atoms: O1_3  and  C3_4
REMARK    3  A    between atoms: C3_4  and  C4_6
REMARK    4  A    between atoms: C4_6  and  N1_9
REMARK    5  A    between atoms: C8_11  and  N2_12
REMARK       I    between atoms: N2_12  and  C9_14
REMARK    6  A    between atoms: C9_14  and  C10_16
ROOT
HETATM    1  N2  UNL     1      -4.780   7.837   9.642  1.00  0.00    -0.323 N
ATOM      2  H2  UNL     1      -4.335   8.741   9.803  1.00  0.00     0.169 HD
HETATM    3  C9  UNL     1      -5.384   7.643   8.399  1.00  0.00     0.253 C
HETATM    4  O3  UNL     1      -5.950   6.570   8.124  1.00  0.00    -0.271 OA
ENDROOT
BRANCH   1   5
HETATM    5  C8  UNL     1      -4.727   6.902  10.701  1.00  0.00     0.075 A
HETATM    6  C7  UNL     1      -3.747   6.012  11.044  1.00  0.00     0.125 A
HETATM    7  N1  UNL     1      -4.042   5.277  12.118  1.00  0.00    -0.325 N
HETATM    8  C21 UNL     1      -5.286   5.705  12.505  1.00  0.00     0.131 A
HETATM    9  C20 UNL     1      -5.718   6.685  11.663  1.00  0.00     0.101 A
HETATM   10 CL2  UNL     1      -6.228   5.109  13.883  1.00  0.00    -0.062 Cl
HETATM   11 CL1  UNL     1      -7.231   7.569  11.706  1.00  0.00    -0.078 Cl
BRANCH   7  12
HETATM   12  C4  UNL     1      -3.386   4.248  12.852  1.00  0.00     0.118 C
HETATM   13  C5  UNL     1      -2.030   3.886  12.219  1.00  0.00     0.049 C
HETATM   14  C6  UNL     1      -3.135   4.778  14.272  1.00  0.00     0.049 C
BRANCH  12  15
HETATM   15  C3  UNL     1      -4.105   2.986  13.012  1.00  0.00     0.287 C
HETATM   16  O2  UNL     1      -4.943   2.497  12.226  1.00  0.00    -0.262 OA
BRANCH  15  17
HETATM   17  O1  UNL     1      -3.876   2.178  14.161  1.00  0.00    -0.320 OA
BRANCH  17  18
HETATM   18  C2  UNL     1      -4.931   1.690  14.930  1.00  0.00     0.174 C
HETATM   19  C1  UNL     1      -4.667   2.062  16.368  1.00  0.00     0.034 C
ENDBRANCH  17  18
ENDBRANCH  15  17
ENDBRANCH  12  15
ENDBRANCH   7  12
ENDBRANCH   1   5
BRANCH   3  20
HETATM   20  C10 UNL     1      -5.389   8.693   7.340  1.00  0.00     0.278 C
HETATM   21  C11 UNL     1      -5.560   8.130   5.971  1.00  0.00     0.045 C
HETATM   22  C12 UNL     1      -6.812   8.753   5.448  1.00  0.00     0.042 C
HETATM   23  C13 UNL     1      -7.374   9.602   6.560  1.00  0.00     0.134 C
HETATM   24  C14 UNL     1      -8.666   8.953   7.079  1.00  0.00     0.075 C
HETATM   25  C17 UNL     1      -7.842  10.912   6.010  1.00  0.00     0.052 C
HETATM   26  N4  UNL     1      -6.372   9.700   7.571  1.00  0.00    -0.053 N
HETATM   27  C15 UNL     1      -9.747   9.939   6.734  1.00  0.00     0.225 C
HETATM   28  C16 UNL     1      -9.195  10.487   5.405  1.00  0.00     0.044 C
HETATM   29  N3  UNL     1      -9.575  11.093   7.586  1.00  0.00     0.089 N
HETATM   30  C18 UNL     1      -8.374  11.777   7.144  1.00  0.00     0.279 C
HETATM   31  C19 UNL     1     -10.727  11.943   7.625  1.00  0.00     0.310 C
ATOM     32  H42 UNL     1      -6.762   9.656   8.513  1.00  0.00     0.279 HD
ATOM     33  H41 UNL     1      -5.968  10.635   7.630  1.00  0.00     0.279 HD
ENDBRANCH   3  20
TORSDOF 6
ENDMDL