MODEL 1
REMARK VINA RESULT: -9.030362172      0.000      0.000
REMARK  9 active torsions:
REMARK  status: ('A' for Active; 'I' for Inactive)
REMARK    1  A    between atoms: C2_2  and  C3_3
REMARK    2  A    between atoms: C6_6  and  N1_7
REMARK       I    between atoms: N1_7  and  C7_9
REMARK       I    between atoms: C7_9  and  N2_11
REMARK    3  A    between atoms: C8_13  and  C9_14
REMARK    4  A    between atoms: C8_13  and  C17_25
REMARK    5  A    between atoms: C9_14  and  C10_15
REMARK    6  A    between atoms: C9_14  and  C15_21
REMARK    7  A    between atoms: C10_15  and  C11_16
REMARK    8  A    between atoms: C15_21  and  O4_23
REMARK    9  A    between atoms: C17_25  and  O5_26
ROOT
HETATM    1  N1  UNL     1      -5.130   5.822  10.111  1.00  0.00    -0.294 N
ATOM      2  H1  UNL     1      -5.676   5.114   9.620  1.00  0.00     0.172 HD
HETATM    3  C7  UNL     1      -4.009   5.388  10.885  1.00  0.00     0.326 C
HETATM    4  O1  UNL     1      -2.874   5.787  10.450  1.00  0.00    -0.247 OA
HETATM    5  N2  UNL     1      -4.055   4.611  12.008  1.00  0.00    -0.312 N
ATOM      6  H2  UNL     1      -4.101   5.175  12.857  1.00  0.00     0.170 HD
HETATM    7  C8  UNL     1      -4.057   3.375  12.268  1.00  0.00     0.039 C
ENDROOT
BRANCH   7   8
HETATM    8  C9  UNL     1      -4.124   3.060  13.746  1.00  0.00     0.137 C
BRANCH   8   9
HETATM    9  C10 UNL     1      -5.551   3.277  14.164  1.00  0.00     0.052 C
BRANCH   9  10
HETATM   10  C11 UNL     1      -6.133   2.466  15.233  1.00  0.00     0.122 C
HETATM   11  C12 UNL     1      -6.508   2.988  16.537  1.00  0.00     0.034 C
HETATM   12  C13 UNL     1      -5.652   2.238  17.546  1.00  0.00     0.029 C
HETATM   13  C14 UNL     1      -4.785   1.390  16.686  1.00  0.00     0.168 C
HETATM   14  O2  UNL     1      -5.302   1.343  15.428  1.00  0.00    -0.386 OA
ENDBRANCH   9  10
ENDBRANCH   8   9
BRANCH   8  15
HETATM   15  C15 UNL     1      -3.336   4.132  14.467  1.00  0.00     0.268 C
HETATM   16  O3  UNL     1      -3.827   4.979  15.225  1.00  0.00    -0.264 OA
BRANCH  15  17
HETATM   17  O4  UNL     1      -1.954   4.158  14.252  1.00  0.00    -0.326 OA
HETATM   18  C16 UNL     1      -1.352   5.377  13.799  1.00  0.00     0.213 C
ENDBRANCH  15  17
ENDBRANCH   8  15
ENDBRANCH   7   8
BRANCH   7  19
HETATM   19  C17 UNL     1      -3.993   2.375  11.195  1.00  0.00     0.097 C
HETATM   20  C18 UNL     1      -2.624   2.063  10.773  1.00  0.00     0.050 C
HETATM   21  C19 UNL     1      -2.061   0.719  11.151  1.00  0.00     0.082 C
HETATM   22  C20 UNL     1      -3.044  -0.417  10.950  1.00  0.00     0.243 C
HETATM   23  F1  UNL     1      -2.454  -1.562  11.432  1.00  0.00    -0.206 F
HETATM   24  F2  UNL     1      -3.432  -0.566   9.653  1.00  0.00    -0.206 F
HETATM   25  C21 UNL     1      -4.199  -0.066  11.876  1.00  0.00     0.082 C
HETATM   26  C22 UNL     1      -4.880   1.184  11.464  1.00  0.00     0.050 C
BRANCH  19  27
HETATM   27  O5  UNL     1      -4.618   2.987  10.067  1.00  0.00    -0.384 OA
ATOM     28  H5  UNL     1      -4.007   2.877   9.348  1.00  0.00     0.211 HD
ENDBRANCH  19  27
ENDBRANCH   7  19
BRANCH   1  29
HETATM   29  C6  UNL     1      -5.489   7.045   9.998  1.00  0.00     0.108 A
HETATM   30  C5  UNL     1      -6.309   7.670  10.906  1.00  0.00     0.049 A
HETATM   31  C4  UNL     1      -6.641   9.002  10.693  1.00  0.00     0.016 A
HETATM   32  C3  UNL     1      -6.186   9.726   9.613  1.00  0.00    -0.021 A
HETATM   33  C23 UNL     1      -5.354   9.028   8.727  1.00  0.00     0.101 A
HETATM   34  N3  UNL     1      -5.040   7.743   8.943  1.00  0.00    -0.351 N
ATOM     35  H3  UNL     1      -4.430   7.273   8.274  1.00  0.00     0.166 HD
BRANCH  32  36
HETATM   36  C2  UNL     1      -6.510  11.112   9.359  1.00  0.00     0.002 C
HETATM   37  C1  UNL     1      -6.285  12.029  10.263  1.00  0.00     0.012 C
ENDBRANCH  32  36
ENDBRANCH   1  29
TORSDOF 9
ENDMDL