MODEL 4
REMARK VINA RESULT: -3.021323913      1.623      1.623
REMARK  0 active torsions:
REMARK  status: ('A' for Active; 'I' for Inactive)
ROOT
HETATM    1  N1  UNL     1      59.092 -49.238  21.947  1.00  0.00    -0.063 NA
HETATM    2  C1  UNL     1      60.436 -48.798  21.934  1.00  0.00     0.198 C
HETATM    3  N2  UNL     1      60.644 -47.509  21.820  1.00  0.00    -0.281 N
ATOM      4  H2  UNL     1      59.797 -46.945  21.751  1.00  0.00     0.173 HD
HETATM    5  C2  UNL     1      61.864 -46.765  21.776  1.00  0.00     0.341 C
HETATM    6  O1  UNL     1      61.754 -45.521  21.932  1.00  0.00    -0.245 OA
HETATM    7  N3  UNL     1      63.172 -47.291  21.576  1.00  0.00    -0.249 N
ATOM      8  H3  UNL     1      63.918 -46.608  21.440  1.00  0.00     0.192 HD
HETATM    9  N4  UNL     1      63.549 -48.622  21.546  1.00  0.00    -0.269 N
ATOM     10  H4  UNL     1      64.502 -48.822  21.244  1.00  0.00     0.190 HD
HETATM   11  C3  UNL     1      62.737 -49.742  21.893  1.00  0.00     0.209 C
HETATM   12  N5  UNL     1      63.407 -50.977  22.102  1.00  0.00    -0.062 NA
HETATM   13  N6  UNL     1      61.458 -49.790  22.048  1.00  0.00    -0.303 N
ATOM     14  H6  UNL     1      61.108 -50.715  22.300  1.00  0.00     0.171 HD
ENDROOT
TORSDOF 0
ENDMDL