MODEL 3
REMARK VINA RESULT: -2.588411538      1.588      2.467
REMARK  2 active torsions:
REMARK  status: ('A' for Active; 'I' for Inactive)
REMARK    1  A    between atoms: C2_3  and  N2_4
REMARK    2  A    between atoms: C3_9  and  N4_10
ROOT
HETATM    1  C1  UNL     1      63.851 -49.018  19.959  1.00  0.00     0.180 C
HETATM    2  N1  UNL     1      62.624 -48.870  20.733  1.00  0.00    -0.136 N
HETATM    3  C2  UNL     1      61.651 -48.027  20.342  1.00  0.00     0.696 A
HETATM    4  N3  UNL     1      60.517 -47.885  21.051  1.00  0.00    -0.022 N
ATOM      5  H3  UNL     1      59.802 -47.235  20.723  1.00  0.00     0.203 HD
HETATM    6  C3  UNL     1      60.304 -48.581  22.183  1.00  0.00     0.694 A
HETATM    7  N5  UNL     1      61.280 -49.424  22.568  1.00  0.00    -0.140 N
ATOM      8  H5  UNL     1      61.153 -49.969  23.420  1.00  0.00     0.189 HD
HETATM    9  C4  UNL     1      62.417 -49.569  21.863  1.00  0.00     0.354 A
HETATM   10  O1  UNL     1      63.338 -50.359  22.220  1.00  0.00    -0.245 OA
ENDROOT
BRANCH   3  11
HETATM   11  N2  UNL     1      61.859 -47.361  19.258  1.00  0.00    -0.234 N
ATOM     12  H22 UNL     1      62.432 -47.735  18.501  1.00  0.00     0.174 HD
ATOM     13  H21 UNL     1      61.423 -46.441  19.191  1.00  0.00     0.174 HD
ENDBRANCH   3  11
BRANCH   6  14
HETATM   14  N4  UNL     1      59.206 -48.445  22.869  1.00  0.00    -0.234 N
ATOM     15  H42 UNL     1      58.350 -48.940  22.617  1.00  0.00     0.174 HD
ATOM     16  H41 UNL     1      59.159 -47.835  23.686  1.00  0.00     0.174 HD
ENDBRANCH   6  14
TORSDOF 2
ENDMDL