MODEL 2
REMARK VINA RESULT: -2.597305323      1.533      3.529
REMARK  1 active torsions:
REMARK  status: ('A' for Active; 'I' for Inactive)
REMARK    1  A    between atoms: N1_1  and  N2_4
REMARK       I    between atoms: N2_4  and  C1_6
REMARK       I    between atoms: C1_6  and  N3_8
ROOT
HETATM    1  N2  UNL     1      59.963 -48.733  22.762  1.00  0.00    -0.257 N
ATOM      2  H2  UNL     1      60.454 -49.360  23.399  1.00  0.00     0.191 HD
HETATM    3  C1  UNL     1      60.504 -48.409  21.504  1.00  0.00     0.349 C
HETATM    4  O1  UNL     1      59.931 -47.654  20.714  1.00  0.00    -0.244 OA
HETATM    5  N3  UNL     1      61.772 -48.990  21.145  1.00  0.00    -0.208 N
HETATM    6  C2  UNL     1      62.524 -49.822  21.876  1.00  0.00     0.214 A
HETATM    7  N4  UNL     1      63.633 -50.123  21.160  1.00  0.00    -0.291 N
ATOM      8  H4  UNL     1      64.385 -50.738  21.470  1.00  0.00     0.188 HD
HETATM    9  N5  UNL     1      63.592 -49.495  19.995  1.00  0.00    -0.250 N
ATOM     10  H5  UNL     1      64.288 -49.530  19.251  1.00  0.00     0.192 HD
HETATM   11  C3  UNL     1      62.451 -48.806  19.998  1.00  0.00     0.350 A
HETATM   12  O2  UNL     1      62.062 -48.078  19.047  1.00  0.00    -0.244 OA
ENDROOT
BRANCH   1  13
HETATM   13  N1  UNL     1      58.731 -48.171  23.114  1.00  0.00    -0.341 N
ATOM     14  H12 UNL     1      57.903 -48.361  22.549  1.00  0.00     0.177 HD
ATOM     15  H11 UNL     1      58.694 -47.574  23.941  1.00  0.00     0.177 HD
ENDBRANCH   1  13
TORSDOF 1
ENDMDL