MODEL 1
REMARK VINA RESULT: -0.518253204      0.000      0.000
REMARK  3 active torsions:
REMARK  status: ('A' for Active; 'I' for Inactive)
REMARK    1  A    between atoms: N1_2  and  C2_4
REMARK    2  A    between atoms: C3_7  and  N3_8
REMARK    3  A    between atoms: N4_13  and  N5_14
ROOT
HETATM    1  C2  UNL     1      62.699 -49.512  21.462  1.00  0.00     0.695 A
HETATM    2  N2  UNL     1      61.610 -49.486  22.255  1.00  0.00    -0.170 N
ATOM      3  H2  UNL     1      61.560 -50.106  23.064  1.00  0.00     0.186 HD
HETATM    4  C3  UNL     1      60.582 -48.649  21.991  1.00  0.00     0.186 A
HETATM    5  C4  UNL     1      60.662 -47.821  20.899  1.00  0.00     0.325 A
HETATM    6  O1  UNL     1      59.719 -47.044  20.645  1.00  0.00    -0.261 OA
HETATM    7  N4  UNL     1      61.756 -47.853  20.110  1.00  0.00    -0.146 N
HETATM    8  N6  UNL     1      62.740 -48.690  20.407  1.00  0.00    -0.108 N
ATOM      9  H6  UNL     1      63.563 -48.708  19.806  1.00  0.00     0.208 HD
ENDROOT
BRANCH   1  10
HETATM   10  N1  UNL     1      63.688 -50.304  21.698  1.00  0.00    -0.229 N
HETATM   11  C1  UNL     1      63.633 -51.295  22.749  1.00  0.00     0.165 C
ATOM     12  H1  UNL     1      64.531 -50.230  21.128  1.00  0.00     0.177 HD
ENDBRANCH   1  10
BRANCH   4  13
HETATM   13  N3  UNL     1      59.528 -48.630  22.765  1.00  0.00    -0.380 N
ATOM     14  H32 UNL     1      58.820 -49.361  22.696  1.00  0.00     0.157 HD
ATOM     15  H31 UNL     1      59.402 -47.883  23.448  1.00  0.00     0.157 HD
ENDBRANCH   4  13
BRANCH   7  16
HETATM   16  N5  UNL     1      61.855 -47.023  19.002  1.00  0.00    -0.320 N
ATOM     17  H52 UNL     1      61.867 -47.420  18.062  1.00  0.00     0.179 HD
ATOM     18  H51 UNL     1      61.918 -46.011  19.113  1.00  0.00     0.179 HD
ENDBRANCH   7  16
TORSDOF 3
ENDMDL