MODEL 2
REMARK VINA RESULT: -2.149707079      2.382      3.868
REMARK  1 active torsions:
REMARK  status: ('A' for Active; 'I' for Inactive)
REMARK    1  A    between atoms: N5_10  and  N6_11
ROOT
HETATM    1  N1  UNL     1      63.735 -49.775  19.617  1.00  0.00    -0.060 NA
HETATM    2  C1  UNL     1      62.732 -49.267  20.468  1.00  0.00     0.230 C
HETATM    3  N2  UNL     1      61.919 -48.370  20.020  1.00  0.00    -0.304 N
ATOM      4  H2  UNL     1      61.990 -48.023  19.064  1.00  0.00     0.171 HD
HETATM    5  C2  UNL     1      60.920 -47.882  20.909  1.00  0.00     0.191 C
HETATM    6  S1  UNL     1      59.867 -46.736  20.366  1.00  0.00    -0.039 SA
HETATM    7  N3  UNL     1      60.817 -48.361  22.244  1.00  0.00    -0.258 N
ATOM      8  H3  UNL     1      60.295 -47.843  22.951  1.00  0.00     0.186 HD
HETATM    9  N4  UNL     1      61.456 -49.566  22.552  1.00  0.00     0.005 NA
HETATM   10  N5  UNL     1      62.631 -49.751  21.812  1.00  0.00    -0.155 N
ENDROOT
BRANCH  10  11
HETATM   11  N6  UNL     1      63.728 -50.400  22.339  1.00  0.00    -0.323 N
ATOM     12  H62 UNL     1      63.736 -51.409  22.487  1.00  0.00     0.178 HD
ATOM     13  H61 UNL     1      64.541 -49.833  22.578  1.00  0.00     0.178 HD
ENDBRANCH  10  11
TORSDOF 1
ENDMDL