MODEL 4
REMARK VINA RESULT: -3.476806750      1.637      3.866
REMARK  2 active torsions:
REMARK  status: ('A' for Active; 'I' for Inactive)
REMARK    1  A    between atoms: N1_1  and  C1_4
REMARK    2  A    between atoms: N3_9  and  N4_10
ROOT
HETATM    1  C1  UNL     1      63.115 -49.178  20.257  1.00  0.00     0.684 A
HETATM    2  N2  UNL     1      63.159 -49.024  21.593  1.00  0.00    -0.140 N
ATOM      3  H2  UNL     1      63.931 -49.440  22.112  1.00  0.00     0.189 HD
HETATM    4  C2  UNL     1      62.216 -48.340  22.264  1.00  0.00     0.363 A
HETATM    5  O1  UNL     1      62.282 -48.213  23.514  1.00  0.00    -0.244 OA
HETATM    6  N3  UNL     1      61.174 -47.773  21.600  1.00  0.00    -0.159 N
HETATM    7  C3  UNL     1      61.121 -47.920  20.262  1.00  0.00     0.363 A
HETATM    8  O2  UNL     1      60.146 -47.387  19.667  1.00  0.00    -0.244 OA
HETATM    9  N5  UNL     1      62.077 -48.610  19.615  1.00  0.00    -0.140 N
ATOM     10  H5  UNL     1      62.013 -48.708  18.601  1.00  0.00     0.189 HD
ENDROOT
BRANCH   1  11
HETATM   11  N1  UNL     1      64.032 -49.843  19.608  1.00  0.00    -0.234 N
ATOM     12  H12 UNL     1      64.153 -49.732  18.602  1.00  0.00     0.174 HD
ATOM     13  H11 UNL     1      64.660 -50.494  20.078  1.00  0.00     0.174 HD
ENDBRANCH   1  11
BRANCH   6  14
HETATM   14  N4  UNL     1      60.185 -47.061  22.263  1.00  0.00    -0.330 N
ATOM     15  H42 UNL     1      59.361 -47.542  22.622  1.00  0.00     0.177 HD
ATOM     16  H41 UNL     1      60.253 -46.054  22.407  1.00  0.00     0.177 HD
ENDBRANCH   6  14
TORSDOF 2
ENDMDL