MODEL 5
REMARK VINA RESULT: -2.496585327      1.495      1.698
REMARK  2 active torsions:
REMARK  status: ('A' for Active; 'I' for Inactive)
REMARK    1  A    between atoms: C2_5  and  N3_6
REMARK    2  A    between atoms: C3_9  and  N4_10
ROOT
HETATM    1  C1  UNL     1      62.198 -50.993  19.582  1.00  0.00     0.183 C
HETATM    2  N1  UNL     1      62.044 -49.795  20.387  1.00  0.00    -0.245 N
HETATM    3  N2  UNL     1      60.967 -49.534  21.105  1.00  0.00    -0.277 N
ATOM      4  H2  UNL     1      60.202 -50.206  21.095  1.00  0.00     0.189 HD
HETATM    5  C2  UNL     1      60.834 -48.419  21.849  1.00  0.00     0.158 A
HETATM    6  C3  UNL     1      61.864 -47.503  21.870  1.00  0.00     0.148 A
HETATM    7  N5  UNL     1      62.974 -47.751  21.144  1.00  0.00    -0.290 N
ATOM      8  H5  UNL     1      63.751 -47.090  21.141  1.00  0.00     0.172 HD
HETATM    9  C4  UNL     1      63.036 -48.889  20.423  1.00  0.00     0.342 A
HETATM   10  O1  UNL     1      64.079 -49.130  19.737  1.00  0.00    -0.245 OA
ENDROOT
BRANCH   5  11
HETATM   11  N3  UNL     1      59.781 -48.182  22.538  1.00  0.00    -0.381 N
ATOM     12  H32 UNL     1      59.761 -47.359  23.140  1.00  0.00     0.157 HD
ATOM     13  H31 UNL     1      58.962 -48.790  22.505  1.00  0.00     0.157 HD
ENDBRANCH   5  11
BRANCH   6  14
HETATM   14  N4  UNL     1      61.721 -46.445  22.584  1.00  0.00    -0.382 N
ATOM     15  H42 UNL     1      60.836 -45.945  22.660  1.00  0.00     0.157 HD
ATOM     16  H41 UNL     1      62.532 -46.095  23.095  1.00  0.00     0.157 HD
ENDBRANCH   6  14
TORSDOF 2
ENDMDL