MODEL 1
REMARK VINA RESULT: -3.760874339      0.000      0.000
REMARK  2 active torsions:
REMARK  status: ('A' for Active; 'I' for Inactive)
REMARK    1  A    between atoms: N1_1  and  C1_4
REMARK    2  A    between atoms: N3_7  and  O1_8
ROOT
HETATM    1  C1  UNL     1      61.351 -47.157  21.932  1.00  0.00     0.729 A
HETATM    2  N2  UNL     1      60.165 -47.731  22.145  1.00  0.00    -0.088 N
ATOM      3  H2  UNL     1      59.399 -47.299  22.661  1.00  0.00     0.209 HD
HETATM    4  N3  UNL     1      60.115 -48.932  21.600  1.00  0.00     0.033 N
HETATM    5  C2  UNL     1      61.307 -49.158  21.006  1.00  0.00     0.765 A
HETATM    6  N4  UNL     1      62.058 -50.022  20.294  1.00  0.00    -0.134 N
ATOM      7  H4  UNL     1      61.754 -50.944  19.983  1.00  0.00     0.189 HD
HETATM    8  C3  UNL     1      63.268 -49.486  20.054  1.00  0.00     0.354 A
HETATM    9  O2  UNL     1      64.241 -50.009  19.410  1.00  0.00    -0.245 OA
HETATM   10  N5  UNL     1      63.241 -48.274  20.635  1.00  0.00    -0.214 N
ATOM     11  H5  UNL     1      64.017 -47.613  20.630  1.00  0.00     0.193 HD
HETATM   12  N6  UNL     1      62.071 -48.056  21.215  1.00  0.00     0.099 N
ENDROOT
BRANCH   1  13
HETATM   13  N1  UNL     1      61.767 -45.996  22.310  1.00  0.00    -0.231 N
ATOM     14  H12 UNL     1      61.180 -45.249  22.681  1.00  0.00     0.174 HD
ATOM     15  H11 UNL     1      62.717 -45.625  22.306  1.00  0.00     0.174 HD
ENDBRANCH   1  13
BRANCH   4  16
HETATM   16  O1  UNL     1      59.049 -49.819  21.616  1.00  0.00    -0.254 OA
ATOM     17  H1  UNL     1      58.980 -50.646  21.153  1.00  0.00     0.247 HD
ENDBRANCH   4  16
TORSDOF 2
ENDMDL