MODEL 3
REMARK VINA RESULT: -3.302657744      2.074      2.627
REMARK  1 active torsions:
REMARK  status: ('A' for Active; 'I' for Inactive)
REMARK    1  A    between atoms: N1_1  and  C1_4
ROOT
HETATM    1  C1  UNL     1      60.576 -48.437  21.793  1.00  0.00     0.135 A
HETATM    2  N2  UNL     1      60.337 -47.536  20.828  1.00  0.00    -0.293 N
ATOM      3  H2  UNL     1      59.499 -46.954  20.840  1.00  0.00     0.172 HD
HETATM    4  C2  UNL     1      61.255 -47.431  19.839  1.00  0.00     0.327 A
HETATM    5  O1  UNL     1      61.111 -46.607  18.888  1.00  0.00    -0.247 OA
HETATM    6  N3  UNL     1      62.360 -48.209  19.838  1.00  0.00    -0.292 N
ATOM      7  H3  UNL     1      63.028 -48.101  19.075  1.00  0.00     0.172 HD
HETATM    8  C3  UNL     1      62.623 -49.117  20.788  1.00  0.00     0.154 A
HETATM    9  N4  UNL     1      63.593 -49.998  21.048  1.00  0.00    -0.267 N
ATOM     10  H4  UNL     1      64.422 -50.146  20.474  1.00  0.00     0.186 HD
HETATM   11  N5  UNL     1      63.312 -50.648  22.166  1.00  0.00    -0.020 NA
HETATM   12  N6  UNL     1      62.161 -50.202  22.647  1.00  0.00    -0.277 N
ATOM     13  H6  UNL     1      61.701 -50.525  23.498  1.00  0.00     0.184 HD
HETATM   14  C4  UNL     1      61.705 -49.245  21.810  1.00  0.00     0.135 A
ENDROOT
BRANCH   1  15
HETATM   15  N1  UNL     1      59.696 -48.531  22.733  1.00  0.00    -0.383 N
ATOM     16  H12 UNL     1      58.712 -48.352  22.534  1.00  0.00     0.157 HD
ATOM     17  H11 UNL     1      60.037 -48.787  23.659  1.00  0.00     0.157 HD
ENDBRANCH   1  15
TORSDOF 1
ENDMDL