MODEL 3
REMARK VINA RESULT: -1.463529295      1.898      4.185
REMARK  3 active torsions:
REMARK  status: ('A' for Active; 'I' for Inactive)
REMARK    1  A    between atoms: C2_5  and  N3_6
REMARK    2  A    between atoms: C4_13  and  N5_14
REMARK    3  A    between atoms: N5_14  and  N6_16
ROOT
HETATM    1  C1  UNL     1      60.657 -46.803  19.633  1.00  0.00     0.180 C
HETATM    2  N1  UNL     1      61.422 -47.850  20.320  1.00  0.00    -0.261 N
HETATM    3  N2  UNL     1      62.396 -48.437  19.627  1.00  0.00    -0.129 N
ATOM      4  H2  UNL     1      62.557 -48.129  18.668  1.00  0.00     0.206 HD
HETATM    5  C2  UNL     1      63.181 -49.413  20.121  1.00  0.00     0.693 A
HETATM    6  N4  UNL     1      62.944 -49.794  21.386  1.00  0.00    -0.152 N
ATOM      7  H4  UNL     1      63.512 -50.529  21.805  1.00  0.00     0.188 HD
HETATM    8  C3  UNL     1      61.964 -49.218  22.110  1.00  0.00     0.306 A
HETATM    9  O1  UNL     1      61.731 -49.567  23.297  1.00  0.00    -0.263 OA
HETATM   10  C4  UNL     1      61.181 -48.222  21.567  1.00  0.00     0.206 A
ENDROOT
BRANCH  10  11
HETATM   11  N5  UNL     1      60.243 -47.657  22.234  1.00  0.00    -0.286 N
ATOM     12  H5  UNL     1      60.243 -46.647  22.378  1.00  0.00     0.188 HD
BRANCH  11  13
HETATM   13  N6  UNL     1      59.231 -48.442  22.752  1.00  0.00    -0.343 N
ATOM     14  H62 UNL     1      58.601 -48.056  23.454  1.00  0.00     0.176 HD
ATOM     15  H61 UNL     1      59.136 -49.401  22.418  1.00  0.00     0.176 HD
ENDBRANCH  11  13
ENDBRANCH  10  11
BRANCH   5  16
HETATM   16  N3  UNL     1      64.123 -49.959  19.411  1.00  0.00    -0.233 N
ATOM     17  H32 UNL     1      64.877 -50.493  19.843  1.00  0.00     0.174 HD
ATOM     18  H31 UNL     1      64.147 -49.876  18.394  1.00  0.00     0.174 HD
ENDBRANCH   5  16
TORSDOF 3
ENDMDL