MODEL 5
REMARK VINA RESULT: -3.865570314      4.406      5.759
REMARK  2 active torsions:
REMARK  status: ('A' for Active; 'I' for Inactive)
REMARK    1  A    between atoms: O1_1  and  C1_3
REMARK    2  A    between atoms: C7_10  and  O3_11
ROOT
HETATM    1  C1  UNL     1      16.171  14.096  23.844  1.00  0.00     0.151 C
HETATM    2  C2  UNL     1      15.092  13.182  23.343  1.00  0.00     0.066 C
HETATM    3  C3  UNL     1      14.651  12.161  24.348  1.00  0.00     0.124 C
HETATM    4  C4  UNL     1      13.445  12.624  25.132  1.00  0.00     0.034 C
HETATM    5  C5  UNL     1      14.089  13.348  26.292  1.00  0.00     0.037 C
HETATM    6  C6  UNL     1      15.546  13.106  26.067  1.00  0.00     0.153 C
HETATM    7  O2  UNL     1      15.657  11.949  25.296  1.00  0.00    -0.378 OA
HETATM    8  C7  UNL     1      16.243  14.211  25.326  1.00  0.00     0.175 C
ENDROOT
BRANCH   1   9
HETATM    9  O1  UNL     1      16.115  15.365  23.218  1.00  0.00    -0.393 OA
ATOM     10  H1  UNL     1      16.606  15.379  22.405  1.00  0.00     0.210 HD
ENDBRANCH   1   9
BRANCH   8  11
HETATM   11  O3  UNL     1      17.596  14.150  25.738  1.00  0.00    -0.390 OA
ATOM     12  H3  UNL     1      17.825  13.251  25.938  1.00  0.00     0.210 HD
ENDBRANCH   8  11
TORSDOF 2
ENDMDL