MODEL 1
REMARK VINA RESULT: -4.272567383      0.000      0.000
REMARK  2 active torsions:
REMARK  status: ('A' for Active; 'I' for Inactive)
REMARK    1  A    between atoms: O1_1  and  C1_3
REMARK    2  A    between atoms: C7_10  and  O2_11
ROOT
HETATM    1  C1  UNL     1      16.385  17.500  22.313  1.00  0.00     0.183 C
HETATM    2  C2  UNL     1      15.555  16.299  21.914  1.00  0.00     0.047 C
HETATM    3  C3  UNL     1      16.335  15.040  22.241  1.00  0.00     0.011 C
HETATM    4  C4  UNL     1      17.101  14.655  20.986  1.00  0.00     0.031 C
HETATM    5  C5  UNL     1      17.712  15.871  20.325  1.00  0.00     0.276 C
HETATM    6  N1  UNL     1      16.752  16.906  20.052  1.00  0.00     0.120 N
HETATM    7  C6  UNL     1      15.397  16.455  20.407  1.00  0.00     0.283 C
HETATM    8  C7  UNL     1      16.877  18.030  20.993  1.00  0.00     0.385 C
ENDROOT
BRANCH   1   9
HETATM    9  O1  UNL     1      15.533  18.442  22.912  1.00  0.00    -0.391 OA
ATOM     10  H1  UNL     1      16.070  19.121  23.303  1.00  0.00     0.210 HD
ENDBRANCH   1   9
BRANCH   8  11
HETATM   11  O2  UNL     1      18.158  18.531  21.037  1.00  0.00    -0.366 OA
ATOM     12  H2  UNL     1      18.255  19.376  20.615  1.00  0.00     0.212 HD
ENDBRANCH   8  11
TORSDOF 2
ENDMDL