MODEL 4
REMARK VINA RESULT: -3.654105135      7.398      8.500
REMARK  2 active torsions:
REMARK  status: ('A' for Active; 'I' for Inactive)
REMARK    1  A    between atoms: O1_1  and  C1_3
REMARK    2  A    between atoms: C6_9  and  O2_10
ROOT
HETATM    1  C1  UNL     1      13.974  11.768  28.823  1.00  0.00     0.182 C
HETATM    2  C2  UNL     1      12.760  11.843  27.925  1.00  0.00     0.307 C
HETATM    3  N1  UNL     1      12.544  13.239  27.618  1.00  0.00     0.094 N
HETATM    4  C3  UNL     1      12.808  13.540  26.215  1.00  0.00     0.272 C
HETATM    5  C4  UNL     1      14.280  13.563  25.913  1.00  0.00     0.033 C
HETATM    6  C5  UNL     1      15.093  12.739  26.894  1.00  0.00     0.044 C
HETATM    7  C6  UNL     1      14.721  13.008  28.308  1.00  0.00     0.112 C
HETATM    8  C7  UNL     1      13.544  13.991  28.373  1.00  0.00     0.312 C
ENDROOT
BRANCH   1   9
HETATM    9  O1  UNL     1      14.700  10.622  28.687  1.00  0.00    -0.391 OA
ATOM     10  H1  UNL     1      14.880  10.175  29.506  1.00  0.00     0.210 HD
ENDBRANCH   1   9
BRANCH   7  11
HETATM   11  O2  UNL     1      15.753  13.372  29.130  1.00  0.00    -0.385 OA
ATOM     12  H2  UNL     1      15.462  13.556  30.015  1.00  0.00     0.210 HD
ENDBRANCH   7  11
TORSDOF 2
ENDMDL