MODEL 4
REMARK VINA RESULT: -3.963758277      1.633      2.889
REMARK  2 active torsions:
REMARK  status: ('A' for Active; 'I' for Inactive)
REMARK    1  A    between atoms: O1_1  and  C1_3
REMARK    2  A    between atoms: C6_9  and  O3_10
ROOT
HETATM    1  C1  UNL     1      16.435  16.032  20.929  1.00  0.00     0.286 C
HETATM    2  O2  UNL     1      16.361  16.118  22.284  1.00  0.00    -0.353 OA
HETATM    3  C2  UNL     1      16.912  17.227  22.859  1.00  0.00     0.134 A
HETATM    4  C3  UNL     1      16.182  18.506  22.981  1.00  0.00     0.022 A
HETATM    5  C4  UNL     1      15.414  19.116  21.865  1.00  0.00     0.015 C
HETATM    6  C5  UNL     1      16.380  18.539  20.839  1.00  0.00     0.027 C
HETATM    7  C6  UNL     1      15.842  17.267  20.254  1.00  0.00     0.177 C
HETATM    8  C7  UNL     1      17.330  18.308  21.960  1.00  0.00     0.028 A
ENDROOT
BRANCH   1   9
HETATM    9  O1  UNL     1      17.672  15.699  20.420  1.00  0.00    -0.369 OA
ATOM     10  H1  UNL     1      18.336  16.377  20.480  1.00  0.00     0.212 HD
ENDBRANCH   1   9
BRANCH   7  11
HETATM   11  O3  UNL     1      16.016  17.187  18.884  1.00  0.00    -0.390 OA
ATOM     12  H3  UNL     1      15.513  17.868  18.452  1.00  0.00     0.210 HD
ENDBRANCH   7  11
TORSDOF 2
ENDMDL