MODEL 5
REMARK VINA RESULT: -3.660854803      1.315      2.975
REMARK  2 active torsions:
REMARK  status: ('A' for Active; 'I' for Inactive)
REMARK    1  A    between atoms: O1_1  and  C1_3
REMARK    2  A    between atoms: C7_10  and  O3_11
ROOT
HETATM    1  C1  UNL     1      16.603  18.489  21.159  1.00  0.00     0.149 C
HETATM    2  C2  UNL     1      16.297  17.705  19.942  1.00  0.00     0.034 C
HETATM    3  C3  UNL     1      17.206  16.538  19.685  1.00  0.00     0.005 C
HETATM    4  C4  UNL     1      16.939  15.370  20.615  1.00  0.00     0.035 C
HETATM    5  C5  UNL     1      16.958  15.869  22.004  1.00  0.00     0.153 A
HETATM    6  O2  UNL     1      16.083  15.536  22.982  1.00  0.00    -0.373 OA
HETATM    7  C6  UNL     1      15.597  16.549  22.230  1.00  0.00     0.182 A
HETATM    8  C7  UNL     1      15.886  17.983  22.412  1.00  0.00     0.178 C
ENDROOT
BRANCH   1   9
HETATM    9  O1  UNL     1      17.962  18.666  21.383  1.00  0.00    -0.393 OA
ATOM     10  H1  UNL     1      18.157  19.215  22.134  1.00  0.00     0.210 HD
ENDBRANCH   1   9
BRANCH   8  11
HETATM   11  O3  UNL     1      14.651  18.652  22.574  1.00  0.00    -0.390 OA
ATOM     12  H3  UNL     1      14.328  18.955  21.734  1.00  0.00     0.210 HD
ENDBRANCH   8  11
TORSDOF 2
ENDMDL