MODEL 3
REMARK VINA RESULT: -3.874581253      1.132      2.641
REMARK  2 active torsions:
REMARK  status: ('A' for Active; 'I' for Inactive)
REMARK    1  A    between atoms: O1_1  and  C1_3
REMARK    2  A    between atoms: C7_10  and  O2_11
ROOT
HETATM    1  C1  UNL     1      19.580  11.179  19.622  1.00  0.00     0.154 C
HETATM    2  C2  UNL     1      18.518  11.746  20.503  1.00  0.00     0.036 C
HETATM    3  C3  UNL     1      17.728  10.759  21.274  1.00  0.00     0.033 C
HETATM    4  C4  UNL     1      18.384  10.272  22.534  1.00  0.00     0.272 C
HETATM    5  N1  UNL     1      19.635   9.620  22.323  1.00  0.00     0.091 N
HETATM    6  C5  UNL     1      19.507   8.436  21.523  1.00  0.00     0.275 C
HETATM    7  C6  UNL     1      19.992   8.838  20.164  1.00  0.00     0.072 C
HETATM    8  C7  UNL     1      20.514  10.237  20.281  1.00  0.00     0.111 C
HETATM    9  C8  UNL     1      20.656  10.439  21.768  1.00  0.00     0.312 C
ENDROOT
BRANCH   1  10
HETATM   10  O1  UNL     1      19.063  10.572  18.463  1.00  0.00    -0.392 OA
ATOM     11  H1  UNL     1      18.317  10.013  18.640  1.00  0.00     0.210 HD
ENDBRANCH   1  10
BRANCH   8  12
HETATM   12  O2  UNL     1      21.758  10.323  19.633  1.00  0.00    -0.385 OA
ATOM     13  H2  UNL     1      22.279  10.985  20.074  1.00  0.00     0.210 HD
ENDBRANCH   8  12
TORSDOF 2
ENDMDL