MODEL 3
REMARK VINA RESULT: -3.709555709      3.807      5.152
REMARK  2 active torsions:
REMARK  status: ('A' for Active; 'I' for Inactive)
REMARK    1  A    between atoms: O1_1  and  C1_3
REMARK    2  A    between atoms: C7_10  and  O3_11
ROOT
HETATM    1  C1  UNL     1      15.839  13.623  25.179  1.00  0.00     0.171 C
HETATM    2  C2  UNL     1      15.483  12.133  25.287  1.00  0.00     0.202 C
HETATM    3  O2  UNL     1      16.427  11.516  24.432  1.00  0.00    -0.383 OA
HETATM    4  C3  UNL     1      15.990  11.683  23.155  1.00  0.00     0.128 C
HETATM    5  C4  UNL     1      17.147  11.702  22.166  1.00  0.00     0.033 C
HETATM    6  C5  UNL     1      16.812  13.149  21.873  1.00  0.00     0.012 C
HETATM    7  C6  UNL     1      15.578  13.033  22.750  1.00  0.00     0.046 C
HETATM    8  C7  UNL     1      15.415  14.055  23.802  1.00  0.00     0.155 C
ENDROOT
BRANCH   1   9
HETATM    9  O1  UNL     1      17.240  13.673  25.337  1.00  0.00    -0.391 OA
ATOM     10  H1  UNL     1      17.501  14.495  24.938  1.00  0.00     0.210 HD
ENDBRANCH   1   9
BRANCH   8  11
HETATM   11  O3  UNL     1      16.087  15.247  23.466  1.00  0.00    -0.392 OA
ATOM     12  H3  UNL     1      15.494  15.814  22.987  1.00  0.00     0.210 HD
ENDBRANCH   8  11
TORSDOF 2
ENDMDL