MODEL 3
REMARK VINA RESULT: -3.773940565      2.001      3.454
REMARK  2 active torsions:
REMARK  status: ('A' for Active; 'I' for Inactive)
REMARK    1  A    between atoms: O1_1  and  C1_3
REMARK    2  A    between atoms: C5_8  and  O2_9
ROOT
HETATM    1  C1  UNL     1      13.808  13.327  25.441  1.00  0.00     0.149 C
HETATM    2  C2  UNL     1      13.620  13.392  23.981  1.00  0.00     0.303 C
HETATM    3  N1  UNL     1      14.691  12.941  23.164  1.00  0.00     0.091 N
HETATM    4  C3  UNL     1      15.368  11.776  23.612  1.00  0.00     0.275 C
HETATM    5  C4  UNL     1      16.565  12.242  24.427  1.00  0.00     0.068 C
HETATM    6  C5  UNL     1      16.282  13.610  25.022  1.00  0.00     0.063 C
HETATM    7  C6  UNL     1      16.099  14.667  23.985  1.00  0.00     0.068 C
HETATM    8  C7  UNL     1      15.584  13.980  22.722  1.00  0.00     0.275 C
HETATM    9  C8  UNL     1      15.146  13.527  25.992  1.00  0.00     0.071 C
ENDROOT
BRANCH   1  10
HETATM   10  O1  UNL     1      12.923  14.274  26.021  1.00  0.00    -0.394 OA
ATOM     11  H1  UNL     1      12.318  13.792  26.573  1.00  0.00     0.210 HD
ENDBRANCH   1  10
BRANCH   6  12
HETATM   12  O2  UNL     1      17.424  13.940  25.771  1.00  0.00    -0.390 OA
ATOM     13  H2  UNL     1      17.830  13.111  25.997  1.00  0.00     0.210 HD
ENDBRANCH   6  12
TORSDOF 2
ENDMDL