MODEL 2
REMARK VINA RESULT: -3.574894178      1.644      2.563
REMARK  2 active torsions:
REMARK  status: ('A' for Active; 'I' for Inactive)
REMARK    1  A    between atoms: O1_1  and  C1_3
REMARK    2  A    between atoms: C7_10  and  O3_11
ROOT
HETATM    1  C1  UNL     1      15.041  13.299  25.233  1.00  0.00     0.153 C
HETATM    2  C2  UNL     1      14.233  12.997  23.992  1.00  0.00     0.021 C
HETATM    3  C3  UNL     1      14.663  11.659  23.374  1.00  0.00     0.033 C
HETATM    4  C4  UNL     1      16.029  11.723  22.793  1.00  0.00     0.168 C
HETATM    5  O2  UNL     1      16.791  12.785  23.126  1.00  0.00    -0.383 OA
HETATM    6  C5  UNL     1      16.210  13.981  23.321  1.00  0.00     0.153 C
HETATM    7  C6  UNL     1      14.732  14.041  22.979  1.00  0.00     0.042 C
HETATM    8  C7  UNL     1      16.141  14.238  24.834  1.00  0.00     0.176 C
ENDROOT
BRANCH   1   9
HETATM    9  O1  UNL     1      15.513  12.135  25.819  1.00  0.00    -0.393 OA
ATOM     10  H1  UNL     1      14.800  11.544  26.035  1.00  0.00     0.210 HD
ENDBRANCH   1   9
BRANCH   8  11
HETATM   11  O3  UNL     1      17.345  13.989  25.449  1.00  0.00    -0.390 OA
ATOM     12  H3  UNL     1      17.290  13.907  26.394  1.00  0.00     0.210 HD
ENDBRANCH   8  11
TORSDOF 2
ENDMDL