MODEL 5
REMARK VINA RESULT: -4.433231303      1.953      2.234
REMARK  3 active torsions:
REMARK  status: ('A' for Active; 'I' for Inactive)
REMARK    1  A    between atoms: N1_1  and  C1_5
REMARK    2  A    between atoms: C1_5  and  C2_6
REMARK    3  A    between atoms: C2_6  and  N2_7
ROOT
HETATM    1  N2  UNL     1      23.952 -16.109 -13.477  1.00  0.00    -0.365 N
HETATM    2  C3  UNL     1      23.198 -16.901 -12.685  1.00  0.00     0.090 A
HETATM    3  C4  UNL     1      23.410 -18.262 -12.639  1.00  0.00     0.017 A
HETATM    4  C5  UNL     1      24.412 -18.815 -13.418  1.00  0.00     0.003 A
HETATM    5  C6  UNL     1      25.175 -17.975 -14.227  1.00  0.00     0.017 A
HETATM    6  C7  UNL     1      24.930 -16.619 -14.243  1.00  0.00     0.090 A
ENDROOT
BRANCH   1   7
HETATM    7  C2  UNL     1      23.680 -14.699 -13.480  1.00  0.00     0.155 C
BRANCH   7   8
HETATM    8  C1  UNL     1      24.573 -13.938 -12.525  1.00  0.00     0.249 C
BRANCH   8   9
HETATM    9  N1  UNL     1      23.813 -13.718 -11.310  1.00  0.00    -0.078 N
ATOM     10  H13 UNL     1      23.177 -12.923 -11.375  1.00  0.00     0.274 HD
ATOM     11  H12 UNL     1      23.110 -14.436 -11.144  1.00  0.00     0.274 HD
ATOM     12  H11 UNL     1      24.484 -13.631 -10.547  1.00  0.00     0.274 HD
ENDBRANCH   8   9
ENDBRANCH   7   8
ENDBRANCH   1   7
TORSDOF 3
ENDMDL