MODEL 2
REMARK VINA RESULT: -4.566005349      1.028      1.165
REMARK  2 active torsions:
REMARK  status: ('A' for Active; 'I' for Inactive)
REMARK    1  A    between atoms: C2_3  and  C3_4
REMARK    2  A    between atoms: C3_4  and  N2_5
ROOT
HETATM    1  N1  UNL     1      24.220 -13.200 -11.742  1.00  0.00    -0.197 NA
HETATM    2  C1  UNL     1      24.352 -14.349 -11.808  1.00  0.00     0.060 C
HETATM    3  C2  UNL     1      24.536 -15.777 -11.904  1.00  0.00     0.145 C
ENDROOT
BRANCH   3   4
HETATM    4  C3  UNL     1      23.643 -16.334 -13.022  1.00  0.00     0.162 C
BRANCH   4   5
HETATM    5  N2  UNL     1      23.042 -17.567 -12.527  1.00  0.00    -0.303 N
HETATM    6  C4  UNL     1      23.511 -18.806 -12.796  1.00  0.00     0.111 A
HETATM    7  C5  UNL     1      22.718 -19.752 -12.181  1.00  0.00     0.037 A
HETATM    8  C6  UNL     1      21.744 -19.029 -11.523  1.00  0.00     0.108 A
HETATM    9  N3  UNL     1      21.995 -17.731 -11.771  1.00  0.00    -0.310 N
ATOM     10  H3  UNL     1      21.430 -16.964 -11.409  1.00  0.00     0.186 HD
ENDBRANCH   4   5
ENDBRANCH   3   4
TORSDOF 2
ENDMDL