MODEL 2
REMARK VINA RESULT: -4.763207524      1.814      2.789
REMARK  2 active torsions:
REMARK  status: ('A' for Active; 'I' for Inactive)
REMARK    1  A    between atoms: N2_4  and  C1_6
REMARK    2  A    between atoms: C1_6  and  N3_7
ROOT
HETATM    1  N3  UNL     1      24.854 -15.527 -13.663  1.00  0.00     0.106 N
HETATM    2  C2  UNL     1      26.082 -14.787 -13.459  1.00  0.00     0.274 C
HETATM    3  C3  UNL     1      27.208 -15.815 -13.407  1.00  0.00     0.030 C
HETATM    4  C4  UNL     1      27.165 -16.422 -12.023  1.00  0.00     0.003 C
HETATM    5  C5  UNL     1      25.724 -16.677 -11.673  1.00  0.00     0.030 C
HETATM    6  C6  UNL     1      24.823 -16.724 -12.886  1.00  0.00     0.274 C
ENDROOT
BRANCH   1   7
HETATM    7  C1  UNL     1      23.736 -14.641 -13.391  1.00  0.00     0.411 C
BRANCH   7   8
HETATM    8  N2  UNL     1      24.110 -13.632 -12.441  1.00  0.00    -0.316 N
HETATM    9  N1  UNL     1      23.717 -13.682 -11.257  1.00  0.00    -0.348 N
ATOM     10  H12 UNL     1      23.121 -14.460 -10.976  1.00  0.00     0.176 HD
ATOM     11  H11 UNL     1      23.983 -12.965 -10.583  1.00  0.00     0.176 HD
ATOM     12  H2  UNL     1      24.707 -12.860 -12.738  1.00  0.00     0.181 HD
ENDBRANCH   7   8
ENDBRANCH   1   7
TORSDOF 2
ENDMDL