MODEL 3
REMARK VINA RESULT: -5.457696326      1.464      1.584
REMARK  2 active torsions:
REMARK  status: ('A' for Active; 'I' for Inactive)
REMARK    1  A    between atoms: O1_1  and  N1_3
REMARK    2  A    between atoms: N1_3  and  C1_4
ROOT
HETATM    1  C1  UNL     1      24.363 -15.039 -12.470  1.00  0.00     0.109 C
HETATM    2  C2  UNL     1      25.900 -14.829 -13.072  1.00  0.00     0.050 C
HETATM    3  C3  UNL     1      26.280 -16.095 -12.567  1.00  0.00    -0.029 C
HETATM    4  C4  UNL     1      26.223 -16.982 -12.071  1.00  0.00    -0.031 C
HETATM    5  C5  UNL     1      25.700 -18.018 -11.294  1.00  0.00     0.027 C
HETATM    6  C6  UNL     1      24.206 -17.279 -11.197  1.00  0.00     0.005 C
HETATM    7  C7  UNL     1      24.465 -15.802 -11.193  1.00  0.00     0.024 C
ENDROOT
BRANCH   1   8
HETATM    8  N1  UNL     1      23.793 -13.730 -12.376  1.00  0.00    -0.099 NA
BRANCH   8   9
HETATM    9  O1  UNL     1      24.166 -13.245 -11.171  1.00  0.00    -0.296 OA
ATOM     10  H1  UNL     1      23.541 -13.588 -10.544  1.00  0.00     0.238 HD
ENDBRANCH   8   9
ENDBRANCH   1   8
TORSDOF 2
ENDMDL