MODEL 3
REMARK VINA RESULT: -4.453036696      1.693      1.965
REMARK  2 active torsions:
REMARK  status: ('A' for Active; 'I' for Inactive)
REMARK    1  A    between atoms: C3_3  and  C4_4
REMARK    2  A    between atoms: C4_4  and  N1_5
ROOT
HETATM    1  C1  UNL     1      21.308 -18.534 -11.368  1.00  0.00     0.096 C
HETATM    2  C2  UNL     1      22.325 -18.219 -11.971  1.00  0.00    -0.186 C
HETATM    3  C3  UNL     1      23.539 -17.874 -12.691  1.00  0.00     0.109 C
ENDROOT
BRANCH   3   4
HETATM    4  C4  UNL     1      24.598 -17.352 -11.732  1.00  0.00     0.285 C
BRANCH   4   5
HETATM    5  N1  UNL     1      24.880 -15.975 -11.936  1.00  0.00     0.116 N
HETATM    6  C5  UNL     1      24.496 -15.577 -13.266  1.00  0.00     0.302 C
HETATM    7  C6  UNL     1      23.669 -14.321 -13.104  1.00  0.00     0.264 C
HETATM    8  N2  UNL     1      23.798 -13.950 -11.709  1.00  0.00    -0.047 N
HETATM    9  C7  UNL     1      24.186 -15.148 -10.992  1.00  0.00     0.502 C
ATOM     10  H22 UNL     1      24.433 -13.167 -11.559  1.00  0.00     0.279 HD
ATOM     11  H21 UNL     1      22.959 -13.510 -11.331  1.00  0.00     0.279 HD
ENDBRANCH   4   5
ENDBRANCH   3   4
TORSDOF 2
ENDMDL