MODEL 3
REMARK VINA RESULT: -4.112065244      1.603      4.387
REMARK  2 active torsions:
REMARK  status: ('A' for Active; 'I' for Inactive)
REMARK    1  A    between atoms: C2_3  and  C3_4
REMARK    2  A    between atoms: C3_4  and  N2_5
ROOT
HETATM    1  N1  UNL     1      22.011 -18.493 -11.747  1.00  0.00    -0.197 NA
HETATM    2  C1  UNL     1      22.707 -17.703 -12.242  1.00  0.00     0.060 C
HETATM    3  C2  UNL     1      23.577 -16.722 -12.881  1.00  0.00     0.144 C
ENDROOT
BRANCH   3   4
HETATM    4  C3  UNL     1      24.328 -15.923 -11.809  1.00  0.00     0.143 C
BRANCH   4   5
HETATM    5  N2  UNL     1      25.109 -14.915 -12.506  1.00  0.00    -0.351 N
HETATM    6  C4  UNL     1      24.801 -13.592 -12.542  1.00  0.00     0.108 A
HETATM    7  C5  UNL     1      25.750 -12.922 -13.287  1.00  0.00     0.106 A
HETATM    8  N3  UNL     1      26.630 -13.852 -13.697  1.00  0.00    -0.361 N
HETATM    9  C6  UNL     1      26.228 -15.049 -13.217  1.00  0.00     0.182 A
ATOM     10  H3  UNL     1      27.456 -13.683 -14.271  1.00  0.00     0.166 HD
ENDBRANCH   4   5
ENDBRANCH   3   4
TORSDOF 2
ENDMDL