MODEL 5
REMARK VINA RESULT: -4.546299268      1.286      2.067
REMARK  2 active torsions:
REMARK  status: ('A' for Active; 'I' for Inactive)
REMARK    1  A    between atoms: N2_4  and  C2_5
REMARK    2  A    between atoms: C2_5  and  C3_6
ROOT
HETATM    1  C1  UNL     1      25.483 -13.045 -13.007  1.00  0.00     0.198 A
HETATM    2  N1  UNL     1      26.065 -14.255 -13.182  1.00  0.00    -0.293 N
ATOM      3  H1  UNL     1      26.982 -14.406 -13.602  1.00  0.00     0.188 HD
HETATM    4  N2  UNL     1      25.273 -15.216 -12.729  1.00  0.00    -0.286 N
HETATM    5  C6  UNL     1      24.179 -14.585 -12.267  1.00  0.00     0.201 A
HETATM    6  N3  UNL     1      24.297 -13.253 -12.432  1.00  0.00    -0.346 N
ATOM      7  H3  UNL     1      23.613 -12.544 -12.169  1.00  0.00     0.167 HD
ENDROOT
BRANCH   4   8
HETATM    8  C2  UNL     1      25.535 -16.654 -12.735  1.00  0.00     0.154 C
BRANCH   8   9
HETATM    9  C3  UNL     1      25.475 -17.248 -11.371  1.00  0.00     0.005 A
HETATM   10  C4  UNL     1      24.336 -18.104 -10.943  1.00  0.00     0.007 A
HETATM   11  C5  UNL     1      25.620 -18.747 -11.299  1.00  0.00     0.007 A
ENDBRANCH   8   9
ENDBRANCH   4   8
TORSDOF 2
ENDMDL