MODEL 4
REMARK VINA RESULT: -4.865506233      1.547      1.984
REMARK  1 active torsions:
REMARK  status: ('A' for Active; 'I' for Inactive)
REMARK    1  A    between atoms: N2_4  and  N3_6
ROOT
HETATM    1  N3  UNL     1      23.123 -15.469 -12.783  1.00  0.00    -0.269 N
ATOM      2  H3  UNL     1      22.302 -15.566 -13.382  1.00  0.00     0.190 HD
HETATM    3  C1  UNL     1      23.682 -16.549 -12.353  1.00  0.00     0.133 C
HETATM    4  C2  UNL     1      23.166 -17.902 -12.703  1.00  0.00     0.087 C
HETATM    5  C3  UNL     1      24.049 -18.852 -11.896  1.00  0.00     0.035 C
HETATM    6  C4  UNL     1      24.938 -17.971 -11.049  1.00  0.00     0.177 C
HETATM    7  O1  UNL     1      24.794 -16.655 -11.538  1.00  0.00    -0.338 OA
ENDROOT
BRANCH   1   8
HETATM    8  N2  UNL     1      23.554 -14.191 -12.492  1.00  0.00    -0.248 N
HETATM    9  N1  UNL     1      23.795 -13.874 -11.291  1.00  0.00    -0.331 N
ATOM     10  H12 UNL     1      23.666 -14.570 -10.555  1.00  0.00     0.178 HD
ATOM     11  H11 UNL     1      24.114 -12.930 -11.075  1.00  0.00     0.178 HD
ATOM     12  H2  UNL     1      23.678 -13.508 -13.240  1.00  0.00     0.207 HD
ENDBRANCH   1   8
TORSDOF 1
ENDMDL