MODEL 3
REMARK VINA RESULT: -4.402223859      1.902      2.851
REMARK  1 active torsions:
REMARK  status: ('A' for Active; 'I' for Inactive)
REMARK    1  A    between atoms: N2_4  and  C1_6
ROOT
HETATM    1  C1  UNL     1      24.316 -15.124 -13.226  1.00  0.00     0.044 A
HETATM    2  C2  UNL     1      24.219 -16.345 -13.695  1.00  0.00     0.045 A
HETATM    3  C3  UNL     1      25.453 -16.701 -14.385  1.00  0.00     0.085 A
HETATM    4  N3  UNL     1      26.280 -15.716 -14.337  1.00  0.00    -0.393 N
ATOM      5  H3  UNL     1      27.215 -15.703 -14.743  1.00  0.00     0.159 HD
HETATM    6  C4  UNL     1      25.666 -14.645 -13.618  1.00  0.00     0.177 A
ENDROOT
BRANCH   1   7
HETATM    7  N2  UNL     1      23.359 -14.369 -12.488  1.00  0.00    -0.310 N
HETATM    8  N1  UNL     1      23.682 -13.781 -11.418  1.00  0.00    -0.345 N
ATOM      9  H12 UNL     1      24.645 -13.858 -11.091  1.00  0.00     0.176 HD
ATOM     10  H11 UNL     1      22.997 -13.240 -10.890  1.00  0.00     0.176 HD
ATOM     11  H2  UNL     1      22.400 -14.302 -12.829  1.00  0.00     0.186 HD
ENDBRANCH   1   7
TORSDOF 1
ENDMDL