MODEL 3
REMARK VINA RESULT: -3.297346007      6.903      7.544
REMARK  0 active torsions:
REMARK  status: ('A' for Active; 'I' for Inactive)
ROOT
HETATM    1  C1  UNL     1      14.345  14.087  29.135  1.00  0.00     0.144 C
HETATM    2  C2  UNL     1      12.971  14.094  28.467  1.00  0.00     0.294 C
HETATM    3  N1  UNL     1      13.216  13.957  27.059  1.00  0.00     0.123 N
HETATM    4  C3  UNL     1      12.054  13.992  26.241  1.00  0.00     0.503 C
HETATM    5  N2  UNL     1      12.012  12.778  25.474  1.00  0.00    -0.047 N
ATOM      6  H21 UNL     1      12.057  12.940  24.467  1.00  0.00     0.279 HD
ATOM      7  H22 UNL     1      11.099  12.324  25.493  1.00  0.00     0.279 HD
HETATM    8  C4  UNL     1      13.074  11.931  25.957  1.00  0.00     0.271 C
HETATM    9  C5  UNL     1      14.039  12.864  26.691  1.00  0.00     0.267 C
HETATM   10  C6  UNL     1      14.680  12.116  27.792  1.00  0.00     0.151 C
HETATM   11  N3  UNL     1      15.014  12.848  28.955  1.00  0.00    -0.417 N
ATOM     12  H3  UNL     1      15.699  12.504  29.628  1.00  0.00     0.153 HD
ENDROOT
TORSDOF 0
ENDMDL