MODEL 4
REMARK VINA RESULT: -3.985963425      2.218      2.343
REMARK  2 active torsions:
REMARK  status: ('A' for Active; 'I' for Inactive)
REMARK    1  A    between atoms: N1_3  and  C3_5
REMARK    2  A    between atoms: C3_5  and  N2_7
ROOT
HETATM    1  C1  UNL     1      16.005  13.524  22.816  1.00  0.00     0.037 C
HETATM    2  C2  UNL     1      15.776  14.649  22.462  1.00  0.00     0.001 C
HETATM    3  N1  UNL     1      15.507  15.972  22.028  1.00  0.00    -0.292 N
ATOM      4  H1  UNL     1      14.613  16.407  22.256  1.00  0.00     0.178 HD
ENDROOT
BRANCH   3   5
HETATM    5  C3  UNL     1      16.456  16.686  21.288  1.00  0.00     0.192 C
HETATM    6  S1  UNL     1      17.410  15.959  20.196  1.00  0.00    -0.039 SA
BRANCH   5   7
HETATM    7  N2  UNL     1      16.595  18.073  21.491  1.00  0.00    -0.269 N
HETATM    8  C4  UNL     1      16.538  18.634  22.791  1.00  0.00     0.184 C
HETATM    9  N3  UNL     1      16.500  19.105  23.850  1.00  0.00    -0.172 NA
ATOM     10  H2  UNL     1      16.739  18.685  20.687  1.00  0.00     0.180 HD
ENDBRANCH   5   7
ENDBRANCH   3   5
TORSDOF 2
ENDMDL