MODEL 5
REMARK VINA RESULT: -3.435829975      8.157      9.037
REMARK  1 active torsions:
REMARK  status: ('A' for Active; 'I' for Inactive)
REMARK    1  A    between atoms: C3_3  and  O1_4
ROOT
HETATM    1  C1  UNL     1      11.580  13.819  26.105  1.00  0.00     0.030 C
HETATM    2  C2  UNL     1      12.899  13.949  26.785  1.00  0.00     0.102 C
HETATM    3  C3  UNL     1      13.993  13.195  26.014  1.00  0.00     0.157 C
HETATM    4  C4  UNL     1      14.695  12.545  27.199  1.00  0.00     0.125 C
HETATM    5  C5  UNL     1      15.186  13.581  28.150  1.00  0.00     0.041 C
HETATM    6  C6  UNL     1      13.901  13.951  28.905  1.00  0.00     0.112 C
HETATM    7  N1  UNL     1      12.857  13.302  28.093  1.00  0.00    -0.228 NA
HETATM    8  N2  UNL     1      13.498  12.045  27.900  1.00  0.00    -0.157 NA
ENDROOT
BRANCH   3   9
HETATM    9  O1  UNL     1      14.799  14.026  25.296  1.00  0.00    -0.392 OA
ATOM     10  H1  UNL     1      15.710  13.758  25.313  1.00  0.00     0.210 HD
ENDBRANCH   3   9
TORSDOF 1
ENDMDL