MODEL 3
REMARK VINA RESULT: -4.397264488      0.756      2.889
REMARK  3 active torsions:
REMARK  status: ('A' for Active; 'I' for Inactive)
REMARK    1  A    between atoms: O1_1  and  C1_3
REMARK    2  A    between atoms: C3_5  and  O2_6
REMARK    3  A    between atoms: C5_9  and  O3_10
ROOT
HETATM    1  C1  UNL     1      15.217  15.619  22.005  1.00  0.00     0.132 A
HETATM    2  C2  UNL     1      16.172  16.689  22.289  1.00  0.00     0.052 A
HETATM    3  C3  UNL     1      16.283  17.817  21.296  1.00  0.00     0.127 C
HETATM    4  C4  UNL     1      17.223  17.304  20.242  1.00  0.00     0.064 C
HETATM    5  C5  UNL     1      17.090  15.803  20.228  1.00  0.00     0.127 C
HETATM    6  C6  UNL     1      16.632  15.439  21.628  1.00  0.00     0.052 A
ENDROOT
BRANCH   1   7
HETATM    7  O1  UNL     1      14.698  14.785  22.980  1.00  0.00    -0.395 OA
ATOM      8  H1  UNL     1      14.163  14.024  22.785  1.00  0.00     0.210 HD
ENDBRANCH   1   7
BRANCH   3   9
HETATM    9  O2  UNL     1      16.826  18.972  21.878  1.00  0.00    -0.395 OA
ATOM     10  H2  UNL     1      17.214  18.791  22.726  1.00  0.00     0.210 HD
ENDBRANCH   3   9
BRANCH   5  11
HETATM   11  O3  UNL     1      18.328  15.260  19.927  1.00  0.00    -0.395 OA
ATOM     12  H3  UNL     1      18.929  15.479  20.629  1.00  0.00     0.210 HD
ENDBRANCH   5  11
TORSDOF 3
ENDMDL