MODEL 3
REMARK VINA RESULT: -3.185998897      1.480      1.936
REMARK  0 active torsions:
REMARK  status: ('A' for Active; 'I' for Inactive)
ROOT
HETATM    1  C1  UNL     1      16.344  12.980  22.497  1.00  0.00     0.259 C
HETATM    2  N1  UNL     1      16.680  12.096  23.583  1.00  0.00    -0.059 N
ATOM      3  H11 UNL     1      17.669  12.173  23.826  1.00  0.00     0.278 HD
ATOM      4  H12 UNL     1      16.660  11.122  23.283  1.00  0.00     0.278 HD
HETATM    5  C2  UNL     1      15.840  12.300  24.750  1.00  0.00     0.264 C
HETATM    6  C3  UNL     1      16.209  13.669  25.308  1.00  0.00     0.158 C
HETATM    7  N2  UNL     1      16.285  14.640  24.273  1.00  0.00    -0.412 N
ATOM      8  H2  UNL     1      16.733  15.545  24.406  1.00  0.00     0.153 HD
HETATM    9  C4  UNL     1      15.687  14.255  23.027  1.00  0.00     0.111 C
HETATM   10  C5  UNL     1      14.216  13.962  23.126  1.00  0.00     0.102 C
HETATM   11  S1  UNL     1      14.088  12.498  24.236  1.00  0.00    -0.133 SA
ENDROOT
TORSDOF 0
ENDMDL