MODEL 3
REMARK VINA RESULT: -3.413935914      5.225      6.760
REMARK  1 active torsions:
REMARK  status: ('A' for Active; 'I' for Inactive)
REMARK    1  A    between atoms: O1_1  and  C1_3
ROOT
HETATM    1  C1  UNL     1      14.795  12.664  28.046  1.00  0.00     0.154 C
HETATM    2  C2  UNL     1      13.316  12.746  28.469  1.00  0.00     0.064 C
HETATM    3  C3  UNL     1      12.565  12.950  27.137  1.00  0.00     0.278 C
HETATM    4  N1  UNL     1      13.554  13.686  26.440  1.00  0.00     0.122 N
HETATM    5  C4  UNL     1      13.496  13.739  25.032  1.00  0.00     0.503 C
HETATM    6  N2  UNL     1      14.908  13.971  24.678  1.00  0.00    -0.046 N
ATOM      7  H21 UNL     1      15.112  14.940  24.430  1.00  0.00     0.279 HD
ATOM      8  H22 UNL     1      15.179  13.557  23.787  1.00  0.00     0.279 HD
HETATM    9  C5  UNL     1      15.693  13.479  25.820  1.00  0.00     0.272 C
HETATM   10  C6  UNL     1      14.679  12.727  26.577  1.00  0.00     0.279 C
ENDROOT
BRANCH   1  11
HETATM   11  O1  UNL     1      15.517  13.734  28.515  1.00  0.00    -0.393 OA
ATOM     12  H1  UNL     1      16.449  13.551  28.526  1.00  0.00     0.210 HD
ENDBRANCH   1  11
TORSDOF 1
ENDMDL