MODEL 2
REMARK VINA RESULT: -3.558300792      1.315      3.033
REMARK  2 active torsions:
REMARK  status: ('A' for Active; 'I' for Inactive)
REMARK    1  A    between atoms: O1_1  and  N1_3
REMARK    2  A    between atoms: C4_7  and  O2_8
ROOT
HETATM    1  N1  UNL     1      13.950  11.168  28.690  1.00  0.00    -0.200 NA
HETATM    2  C1  UNL     1      12.643  11.076  28.168  1.00  0.00     0.120 C
HETATM    3  C2  UNL     1      11.860  12.347  28.140  1.00  0.00     0.019 C
HETATM    4  C3  UNL     1      12.447  13.366  27.163  1.00  0.00     0.033 C
HETATM    5  C4  UNL     1      13.461  14.218  27.832  1.00  0.00     0.119 C
HETATM    6  C5  UNL     1      14.628  13.494  28.403  1.00  0.00     0.048 C
HETATM    7  C6  UNL     1      14.284  12.392  29.349  1.00  0.00     0.123 C
ENDROOT
BRANCH   1   8
HETATM    8  O1  UNL     1      14.901  10.944  27.741  1.00  0.00    -0.313 OA
ATOM      9  H1  UNL     1      15.703  11.421  27.917  1.00  0.00     0.237 HD
ENDBRANCH   1   8
BRANCH   5  10
HETATM   10  O2  UNL     1      12.839  14.928  28.853  1.00  0.00    -0.396 OA
ATOM     11  H2  UNL     1      13.509  15.336  29.390  1.00  0.00     0.210 HD
ENDBRANCH   5  10
TORSDOF 2
ENDMDL