MODEL 2
REMARK VINA RESULT: -3.556209372      7.044      7.751
REMARK  0 active torsions:
REMARK  status: ('A' for Active; 'I' for Inactive)
ROOT
HETATM    1  C1  UNL     1      17.012  14.292  21.345  1.00  0.00     0.054 C
HETATM    2  C2  UNL     1      16.586  15.414  21.544  1.00  0.00     0.177 C
HETATM    3  N1  UNL     1      16.086  16.673  21.778  1.00  0.00     0.114 N
HETATM    4  O1  UNL     1      14.748  16.751  21.725  1.00  0.00    -0.049 OA
HETATM    5  C3  UNL     1      16.606  17.272  23.012  1.00  0.00     0.359 C
HETATM    6  C4  UNL     1      16.347  18.750  22.683  1.00  0.00     0.209 C
HETATM    7  O2  UNL     1      16.605  18.847  21.337  1.00  0.00    -0.350 OA
HETATM    8  C5  UNL     1      16.654  17.578  20.803  1.00  0.00     0.404 C
HETATM    9  C6  UNL     1      15.938  17.488  19.471  1.00  0.00     0.082 C
ENDROOT
TORSDOF 0
ENDMDL