MODEL 3
REMARK VINA RESULT: -3.538538342      9.080      9.881
REMARK  2 active torsions:
REMARK  status: ('A' for Active; 'I' for Inactive)
REMARK    1  A    between atoms: O1_1  and  C1_3
REMARK    2  A    between atoms: C6_9  and  O2_10
ROOT
HETATM    1  C1  UNL     1      14.210  11.838  27.435  1.00  0.00     0.363 C
HETATM    2  C2  UNL     1      15.261  12.950  27.271  1.00  0.00     0.077 C
HETATM    3  C3  UNL     1      14.738  13.599  26.018  1.00  0.00     0.042 C
HETATM    4  C4  UNL     1      13.243  13.640  26.325  1.00  0.00     0.276 C
HETATM    5  N1  UNL     1      13.031  12.725  27.436  1.00  0.00     0.120 N
HETATM    6  C5  UNL     1      13.388  13.510  28.633  1.00  0.00     0.307 C
HETATM    7  C6  UNL     1      14.885  13.804  28.461  1.00  0.00     0.155 C
ENDROOT
BRANCH   1   8
HETATM    8  O1  UNL     1      14.378  11.322  28.695  1.00  0.00    -0.367 OA
ATOM      9  H1  UNL     1      15.315  11.251  28.837  1.00  0.00     0.212 HD
ENDBRANCH   1   8
BRANCH   7  10
HETATM   10  O2  UNL     1      15.586  13.311  29.562  1.00  0.00    -0.393 OA
ATOM     11  H2  UNL     1      15.313  13.816  30.319  1.00  0.00     0.210 HD
ENDBRANCH   7  10
TORSDOF 2
ENDMDL