MODEL 4
REMARK VINA RESULT: -3.363933884      1.443      2.167
REMARK  2 active torsions:
REMARK  status: ('A' for Active; 'I' for Inactive)
REMARK    1  A    between atoms: O1_1  and  C1_3
REMARK    2  A    between atoms: C6_9  and  O2_10
ROOT
HETATM    1  C1  UNL     1      14.433  12.755  28.821  1.00  0.00     0.174 C
HETATM    2  C2  UNL     1      13.594  13.882  28.272  1.00  0.00     0.271 C
HETATM    3  N1  UNL     1      12.902  13.257  27.170  1.00  0.00    -0.059 N
HETATM    4  C3  UNL     1      11.894  13.964  26.440  1.00  0.00     0.265 A
HETATM    5  C4  UNL     1      11.554  12.788  27.321  1.00  0.00     0.265 A
HETATM    6  C5  UNL     1      13.869  12.448  26.495  1.00  0.00     0.271 C
HETATM    7  C6  UNL     1      14.907  12.101  27.519  1.00  0.00     0.174 C
ENDROOT
BRANCH   1   8
HETATM    8  O1  UNL     1      15.504  13.283  29.540  1.00  0.00    -0.391 OA
ATOM      9  H1  UNL     1      15.645  12.763  30.322  1.00  0.00     0.210 HD
ENDBRANCH   1   8
BRANCH   7  10
HETATM   10  O2  UNL     1      15.047  10.744  27.732  1.00  0.00    -0.391 OA
ATOM     11  H2  UNL     1      15.182  10.317  26.894  1.00  0.00     0.210 HD
ENDBRANCH   7  10
TORSDOF 2
ENDMDL