MODEL 2
REMARK VINA RESULT: -9.042432474      2.033      3.630
REMARK  6 active torsions:
REMARK  status: ('A' for Active; 'I' for Inactive)
REMARK    1  A    between atoms: C4_4  and  C5_5
REMARK    2  A    between atoms: C5_5  and  C7_7
REMARK    3  A    between atoms: C7_7  and  C8_8
REMARK    4  A    between atoms: C8_8  and  C9_9
REMARK    5  A    between atoms: C10_10  and  C11_11
REMARK    6  A    between atoms: C12_14  and  C13_15
ROOT
HETATM    1  C9  UNL     1      31.614   0.910  33.699  1.00  0.00     0.089 C
HETATM    2  C10 UNL     1      32.038   1.810  32.805  1.00  0.00     0.097 C
HETATM    3  O1  UNL     1      33.136   1.297  32.054  1.00  0.00    -0.338 OA
HETATM    4  C12 UNL     1      32.839  -0.105  31.937  1.00  0.00     0.209 C
HETATM    5  C22 UNL     1      32.516  -0.251  33.432  1.00  0.00     0.199 C
HETATM    6  O2  UNL     1      32.906  -1.111  34.212  1.00  0.00    -0.289 OA
ENDROOT
BRANCH   4   7
HETATM    7  C13 UNL     1      34.082  -0.836  31.676  1.00  0.00     0.039 C
HETATM    8  C14 UNL     1      34.988  -0.356  30.576  1.00  0.00    -0.036 C
HETATM    9  C15 UNL     1      36.166   0.478  31.031  1.00  0.00     0.015 C
HETATM   10  C16 UNL     1      34.247   0.181  29.395  1.00  0.00     0.010 C
HETATM   11  C21 UNL     1      35.340  -1.823  30.347  1.00  0.00     0.019 C
HETATM   12  C17 UNL     1      33.429  -0.904  28.725  1.00  0.00     0.002 C
HETATM   13  C18 UNL     1      32.975  -1.963  29.704  1.00  0.00     0.010 C
HETATM   14  C19 UNL     1      33.940  -2.107  30.845  1.00  0.00    -0.036 C
HETATM   15  C20 UNL     1      33.762  -3.327  31.696  1.00  0.00     0.015 C
ENDBRANCH   4   7
BRANCH   2  16
HETATM   16  C11 UNL     1      31.488   3.161  32.580  1.00  0.00     0.288 C
HETATM   17  F1  UNL     1      30.685   3.123  31.414  1.00  0.00    -0.248 F
ENDBRANCH   2  16
BRANCH   1  18
HETATM   18  C8  UNL     1      30.536   1.019  34.653  1.00  0.00    -0.110 C
BRANCH  18  19
HETATM   19  C7  UNL     1      29.628   1.110  35.455  1.00  0.00     0.063 C
BRANCH  19  20
HETATM   20  C5  UNL     1      28.156   1.277  35.364  1.00  0.00    -0.054 C
HETATM   21  C6  UNL     1      27.276   0.695  36.370  1.00  0.00     0.049 C
BRANCH  20  22
HETATM   22  C4  UNL     1      27.665   1.125  33.994  1.00  0.00     0.009 C
HETATM   23  C2  UNL     1      27.500   1.945  33.002  1.00  0.00    -0.087 C
HETATM   24  C1  UNL     1      26.952   1.410  31.677  1.00  0.00     0.043 C
HETATM   25  C3  UNL     1      27.759   3.382  33.027  1.00  0.00     0.043 C
ENDBRANCH  20  22
ENDBRANCH  19  20
ENDBRANCH  18  19
ENDBRANCH   1  18
TORSDOF 6
ENDMDL