MODEL 4
REMARK VINA RESULT: -8.893476797      1.104      1.584
REMARK  4 active torsions:
REMARK  status: ('A' for Active; 'I' for Inactive)
REMARK    1  A    between atoms: C2_2  and  C3_3
REMARK    2  A    between atoms: C3_3  and  S1_4
REMARK    3  A    between atoms: S1_4  and  C4_5
REMARK    4  A    between atoms: C17_18  and  C18_19
ROOT
HETATM    1  C4  UNL     1      28.555   1.353  32.005  1.00  0.00     0.052 C
HETATM    2  C5  UNL     1      28.769   2.027  30.665  1.00  0.00     0.016 C
HETATM    3  C6  UNL     1      29.846   1.185  29.956  1.00  0.00     0.009 C
HETATM    4  C7  UNL     1      30.161   0.107  30.927  1.00  0.00     0.031 C
HETATM    5  C8  UNL     1      29.969   0.862  32.250  1.00  0.00     0.006 C
HETATM    6  C9  UNL     1      30.132  -0.111  33.347  1.00  0.00     0.007 C
HETATM    7  C10 UNL     1      31.598  -0.481  33.415  1.00  0.00     0.009 C
HETATM    8  C11 UNL     1      32.325  -0.150  32.105  1.00  0.00     0.031 C
HETATM    9  C12 UNL     1      33.689  -0.723  32.125  1.00  0.00     0.008 C
HETATM   10  C13 UNL     1      34.709   0.348  32.542  1.00  0.00     0.007 C
HETATM   11  C14 UNL     1      35.452   0.564  31.239  1.00  0.00     0.006 C
HETATM   12  C15 UNL     1      35.621  -0.863  30.767  1.00  0.00    -0.003 C
HETATM   13  C16 UNL     1      36.526  -1.644  31.684  1.00  0.00     0.011 C
HETATM   14  C17 UNL     1      34.177  -1.371  30.901  1.00  0.00     0.020 C
HETATM   15  C19 UNL     1      33.465  -1.130  29.640  1.00  0.00     0.020 C
HETATM   16  C20 UNL     1      32.320  -0.179  29.690  1.00  0.00     0.045 C
HETATM   17  C21 UNL     1      31.494  -0.501  30.896  1.00  0.00     0.111 C
HETATM   18  F1  UNL     1      31.350  -1.896  30.922  1.00  0.00    -0.242 F
ENDROOT
BRANCH   1  19
HETATM   19  S1  UNL     1      27.992   2.435  33.305  1.00  0.00    -0.160 SA
BRANCH  19  20
HETATM   20  C3  UNL     1      29.262   3.013  34.418  1.00  0.00     0.100 C
BRANCH  20  21
HETATM   21  C2  UNL     1      29.292   2.284  35.693  1.00  0.00    -0.027 C
HETATM   22  C1  UNL     1      28.451   1.315  35.989  1.00  0.00     0.007 C
ENDBRANCH  20  21
ENDBRANCH  19  20
ENDBRANCH   1  19
BRANCH  14  23
HETATM   23  C18 UNL     1      34.321  -2.864  31.091  1.00  0.00     0.241 C
HETATM   24  O1  UNL     1      33.610  -3.494  31.838  1.00  0.00    -0.306 OA
ENDBRANCH  14  23
TORSDOF 4
ENDMDL