MODEL 1
REMARK VINA RESULT: -9.078023296      0.000      0.000
REMARK  3 active torsions:
REMARK  status: ('A' for Active; 'I' for Inactive)
REMARK    1  A    between atoms: O1_2  and  C2_3
REMARK    2  A    between atoms: C2_3  and  C3_4
REMARK    3  A    between atoms: C3_4  and  N1_5
ROOT
HETATM    1  N1  UNL     1      32.658  -2.133  32.404  1.00  0.00    -0.391 N
HETATM    2  C4  UNL     1      31.570  -2.135  31.500  1.00  0.00     0.122 C
HETATM    3  C5  UNL     1      30.654  -0.995  31.820  1.00  0.00     0.029 C
HETATM    4  C6  UNL     1      31.313   0.345  31.683  1.00  0.00    -0.035 C
HETATM    5  C7  UNL     1      31.621   0.589  30.232  1.00  0.00     0.010 C
HETATM    6  C8  UNL     1      30.423   0.587  29.342  1.00  0.00     0.001 C
HETATM    7  C9  UNL     1      30.272   1.916  28.588  1.00  0.00     0.000 C
HETATM    8  C10 UNL     1      29.222   2.796  29.282  1.00  0.00     0.001 C
HETATM    9  C11 UNL     1      29.832   3.886  30.064  1.00  0.00     0.016 C
HETATM   10  C12 UNL     1      29.754   3.731  31.565  1.00  0.00     0.008 C
HETATM   11  C13 UNL     1      30.142   5.083  32.096  1.00  0.00    -0.012 C
HETATM   12  C14 UNL     1      29.559   5.683  33.108  1.00  0.00    -0.087 C
HETATM   13  C15 UNL     1      30.027   7.046  33.564  1.00  0.00     0.043 C
HETATM   14  C16 UNL     1      28.422   5.092  33.866  1.00  0.00     0.036 C
HETATM   15  C17 UNL     1      28.385   3.610  33.579  1.00  0.00     0.042 C
HETATM   16  C18 UNL     1      28.367   3.476  32.055  1.00  0.00     0.182 C
HETATM   17  F1  UNL     1      27.567   4.520  31.602  1.00  0.00    -0.248 F
HETATM   18  C19 UNL     1      30.777   2.765  32.098  1.00  0.00     0.017 C
HETATM   19  C20 UNL     1      30.325   1.366  32.239  1.00  0.00     0.011 C
HETATM   20  C21 UNL     1      32.593   0.327  32.458  1.00  0.00     0.054 C
HETATM   21  C22 UNL     1      32.830  -0.977  33.189  1.00  0.00     0.059 C
ENDROOT
BRANCH   1  22
HETATM   22  C3  UNL     1      33.826  -2.813  31.975  1.00  0.00     0.148 C
BRANCH  22  23
HETATM   23  C2  UNL     1      34.627  -2.156  30.926  1.00  0.00     0.186 C
BRANCH  23  24
HETATM   24  O1  UNL     1      35.900  -1.879  31.361  1.00  0.00    -0.394 OA
HETATM   25  C1  UNL     1      36.083  -0.526  31.580  1.00  0.00     0.201 C
ENDBRANCH  23  24
ENDBRANCH  22  23
ENDBRANCH   1  22
TORSDOF 3
ENDMDL