MODEL 3
REMARK VINA RESULT: -9.128440129      1.664      3.362
REMARK  5 active torsions:
REMARK  status: ('A' for Active; 'I' for Inactive)
REMARK    1  A    between atoms: C4_5  and  C6_7
REMARK    2  A    between atoms: C6_7  and  C7_8
REMARK    3  A    between atoms: C7_8  and  N2_9
REMARK    4  A    between atoms: N2_9  and  C8_10
REMARK    5  A    between atoms: N2_9  and  C14_16
ROOT
HETATM    1  C7  UNL     1      30.935   1.127  31.599  1.00  0.00     0.275 C
ENDROOT
BRANCH   1   2
HETATM    2  C6  UNL     1      31.363   0.003  30.791  1.00  0.00     0.041 C
BRANCH   2   3
HETATM    3  C4  UNL     1      32.774   0.121  30.195  1.00  0.00    -0.018 C
HETATM    4  C3  UNL     1      33.447   1.160  31.114  1.00  0.00     0.030 C
HETATM    5  C2  UNL     1      34.271   0.475  32.191  1.00  0.00     0.117 C
HETATM    6  N1  UNL     1      35.370  -0.132  31.545  1.00  0.00    -0.415 N
HETATM    7  C1  UNL     1      36.413  -0.670  32.304  1.00  0.00     0.143 C
HETATM    8  C20 UNL     1      35.053  -0.695  30.295  1.00  0.00     0.142 C
HETATM    9  C18 UNL     1      33.575  -1.082  30.124  1.00  0.00     0.056 C
HETATM   10  C19 UNL     1      33.553  -1.800  28.774  1.00  0.00     0.035 C
HETATM   11 CL1  UNL     1      33.280  -2.303  31.369  1.00  0.00    -0.117 Cl
HETATM   12  C5  UNL     1      32.690   0.830  28.861  1.00  0.00     0.017 C
ENDBRANCH   2   3
ENDBRANCH   1   2
BRANCH   1  13
HETATM   13  N2  UNL     1      29.605   1.644  31.642  1.00  0.00     0.101 N
BRANCH  13  14
HETATM   14  C8  UNL     1      29.307   1.574  33.049  1.00  0.00     0.224 C
HETATM   15  C9  UNL     1      28.523   0.585  33.704  1.00  0.00     0.036 C
HETATM   16  C10 UNL     1      28.041   1.202  35.063  1.00  0.00     0.002 C
HETATM   17  C11 UNL     1      29.129   1.955  35.742  1.00  0.00     0.000 C
HETATM   18  C12 UNL     1      30.413   1.279  35.305  1.00  0.00     0.002 C
HETATM   19  C13 UNL     1      30.659   1.538  33.821  1.00  0.00     0.036 C
ENDBRANCH  13  14
BRANCH  13  20
HETATM   20  C14 UNL     1      29.307   2.820  30.938  1.00  0.00     0.149 C
HETATM   21  C15 UNL     1      28.095   3.580  31.434  1.00  0.00     0.048 C
HETATM   22  C16 UNL     1      30.414   3.832  31.180  1.00  0.00     0.048 C
HETATM   23  C17 UNL     1      29.087   2.685  29.453  1.00  0.00     0.048 C
ENDBRANCH  13  20
ENDBRANCH   1  13
TORSDOF 5
ENDMDL