MODEL 1
REMARK VINA RESULT: -8.711446811      0.000      0.000
REMARK  5 active torsions:
REMARK  status: ('A' for Active; 'I' for Inactive)
REMARK    1  A    between atoms: C11_12  and  C12_13
REMARK    2  A    between atoms: C12_13  and  C13_14
REMARK    3  A    between atoms: C13_14  and  C14_15
REMARK    4  A    between atoms: C18_19  and  O2_20
REMARK    5  A    between atoms: O2_20  and  C19_21
ROOT
HETATM    1  C1  UNL     1      33.740  -2.543  30.809  1.00  0.00     0.016 C
HETATM    2  C2  UNL     1      33.170  -1.360  30.829  1.00  0.00    -0.062 C
HETATM    3  C3  UNL     1      32.260  -0.853  31.897  1.00  0.00     0.077 C
HETATM    4  C4  UNL     1      31.338  -0.002  31.127  1.00  0.00    -0.009 C
HETATM    5  C5  UNL     1      31.914   0.350  29.968  1.00  0.00     0.020 C
HETATM    6  C6  UNL     1      31.471   1.174  28.842  1.00  0.00     0.162 C
HETATM    7  O1  UNL     1      31.872   0.651  27.752  1.00  0.00    -0.292 OA
HETATM    8  C7  UNL     1      30.710   2.410  28.632  1.00  0.00     0.117 C
HETATM    9  C8  UNL     1      29.343   2.421  29.166  1.00  0.00    -0.076 C
HETATM   10  C9  UNL     1      28.380   3.240  28.319  1.00  0.00     0.044 C
HETATM   11  C10 UNL     1      28.724   1.897  30.205  1.00  0.00     0.012 C
HETATM   12  C11 UNL     1      29.049   1.046  31.358  1.00  0.00    -0.024 C
HETATM   13  C18 UNL     1      30.051   0.295  31.738  1.00  0.00     0.082 C
HETATM   14  C21 UNL     1      33.268  -0.266  29.858  1.00  0.00     0.148 C
HETATM   15 CL1  UNL     1      34.456   0.960  30.274  1.00  0.00    -0.115 Cl
ENDROOT
BRANCH  12  16
HETATM   16  C12 UNL     1      28.007   1.162  32.389  1.00  0.00     0.042 C
BRANCH  16  17
HETATM   17  C13 UNL     1      27.427   2.588  32.191  1.00  0.00     0.014 C
BRANCH  17  18
HETATM   18  C14 UNL     1      28.127   3.560  33.109  1.00  0.00    -0.044 A
HETATM   19  C15 UNL     1      28.740   2.936  34.330  1.00  0.00     0.015 C
HETATM   20  C16 UNL     1      27.778   4.997  33.089  1.00  0.00     0.010 A
HETATM   21  C17 UNL     1      29.014   4.568  32.390  1.00  0.00     0.010 A
ENDBRANCH  17  18
ENDBRANCH  16  17
ENDBRANCH  12  16
BRANCH  13  22
HETATM   22  O2  UNL     1      29.800  -0.319  32.931  1.00  0.00    -0.350 OA
BRANCH  22  23
HETATM   23  C19 UNL     1      30.666   0.098  34.013  1.00  0.00     0.171 C
HETATM   24  C20 UNL     1      30.091  -0.199  35.359  1.00  0.00     0.034 C
ENDBRANCH  22  23
ENDBRANCH  13  22
TORSDOF 5
ENDMDL