MODEL 5
REMARK VINA RESULT: -8.542933624      2.959      5.674
REMARK  4 active torsions:
REMARK  status: ('A' for Active; 'I' for Inactive)
REMARK    1  A    between atoms: C2_2  and  C3_3
REMARK    2  A    between atoms: C14_14  and  C16_16
REMARK    3  A    between atoms: C17_17  and  C18_18
REMARK    4  A    between atoms: C18_18  and  C19_20
ROOT
HETATM    1  C3  UNL     1      33.082   0.574  32.229  1.00  0.00     0.007 C
HETATM    2  C4  UNL     1      34.166  -0.255  32.859  1.00  0.00     0.025 C
HETATM    3  C5  UNL     1      32.922   1.927  32.835  1.00  0.00     0.019 C
HETATM    4  C6  UNL     1      31.449   2.312  32.699  1.00  0.00     0.008 C
HETATM    5  C7  UNL     1      30.674   1.539  33.744  1.00  0.00     0.011 C
HETATM    6  C8  UNL     1      30.787   0.083  33.398  1.00  0.00    -0.004 C
HETATM    7  C9  UNL     1      31.323  -0.709  34.602  1.00  0.00     0.021 C
HETATM    8  C10 UNL     1      29.496  -0.557  33.013  1.00  0.00     0.015 C
HETATM    9  C11 UNL     1      28.716   0.355  32.135  1.00  0.00     0.006 C
HETATM   10  C12 UNL     1      28.306   1.578  32.895  1.00  0.00    -0.006 C
HETATM   11  C13 UNL     1      26.937   1.305  33.500  1.00  0.00     0.011 C
HETATM   12  C14 UNL     1      29.273   2.020  33.943  1.00  0.00    -0.018 C
HETATM   13  C15 UNL     1      28.815   1.596  35.344  1.00  0.00     0.020 C
HETATM   14  C20 UNL     1      31.779  -0.147  32.304  1.00  0.00     0.008 C
HETATM   15  S1  UNL     1      31.537  -1.094  31.230  1.00  0.00    -0.088 SA
ENDROOT
BRANCH  12  16
HETATM   16  C16 UNL     1      29.303   3.502  33.973  1.00  0.00    -0.013 C
HETATM   17  C17 UNL     1      28.980   4.296  32.976  1.00  0.00     0.048 C
BRANCH  17  18
HETATM   18  C18 UNL     1      29.059   5.741  33.155  1.00  0.00     0.162 C
HETATM   19  O1  UNL     1      28.007   6.393  33.361  1.00  0.00    -0.292 OA
BRANCH  18  20
HETATM   20  C19 UNL     1      30.343   6.479  33.105  1.00  0.00     0.197 C
HETATM   21 CL1  UNL     1      31.541   5.647  32.099  1.00  0.00    -0.122 Cl
ENDBRANCH  18  20
ENDBRANCH  17  18
ENDBRANCH  12  16
BRANCH   1  22
HETATM   22  C2  UNL     1      33.476   0.781  30.787  1.00  0.00    -0.022 C
HETATM   23  C1  UNL     1      34.736   0.878  30.427  1.00  0.00     0.008 C
ENDBRANCH   1  22
TORSDOF 4
ENDMDL