MODEL 5
REMARK VINA RESULT: -7.533022886      2.617      3.762
REMARK  5 active torsions:
REMARK  status: ('A' for Active; 'I' for Inactive)
REMARK    1  A    between atoms: C2_2  and  O1_3
REMARK    2  A    between atoms: O1_3  and  C3_4
REMARK    3  A    between atoms: C3_4  and  C4_6
REMARK    4  A    between atoms: C7_10  and  C8_11
REMARK    5  A    between atoms: C10_13  and  C11_14
ROOT
HETATM    1  C4  UNL     1      31.460   1.130  29.767  1.00  0.00     0.041 A
HETATM    2  C5  UNL     1      30.416   1.751  29.137  1.00  0.00     0.037 A
HETATM    3  C6  UNL     1      29.343   2.211  29.853  1.00  0.00     0.018 A
HETATM    4 BR1  UNL     1      27.838   3.066  28.993  1.00  0.00    -0.051 Br
HETATM    5  C7  UNL     1      29.244   2.079  31.217  1.00  0.00    -0.034 A
HETATM    6  C10 UNL     1      30.302   1.444  31.896  1.00  0.00    -0.045 A
HETATM    7  C17 UNL     1      31.390   0.979  31.133  1.00  0.00     0.025 A
ENDROOT
BRANCH   6   8
HETATM    8  C11 UNL     1      30.304   1.531  33.355  1.00  0.00     0.019 C
HETATM    9  C12 UNL     1      29.518   2.592  34.063  1.00  0.00     0.009 C
HETATM   10  C13 UNL     1      29.382   2.296  35.541  1.00  0.00     0.001 C
HETATM   11  C14 UNL     1      28.691   1.008  35.810  1.00  0.00     0.000 C
HETATM   12  C15 UNL     1      29.602  -0.059  35.202  1.00  0.00     0.001 C
HETATM   13  C16 UNL     1      29.612   0.158  33.739  1.00  0.00     0.009 C
ENDBRANCH   6   8
BRANCH   5  14
HETATM   14  C8  UNL     1      27.989   2.457  31.942  1.00  0.00     0.036 C
HETATM   15  C9  UNL     1      26.986   1.301  31.788  1.00  0.00     0.010 C
ENDBRANCH   5  14
BRANCH   1  16
HETATM   16  C3  UNL     1      32.684   0.780  28.995  1.00  0.00     0.293 C
HETATM   17  O2  UNL     1      32.665   0.934  27.736  1.00  0.00    -0.259 OA
BRANCH  16  18
HETATM   18  O1  UNL     1      33.823   0.310  29.583  1.00  0.00    -0.318 OA
BRANCH  18  19
HETATM   19  C2  UNL     1      34.091  -1.075  29.602  1.00  0.00     0.174 C
HETATM   20  C1  UNL     1      35.442  -1.452  30.145  1.00  0.00     0.034 C
ENDBRANCH  18  19
ENDBRANCH  16  18
ENDBRANCH   1  16
TORSDOF 5
ENDMDL