MODEL 5
REMARK VINA RESULT: -7.625031290      2.225      3.712
REMARK  6 active torsions:
REMARK  status: ('A' for Active; 'I' for Inactive)
REMARK    1  A    between atoms: C2_2  and  C3_3
REMARK    2  A    between atoms: C13_14  and  N1_15
REMARK    3  A    between atoms: N1_15  and  C14_16
REMARK    4  A    between atoms: N1_15  and  C16_18
REMARK    5  A    between atoms: C19_21  and  C20_22
REMARK    6  A    between atoms: C20_22  and  C21_23
ROOT
HETATM    1  C3  UNL     1      30.616   3.608  32.222  1.00  0.00     0.001 C
HETATM    2  C4  UNL     1      31.155   5.009  32.022  1.00  0.00     0.025 C
HETATM    3  C5  UNL     1      31.595   2.866  33.135  1.00  0.00     0.019 C
HETATM    4  C6  UNL     1      32.805   2.318  32.410  1.00  0.00     0.017 C
HETATM    5  C7  UNL     1      32.408   1.155  31.450  1.00  0.00     0.015 C
HETATM    6  C8  UNL     1      33.224   1.432  30.200  1.00  0.00     0.023 C
HETATM    7  C9  UNL     1      30.960   1.418  31.276  1.00  0.00    -0.036 C
HETATM    8  C10 UNL     1      30.082   0.514  31.479  1.00  0.00     0.058 C
HETATM    9  C11 UNL     1      30.400  -0.820  31.889  1.00  0.00     0.151 C
HETATM   10  O1  UNL     1      29.512  -1.674  32.228  1.00  0.00    -0.293 OA
HETATM   11  C12 UNL     1      31.808  -1.256  31.929  1.00  0.00     0.119 C
HETATM   12  C13 UNL     1      32.783  -0.170  31.973  1.00  0.00     0.242 C
HETATM   13  C18 UNL     1      30.619   2.824  30.922  1.00  0.00    -0.031 C
HETATM   14  C19 UNL     1      29.797   3.156  29.847  1.00  0.00     0.067 C
ENDROOT
BRANCH  12  15
HETATM   15  N1  UNL     1      34.101  -0.588  31.441  1.00  0.00     0.093 N
BRANCH  15  16
HETATM   16  C14 UNL     1      35.034  -0.631  32.572  1.00  0.00     0.268 C
HETATM   17  C15 UNL     1      36.465  -0.466  32.241  1.00  0.00     0.037 C
ENDBRANCH  15  16
BRANCH  15  18
HETATM   18  C16 UNL     1      34.028  -1.892  30.861  1.00  0.00     0.268 C
HETATM   19  C17 UNL     1      34.312  -1.945  29.389  1.00  0.00     0.037 C
ENDBRANCH  15  18
ENDBRANCH  12  15
BRANCH   1  20
HETATM   20  C2  UNL     1      29.330   3.706  32.881  1.00  0.00    -0.023 C
HETATM   21  C1  UNL     1      28.666   4.827  33.122  1.00  0.00     0.008 C
ENDBRANCH   1  20
BRANCH  14  22
HETATM   22  C20 UNL     1      28.543   2.871  29.798  1.00  0.00    -0.091 C
BRANCH  22  23
HETATM   23  C21 UNL     1      27.257   2.605  29.660  1.00  0.00     0.135 C
HETATM   24  C22 UNL     1      26.813   1.372  30.268  1.00  0.00     0.092 C
HETATM   25  F1  UNL     1      26.612   3.525  28.986  1.00  0.00    -0.202 F
ENDBRANCH  22  23
ENDBRANCH  14  22
TORSDOF 6
ENDMDL