MODEL 2
REMARK VINA RESULT: -9.673985220      0.942      1.276
REMARK  5 active torsions:
REMARK  status: ('A' for Active; 'I' for Inactive)
REMARK    1  A    between atoms: C2_2  and  C9_11
REMARK    2  A    between atoms: C3_3  and  C4_4
REMARK    3  A    between atoms: C4_4  and  O1_5
REMARK    4  A    between atoms: O1_5  and  C5_6
REMARK    5  A    between atoms: C5_6  and  C6_8
ROOT
HETATM    1  C9  UNL     1      31.220   2.284  31.566  1.00  0.00     0.023 C
HETATM    2  C10 UNL     1      31.772   3.447  32.430  1.00  0.00     0.010 C
HETATM    3  C11 UNL     1      30.564   4.322  32.719  1.00  0.00     0.006 C
HETATM    4  C12 UNL     1      29.539   3.211  32.868  1.00  0.00    -0.001 C
HETATM    5  C13 UNL     1      28.209   3.612  33.288  1.00  0.00    -0.014 C
HETATM    6  C14 UNL     1      27.693   4.945  32.860  1.00  0.00     0.010 C
HETATM    7  C15 UNL     1      27.252   2.464  33.035  1.00  0.00     0.005 C
HETATM    8  C16 UNL     1      27.410   1.822  31.714  1.00  0.00     0.006 C
HETATM    9  C17 UNL     1      28.832   1.407  31.357  1.00  0.00    -0.002 C
HETATM   10  C18 UNL     1      28.764   1.182  29.830  1.00  0.00     0.048 C
HETATM   11  C19 UNL     1      29.043   2.525  29.253  1.00  0.00     0.101 C
HETATM   12  C20 UNL     1      27.816   3.048  28.504  1.00  0.00     0.051 C
HETATM   13  F1  UNL     1      30.036   2.464  28.268  1.00  0.00    -0.243 F
HETATM   14  C21 UNL     1      29.423   3.447  30.381  1.00  0.00     0.054 C
HETATM   15  C22 UNL     1      29.735   2.532  31.546  1.00  0.00    -0.022 C
ENDROOT
BRANCH   1  16
HETATM   16  C2  UNL     1      31.702   0.999  32.034  1.00  0.00    -0.081 C
HETATM   17  C1  UNL     1      31.675   0.602  33.496  1.00  0.00     0.043 C
HETATM   18  C3  UNL     1      32.226   0.099  31.225  1.00  0.00     0.002 C
BRANCH  18  19
HETATM   19  C4  UNL     1      32.385   0.211  29.761  1.00  0.00     0.206 C
BRANCH  19  20
HETATM   20  O1  UNL     1      33.717   0.695  29.553  1.00  0.00    -0.317 OA
BRANCH  20  21
HETATM   21  C5  UNL     1      34.821   0.057  30.077  1.00  0.00     0.262 C
HETATM   22  O2  UNL     1      35.140  -1.072  29.641  1.00  0.00    -0.265 OA
BRANCH  21  23
HETATM   23  C6  UNL     1      35.601   0.725  31.142  1.00  0.00     0.077 C
HETATM   24  C7  UNL     1      36.096  -0.366  32.089  1.00  0.00     0.020 C
HETATM   25  C8  UNL     1      36.765   1.502  30.566  1.00  0.00     0.020 C
ENDBRANCH  21  23
ENDBRANCH  20  21
ENDBRANCH  19  20
ENDBRANCH  18  19
ENDBRANCH   1  16
TORSDOF 5
ENDMDL