MODEL 5
REMARK VINA RESULT: -6.622686990      1.141      1.837
REMARK  3 active torsions:
REMARK  status: ('A' for Active; 'I' for Inactive)
REMARK    1  A    between atoms: C2_2  and  C3_3
REMARK    2  A    between atoms: N1_7  and  C6_9
REMARK    3  A    between atoms: C6_9  and  C7_10
ROOT
HETATM    1  C7  UNL     1      15.297  10.283  78.385  1.00  0.00     0.143 C
HETATM    2  C8  UNL     1      15.743  11.483  79.057  1.00  0.00     0.060 C
HETATM    3  N2  UNL     1      16.110  12.446  79.596  1.00  0.00    -0.197 NA
ENDROOT
BRANCH   1   4
HETATM    4  C6  UNL     1      14.438   9.411  79.279  1.00  0.00     0.137 C
BRANCH   4   5
HETATM    5  N1  UNL     1      14.288  10.001  80.595  1.00  0.00    -0.349 N
HETATM    6  C5  UNL     1      13.757   9.292  81.534  1.00  0.00     0.270 A
HETATM    7  O1  UNL     1      13.301   8.080  81.539  1.00  0.00    -0.284 OA
HETATM    8  O2  UNL     1      13.590   9.767  82.765  1.00  0.00    -0.275 OA
HETATM    9  C4  UNL     1      12.843   7.752  82.729  1.00  0.00     0.180 A
HETATM   10  C3  UNL     1      13.033   8.852  83.523  1.00  0.00     0.089 A
ATOM     11  H1  UNL     1      14.596  10.956  80.775  1.00  0.00     0.163 HD
BRANCH  10  12
HETATM   12  C2  UNL     1      12.692   9.036  84.978  1.00  0.00     0.022 C
HETATM   13  C1  UNL     1      12.334  10.472  85.178  1.00  0.00     0.024 C
HETATM   14  C9  UNL     1      11.629   8.069  85.387  1.00  0.00     0.040 C
HETATM   15  C10 UNL     1      11.636   7.889  86.893  1.00  0.00     0.096 C
HETATM   16  C11 UNL     1      12.481   6.686  87.304  1.00  0.00     0.038 C
HETATM   17  N4  UNL     1      12.403   8.971  87.527  1.00  0.00    -0.160 NA
HETATM   18  C12 UNL     1      13.799   7.279  87.730  1.00  0.00     0.111 C
HETATM   19  N3  UNL     1      13.716   8.617  87.174  1.00  0.00    -0.233 NA
HETATM   20  C13 UNL     1      13.950   8.643  85.764  1.00  0.00     0.125 C
ENDBRANCH  10  12
ENDBRANCH   4   5
ENDBRANCH   1   4
TORSDOF 3
ENDMDL