MODEL 5
REMARK VINA RESULT: -6.748650458      1.206      1.206
REMARK  4 active torsions:
REMARK  status: ('A' for Active; 'I' for Inactive)
REMARK    1  A    between atoms: N1_2  and  N2_4
REMARK       I    between atoms: N2_4  and  C2_6
REMARK    2  A    between atoms: C2_6  and  C3_8
REMARK    3  A    between atoms: C3_8  and  S1_9
REMARK    4  A    between atoms: S1_9  and  C4_10
ROOT
HETATM    1  C4  UNL     1      14.947  11.089  82.837  1.00  0.00     0.069 C
HETATM    2  N3  UNL     1      16.035  11.411  82.224  1.00  0.00    -0.264 N
ATOM      3  H3  UNL     1      16.560  12.214  82.572  1.00  0.00     0.194 HD
HETATM    4  O2  UNL     1      16.535  10.741  81.130  1.00  0.00    -0.279 OA
HETATM    5  C5  UNL     1      16.135   9.361  81.067  1.00  0.00     0.211 C
HETATM    6  C6  UNL     1      14.616   9.401  81.036  1.00  0.00    -0.011 C
HETATM    7  C7  UNL     1      14.249  10.317  79.874  1.00  0.00     0.012 C
HETATM    8  C8  UNL     1      14.300   9.300  78.723  1.00  0.00     0.001 C
HETATM    9  C9  UNL     1      13.479   8.175  79.309  1.00  0.00     0.001 C
HETATM   10  C10 UNL     1      13.992   8.082  80.745  1.00  0.00     0.012 C
HETATM   11  C11 UNL     1      14.157   9.921  82.355  1.00  0.00     0.078 C
ENDROOT
BRANCH   1  12
HETATM   12  S1  UNL     1      14.299  11.957  84.255  1.00  0.00    -0.105 SA
BRANCH  12  13
HETATM   13  C3  UNL     1      12.910  11.119  85.022  1.00  0.00     0.185 C
BRANCH  13  14
HETATM   14  C2  UNL     1      13.424  10.134  85.980  1.00  0.00     0.245 C
HETATM   15  N2  UNL     1      12.529   9.226  86.594  1.00  0.00    -0.271 N
ATOM     16  H2  UNL     1      11.539   9.276  86.354  1.00  0.00     0.190 HD
HETATM   17  O1  UNL     1      14.632  10.092  86.255  1.00  0.00    -0.271 OA
BRANCH  15  18
HETATM   18  N1  UNL     1      12.947   8.263  87.516  1.00  0.00    -0.319 N
HETATM   19  C1  UNL     1      12.082   7.672  88.259  1.00  0.00     0.139 C
ATOM     20  H1  UNL     1      13.937   8.030  87.599  1.00  0.00     0.185 HD
ENDBRANCH  15  18
ENDBRANCH  13  14
ENDBRANCH  12  13
ENDBRANCH   1  12
TORSDOF 4
ENDMDL