MODEL 1
REMARK VINA RESULT: -7.084728320      0.000      0.000
REMARK  4 active torsions:
REMARK  status: ('A' for Active; 'I' for Inactive)
REMARK    1  A    between atoms: C3_3  and  O1_4
REMARK    2  A    between atoms: O1_4  and  N1_5
REMARK    3  A    between atoms: C12_16  and  C13_17
REMARK    4  A    between atoms: C13_17  and  O3_18
ROOT
HETATM    1  C1  UNL     1      16.196  10.124  77.361  1.00  0.00     0.014 C
HETATM    2  C2  UNL     1      16.130  10.808  78.348  1.00  0.00    -0.089 C
HETATM    3  C3  UNL     1      16.073  11.658  79.569  1.00  0.00     0.294 C
ENDROOT
BRANCH   3   4
HETATM    4  O1  UNL     1      16.555  10.915  80.648  1.00  0.00    -0.267 OA
BRANCH   4   5
HETATM    5  N1  UNL     1      15.870  10.406  81.660  1.00  0.00    -0.247 N
HETATM    6  C4  UNL     1      14.967   9.516  81.728  1.00  0.00     0.143 C
HETATM    7  C5  UNL     1      14.397   8.746  80.604  1.00  0.00     0.122 C
HETATM    8  O4  UNL     1      14.416   9.188  82.993  1.00  0.00    -0.301 OA
HETATM    9  C6  UNL     1      13.167   7.987  81.092  1.00  0.00     0.161 C
HETATM   10  O2  UNL     1      12.416   8.860  81.846  1.00  0.00    -0.345 OA
HETATM   11  C11 UNL     1      13.556   6.738  81.794  1.00  0.00    -0.052 C
HETATM   12  C7  UNL     1      12.994   9.016  83.109  1.00  0.00     0.169 C
HETATM   13  C8  UNL     1      12.443  10.233  83.769  1.00  0.00     0.079 C
HETATM   14  C9  UNL     1      12.752   7.745  83.853  1.00  0.00     0.073 C
HETATM   15  C10 UNL     1      13.652   6.678  83.265  1.00  0.00     0.042 C
HETATM   16  C12 UNL     1      13.822   5.663  81.082  1.00  0.00     0.004 C
ATOM     17  H1  UNL     1      16.115  10.810  82.564  1.00  0.00     0.196 HD
BRANCH  16  18
HETATM   18  C13 UNL     1      14.222   4.337  81.558  1.00  0.00     0.191 C
BRANCH  18  19
HETATM   19  O3  UNL     1      13.054   3.547  81.694  1.00  0.00    -0.397 OA
ATOM     20  H3  UNL     1      13.315   2.634  81.707  1.00  0.00     0.209 HD
ENDBRANCH  18  19
ENDBRANCH  16  18
ENDBRANCH   4   5
ENDBRANCH   3   4
TORSDOF 4
ENDMDL