MODEL 3
REMARK VINA RESULT: -6.301607363      1.087      1.228
REMARK  3 active torsions:
REMARK  status: ('A' for Active; 'I' for Inactive)
REMARK    1  A    between atoms: N1_7  and  C7_8
REMARK    2  A    between atoms: C11_15  and  S1_16
REMARK    3  A    between atoms: S1_16  and  C12_17
ROOT
HETATM    1  C7  UNL     1      13.011   8.348  83.787  1.00  0.00     0.110 C
HETATM    2  C8  UNL     1      13.641   7.256  84.630  1.00  0.00     0.257 C
HETATM    3  N2  UNL     1      14.687   7.765  85.487  1.00  0.00    -0.073 N
ATOM      4  H21 UNL     1      15.287   8.411  84.974  1.00  0.00     0.277 HD
ATOM      5  H22 UNL     1      15.365   7.033  85.699  1.00  0.00     0.277 HD
HETATM    6  C9  UNL     1      14.213   8.370  86.685  1.00  0.00     0.233 C
HETATM    7  C10 UNL     1      12.792   8.858  86.614  1.00  0.00     0.043 C
HETATM    8  C11 UNL     1      12.568   9.917  85.583  1.00  0.00     0.058 C
HETATM    9  C13 UNL     1      13.404   9.700  84.332  1.00  0.00     0.042 C
ENDROOT
BRANCH   1  10
HETATM   10  N1  UNL     1      13.297   8.184  82.403  1.00  0.00    -0.380 N
HETATM   11  C2  UNL     1      13.006   6.994  81.631  1.00  0.00     0.080 C
HETATM   12  C1  UNL     1      14.316   6.258  81.410  1.00  0.00     0.032 C
HETATM   13  C3  UNL     1      12.477   7.380  80.247  1.00  0.00     0.029 C
HETATM   14  C4  UNL     1      13.434   8.252  79.501  1.00  0.00     0.030 C
HETATM   15  C5  UNL     1      13.998   9.313  80.369  1.00  0.00    -0.010 C
HETATM   16  C6  UNL     1      13.917   9.248  81.689  1.00  0.00     0.082 C
ENDBRANCH   1  10
BRANCH   8  17
HETATM   17  S1  UNL     1      12.724  11.581  86.241  1.00  0.00    -0.096 SA
BRANCH  17  18
HETATM   18  C12 UNL     1      14.201  12.392  85.679  1.00  0.00     0.304 C
HETATM   19  O1  UNL     1      14.655  13.381  86.218  1.00  0.00    -0.295 OA
ENDBRANCH  17  18
ENDBRANCH   8  17
TORSDOF 3
ENDMDL