MODEL 1
REMARK VINA RESULT: -7.196870038      0.000      0.000
REMARK  5 active torsions:
REMARK  status: ('A' for Active; 'I' for Inactive)
REMARK    1  A    between atoms: C2_2  and  C3_3
REMARK    2  A    between atoms: C3_3  and  C6_7
REMARK    3  A    between atoms: C6_7  and  O2_9
REMARK    4  A    between atoms: O2_9  and  C7_10
REMARK    5  A    between atoms: C13_17  and  O4_18
ROOT
HETATM    1  C3  UNL     1      15.203   9.995  81.073  1.00  0.00     0.132 C
HETATM    2  C4  UNL     1      13.821   9.655  80.503  1.00  0.00     0.042 C
HETATM    3  C5  UNL     1      15.951  10.601  79.968  1.00  0.00     0.079 C
HETATM    4  N1  UNL     1      16.539  11.078  79.072  1.00  0.00    -0.196 NA
ENDROOT
BRANCH   1   5
HETATM    5  C2  UNL     1      15.916   8.717  81.434  1.00  0.00     0.030 C
HETATM    6  C1  UNL     1      15.018   7.547  81.636  1.00  0.00     0.007 C
ENDBRANCH   1   5
BRANCH   1   7
HETATM    7  C6  UNL     1      15.116  10.949  82.176  1.00  0.00     0.281 C
HETATM    8  O1  UNL     1      15.467  12.124  82.029  1.00  0.00    -0.263 OA
BRANCH   7   9
HETATM    9  O2  UNL     1      14.636  10.559  83.412  1.00  0.00    -0.312 OA
BRANCH   9  10
HETATM   10  C7  UNL     1      13.275  10.617  83.802  1.00  0.00     0.165 C
HETATM   11  C8  UNL     1      12.737   9.297  84.211  1.00  0.00     0.072 C
HETATM   12  C9  UNL     1      12.527   9.093  85.666  1.00  0.00     0.056 C
HETATM   13  C10 UNL     1      13.753   8.389  86.242  1.00  0.00     0.045 C
HETATM   14  C11 UNL     1      11.356   8.133  85.924  1.00  0.00     0.045 C
HETATM   15  O3  UNL     1      12.293  10.216  86.404  1.00  0.00    -0.378 OA
HETATM   16  C12 UNL     1      13.169  11.252  86.226  1.00  0.00     0.203 C
HETATM   17  C13 UNL     1      13.041  11.726  84.798  1.00  0.00     0.171 C
BRANCH  17  18
HETATM   18  O4  UNL     1      13.947  12.771  84.610  1.00  0.00    -0.391 OA
ATOM     19  H4  UNL     1      13.524  13.524  84.216  1.00  0.00     0.210 HD
ENDBRANCH  17  18
ENDBRANCH   9  10
ENDBRANCH   7   9
ENDBRANCH   1   7
TORSDOF 5
ENDMDL