MODEL 4
REMARK VINA RESULT: -7.336500147      2.831      4.227
REMARK  3 active torsions:
REMARK  status: ('A' for Active; 'I' for Inactive)
REMARK    1  A    between atoms: C2_2  and  C3_3
REMARK    2  A    between atoms: C3_3  and  N1_4
REMARK    3  A    between atoms: N1_4  and  C4_7
ROOT
HETATM    1  C4  UNL     1      13.223   8.159  82.065  1.00  0.00     0.218 C
HETATM    2  C5  UNL     1      12.888   7.445  80.803  1.00  0.00     0.040 C
HETATM    3  C6  UNL     1      12.782   5.963  80.908  1.00  0.00    -0.010 C
HETATM    4  C7  UNL     1      12.035   5.461  82.100  1.00  0.00     0.012 C
HETATM    5  C8  UNL     1      13.108   5.269  83.137  1.00  0.00     0.020 C
HETATM    6  C9  UNL     1      13.411   6.537  83.882  1.00  0.00     0.044 C
HETATM    7  C10 UNL     1      14.183   7.444  82.965  1.00  0.00     0.191 C
HETATM    8  O1  UNL     1      15.220   6.817  82.302  1.00  0.00    -0.233 OA
HETATM    9  O2  UNL     1      15.398   5.627  82.839  1.00  0.00    -0.235 OA
HETATM   10  C11 UNL     1      14.334   4.839  82.373  1.00  0.00     0.165 C
HETATM   11  C12 UNL     1      14.103   5.248  80.924  1.00  0.00     0.040 C
ENDROOT
BRANCH   1  12
HETATM   12  N1  UNL     1      13.820   9.460  81.757  1.00  0.00    -0.065 N
ATOM     13  H12 UNL     1      14.556   9.723  82.413  1.00  0.00     0.277 HD
ATOM     14  H11 UNL     1      13.189  10.240  81.943  1.00  0.00     0.277 HD
BRANCH  12  15
HETATM   15  C3  UNL     1      14.277   9.425  80.390  1.00  0.00     0.275 C
BRANCH  15  16
HETATM   16  C2  UNL     1      15.613  10.080  80.189  1.00  0.00     0.140 C
HETATM   17  C1  UNL     1      16.031  10.359  78.782  1.00  0.00     0.053 C
HETATM   18  C13 UNL     1      15.706  11.348  81.042  1.00  0.00     0.252 C
HETATM   19  O3  UNL     1      16.598  10.720  81.895  1.00  0.00    -0.237 OA
HETATM   20  O4  UNL     1      16.618   9.698  81.059  1.00  0.00    -0.226 OA
ENDBRANCH  15  16
ENDBRANCH  12  15
ENDBRANCH   1  12
TORSDOF 3
ENDMDL