MODEL 2
REMARK VINA RESULT: -6.870266381      1.031      1.128
REMARK  3 active torsions:
REMARK  status: ('A' for Active; 'I' for Inactive)
REMARK    1  A    between atoms: C3_7  and  N3_8
REMARK    2  A    between atoms: C6_11  and  N4_12
REMARK       I    between atoms: N4_12  and  C7_14
REMARK    3  A    between atoms: C7_14  and  C8_16
ROOT
HETATM    1  N3  UNL     1      12.738   8.261  83.694  1.00  0.00    -0.346 N
HETATM    2  C4  UNL     1      13.562   7.238  83.069  1.00  0.00     0.128 C
HETATM    3  C5  UNL     1      13.869   7.705  81.663  1.00  0.00     0.045 C
HETATM    4  C6  UNL     1      14.662   9.003  81.754  1.00  0.00     0.087 C
HETATM    5  C11 UNL     1      14.002  10.003  82.680  1.00  0.00     0.045 C
HETATM    6  C12 UNL     1      12.603   9.510  82.969  1.00  0.00     0.128 C
ENDROOT
BRANCH   1   7
HETATM    7  C3  UNL     1      12.103   8.041  84.944  1.00  0.00     0.243 A
HETATM    8  N2  UNL     1      12.622   8.139  86.154  1.00  0.00    -0.263 N
HETATM    9  N1  UNL     1      11.700   7.851  87.080  1.00  0.00    -0.280 N
ATOM     10  H2  UNL     1      13.589   8.396  86.355  1.00  0.00     0.190 HD
HETATM   11  C2  UNL     1      10.585   7.572  86.392  1.00  0.00     0.138 A
ATOM     12  H1  UNL     1      11.819   7.846  88.093  1.00  0.00     0.189 HD
HETATM   13  C1  UNL     1       9.252   7.188  86.900  1.00  0.00     0.099 C
HETATM   14  O2  UNL     1      10.850   7.693  85.093  1.00  0.00    -0.264 OA
ENDBRANCH   1   7
BRANCH   4  15
HETATM   15  N4  UNL     1      14.786   9.632  80.466  1.00  0.00    -0.356 N
HETATM   16  C7  UNL     1      15.853  10.511  80.189  1.00  0.00     0.221 C
HETATM   17  O1  UNL     1      16.728  10.774  81.054  1.00  0.00    -0.273 OA
ATOM     18  H4  UNL     1      14.092   9.439  79.743  1.00  0.00     0.162 HD
BRANCH  16  19
HETATM   19  C8  UNL     1      15.986  11.161  78.862  1.00  0.00     0.070 C
HETATM   20  C9  UNL     1      14.609  11.760  78.551  1.00  0.00     0.019 C
HETATM   21  C10 UNL     1      16.299  10.140  77.793  1.00  0.00     0.019 C
ENDBRANCH  16  19
ENDBRANCH   4  15
TORSDOF 3
ENDMDL