MODEL 4
REMARK VINA RESULT: -6.735101451      1.595      4.543
REMARK  6 active torsions:
REMARK  status: ('A' for Active; 'I' for Inactive)
REMARK    1  A    between atoms: C3_3  and  C5_5
REMARK    2  A    between atoms: C5_5  and  O2_7
REMARK    3  A    between atoms: O2_7  and  C6_8
REMARK    4  A    between atoms: C8_10  and  C9_11
REMARK    5  A    between atoms: C9_11  and  O4_13
REMARK    6  A    between atoms: C13_17  and  O5_18
ROOT
HETATM    1  C6  UNL     1      13.637   8.556  80.934  1.00  0.00     0.190 C
HETATM    2  C7  UNL     1      13.631   7.981  82.299  1.00  0.00    -0.042 C
HETATM    3  C8  UNL     1      13.249   8.435  83.459  1.00  0.00     0.087 C
HETATM    4  C11 UNL     1      14.225   6.610  82.057  1.00  0.00     0.040 C
HETATM    5  C12 UNL     1      13.407   6.166  80.865  1.00  0.00     0.039 C
HETATM    6  C13 UNL     1      12.972   7.412  80.151  1.00  0.00     0.152 C
ENDROOT
BRANCH   1   7
HETATM    7  O2  UNL     1      14.984   8.583  80.501  1.00  0.00    -0.305 OA
BRANCH   7   8
HETATM    8  C5  UNL     1      15.912   9.488  81.025  1.00  0.00     0.289 C
HETATM    9  O1  UNL     1      16.919   8.970  81.560  1.00  0.00    -0.260 OA
BRANCH   8  10
HETATM   10  C3  UNL     1      15.726  10.919  80.956  1.00  0.00     0.009 C
HETATM   11  C2  UNL     1      15.751  11.541  79.812  1.00  0.00    -0.018 C
HETATM   12  C1  UNL     1      15.961  10.929  78.482  1.00  0.00     0.036 C
HETATM   13  C4  UNL     1      15.506  11.660  82.218  1.00  0.00     0.054 C
ENDBRANCH   8  10
ENDBRANCH   7   8
ENDBRANCH   1   7
BRANCH   6  14
HETATM   14  O5  UNL     1      11.607   7.555  80.097  1.00  0.00    -0.393 OA
ATOM     15  H5  UNL     1      11.157   6.795  80.445  1.00  0.00     0.210 HD
ENDBRANCH   6  14
BRANCH   3  16
HETATM   16  C9  UNL     1      12.681   9.728  83.755  1.00  0.00     0.282 C
HETATM   17  O3  UNL     1      11.700  10.166  83.117  1.00  0.00    -0.260 OA
BRANCH  16  18
HETATM   18  O4  UNL     1      13.238  10.494  84.766  1.00  0.00    -0.323 OA
HETATM   19  C10 UNL     1      12.699  11.746  85.159  1.00  0.00     0.213 C
ENDBRANCH  16  18
ENDBRANCH   3  16
TORSDOF 6
ENDMDL