MODEL 4
REMARK VINA RESULT: -6.866140509      2.495      3.422
REMARK  5 active torsions:
REMARK  status: ('A' for Active; 'I' for Inactive)
REMARK    1  A    between atoms: C2_2  and  C3_3
REMARK    2  A    between atoms: C3_3  and  C4_4
REMARK    3  A    between atoms: C4_4  and  O1_5
REMARK    4  A    between atoms: O1_5  and  C5_6
REMARK    5  A    between atoms: C14_15  and  O2_16
ROOT
HETATM    1  C5  UNL     1      77.766  37.345 -11.400  1.00  0.00     0.122 C
HETATM    2  C6  UNL     1      76.423  36.675 -11.645  1.00  0.00     0.032 C
HETATM    3  C7  UNL     1      76.454  35.384 -10.813  1.00  0.00     0.008 C
HETATM    4  C8  UNL     1      77.434  34.471 -11.531  1.00  0.00    -0.001 C
HETATM    5  C9  UNL     1      77.399  33.106 -10.926  1.00  0.00    -0.001 C
HETATM    6  C10 UNL     1      77.294  33.118  -9.417  1.00  0.00     0.006 C
HETATM    7  C11 UNL     1      76.872  31.751  -8.945  1.00  0.00     0.006 C
HETATM    8  C12 UNL     1      77.213  30.680  -9.966  1.00  0.00    -0.003 C
HETATM    9  C13 UNL     1      77.146  29.358  -9.280  1.00  0.00     0.037 C
HETATM   10  C14 UNL     1      77.585  28.198 -10.110  1.00  0.00     0.118 C
HETATM   11  C15 UNL     1      78.956  28.506 -10.665  1.00  0.00     0.032 C
HETATM   12  C16 UNL     1      78.817  29.744 -11.536  1.00  0.00     0.012 C
HETATM   13  C17 UNL     1      78.551  30.940 -10.616  1.00  0.00    -0.033 C
HETATM   14  C18 UNL     1      79.663  30.973  -9.616  1.00  0.00     0.016 C
HETATM   15  C19 UNL     1      78.460  32.201 -11.452  1.00  0.00    -0.032 C
HETATM   16  C20 UNL     1      77.980  31.737 -12.838  1.00  0.00     0.016 C
HETATM   17  C21 UNL     1      79.797  32.831 -11.651  1.00  0.00     0.011 C
HETATM   18  C22 UNL     1      79.910  34.238 -11.163  1.00  0.00     0.010 C
HETATM   19  C23 UNL     1      78.773  35.095 -11.638  1.00  0.00    -0.038 C
HETATM   20  C24 UNL     1      79.102  35.496 -13.083  1.00  0.00     0.015 C
HETATM   21  C25 UNL     1      78.795  36.404 -10.854  1.00  0.00     0.041 C
ENDROOT
BRANCH   1  22
HETATM   22  O1  UNL     1      77.548  38.415 -10.570  1.00  0.00    -0.386 OA
BRANCH  22  23
HETATM   23  C4  UNL     1      78.177  38.224  -9.342  1.00  0.00     0.168 C
BRANCH  23  24
HETATM   24  C3  UNL     1      77.164  38.270  -8.217  1.00  0.00     0.026 C
BRANCH  24  25
HETATM   25  C2  UNL     1      75.992  39.144  -8.543  1.00  0.00    -0.002 C
HETATM   26  C1  UNL     1      74.798  38.289  -8.898  1.00  0.00     0.005 C
ENDBRANCH  24  25
ENDBRANCH  23  24
ENDBRANCH  22  23
ENDBRANCH   1  22
BRANCH  10  27
HETATM   27  O2  UNL     1      77.674  27.082  -9.281  1.00  0.00    -0.396 OA
ATOM     28  H2  UNL     1      76.798  26.867  -8.982  1.00  0.00     0.210 HD
ENDBRANCH  10  27
TORSDOF 5
ENDMDL