MODEL 3
REMARK VINA RESULT: -6.976526285      2.183      6.951
REMARK  6 active torsions:
REMARK  status: ('A' for Active; 'I' for Inactive)
REMARK    1  A    between atoms: C3_3  and  C4_4
REMARK    2  A    between atoms: C4_4  and  C5_5
REMARK    3  A    between atoms: C7_7  and  C8_8
REMARK    4  A    between atoms: C9_9  and  C10_10
REMARK    5  A    between atoms: C15_15  and  N1_16
REMARK    6  A    between atoms: N1_16  and  C16_18
ROOT
HETATM    1  C8  UNL     1      77.319  31.145  -9.459  1.00  0.00     0.041 C
HETATM    2  C9  UNL     1      76.067  31.863  -9.875  1.00  0.00     0.010 C
HETATM    3  C14 UNL     1      76.225  33.320 -10.146  1.00  0.00     0.082 C
HETATM    4  C15 UNL     1      77.564  33.703 -10.654  1.00  0.00     0.074 C
HETATM    5  N2  UNL     1      78.556  33.100 -10.132  1.00  0.00    -0.371 N
ATOM      6  H2  UNL     1      79.490  33.343 -10.463  1.00  0.00     0.161 HD
HETATM    7  C23 UNL     1      78.443  32.094  -9.100  1.00  0.00     0.031 C
HETATM    8  C24 UNL     1      79.751  31.290  -9.153  1.00  0.00     0.039 C
HETATM    9  C25 UNL     1      78.366  32.656  -7.724  1.00  0.00     0.039 C
ENDROOT
BRANCH   4  10
HETATM   10  N1  UNL     1      77.720  34.668 -11.645  1.00  0.00    -0.375 N
ATOM     11  H1  UNL     1      77.668  34.317 -12.602  1.00  0.00     0.161 HD
BRANCH  10  12
HETATM   12  C16 UNL     1      77.945  36.088 -11.527  1.00  0.00     0.082 C
HETATM   13  C17 UNL     1      78.211  36.473 -10.082  1.00  0.00     0.025 C
HETATM   14  C18 UNL     1      77.882  37.885  -9.729  1.00  0.00     0.002 C
HETATM   15  C19 UNL     1      76.440  37.967  -9.359  1.00  0.00     0.000 C
HETATM   16  C20 UNL     1      75.600  36.969 -10.075  1.00  0.00     0.000 C
HETATM   17  C21 UNL     1      75.632  37.113 -11.570  1.00  0.00     0.002 C
HETATM   18  C22 UNL     1      76.965  36.968 -12.195  1.00  0.00     0.025 C
ENDBRANCH  10  12
ENDBRANCH   4  10
BRANCH   2  19
HETATM   19  C10 UNL     1      74.868  31.593  -9.015  1.00  0.00    -0.047 C
HETATM   20  C11 UNL     1      75.229  30.917  -7.713  1.00  0.00     0.015 C
HETATM   21  C12 UNL     1      73.998  30.574  -9.770  1.00  0.00     0.015 C
HETATM   22  C13 UNL     1      74.005  32.754  -8.706  1.00  0.00     0.015 C
ENDBRANCH   2  19
BRANCH   1  23
HETATM   23  C7  UNL     1      77.892  30.329 -10.596  1.00  0.00    -0.017 C
HETATM   24  C5  UNL     1      77.699  29.061 -10.790  1.00  0.00    -0.084 C
HETATM   25  C6  UNL     1      76.905  28.139  -9.973  1.00  0.00     0.043 C
BRANCH  24  26
HETATM   26  C4  UNL     1      78.363  28.430 -11.992  1.00  0.00     0.060 C
BRANCH  26  27
HETATM   27  C3  UNL     1      79.837  28.594 -11.793  1.00  0.00    -0.027 C
HETATM   28  C2  UNL     1      80.463  27.794 -10.961  1.00  0.00    -0.035 C
HETATM   29  C1  UNL     1      81.931  27.947 -10.753  1.00  0.00     0.036 C
ENDBRANCH  26  27
ENDBRANCH  24  26
ENDBRANCH   1  23
TORSDOF 6
ENDMDL