MODEL 3
REMARK VINA RESULT: -6.697656476      2.383      4.348
REMARK  5 active torsions:
REMARK  status: ('A' for Active; 'I' for Inactive)
REMARK    1  A    between atoms: C2_2  and  C3_3
REMARK    2  A    between atoms: C3_3  and  C4_4
REMARK    3  A    between atoms: C4_4  and  C5_5
REMARK    4  A    between atoms: C5_5  and  C6_6
REMARK    5  A    between atoms: C13_14  and  O2_15
ROOT
HETATM    1  C6  UNL     1      76.947  34.908 -10.405  1.00  0.00     0.126 C
HETATM    2  O1  UNL     1      77.649  34.847 -11.622  1.00  0.00    -0.385 OA
HETATM    3  C7  UNL     1      78.939  34.408 -11.272  1.00  0.00     0.178 C
HETATM    4  C8  UNL     1      78.960  32.979 -10.852  1.00  0.00    -0.010 C
HETATM    5  C9  UNL     1      79.705  32.869  -9.526  1.00  0.00     0.018 C
HETATM    6  C10 UNL     1      79.718  32.098 -11.865  1.00  0.00     0.007 C
HETATM    7  C11 UNL     1      81.172  32.298 -11.830  1.00  0.00     0.015 C
HETATM    8  C12 UNL     1      81.949  31.029 -11.443  1.00  0.00     0.013 C
HETATM    9  C13 UNL     1      81.898  32.935 -12.928  1.00  0.00     0.122 C
HETATM   10  C14 UNL     1      81.998  32.219 -14.234  1.00  0.00     0.033 C
HETATM   11  C15 UNL     1      80.698  32.351 -14.942  1.00  0.00     0.011 C
HETATM   12  C16 UNL     1      79.578  31.545 -14.346  1.00  0.00    -0.044 C
HETATM   13  C17 UNL     1      78.483  31.612 -15.436  1.00  0.00     0.015 C
HETATM   14  C18 UNL     1      79.901  30.091 -14.185  1.00  0.00     0.015 C
HETATM   15  C19 UNL     1      78.978  32.177 -13.129  1.00  0.00    -0.001 C
HETATM   16  C20 UNL     1      77.647  31.439 -12.907  1.00  0.00     0.006 C
HETATM   17  C21 UNL     1      76.822  32.033 -11.808  1.00  0.00     0.011 C
HETATM   18  C22 UNL     1      77.564  32.474 -10.606  1.00  0.00    -0.029 C
HETATM   19  C23 UNL     1      77.588  31.296  -9.621  1.00  0.00     0.016 C
HETATM   20  C24 UNL     1      76.749  33.558  -9.889  1.00  0.00     0.019 C
HETATM   21  C25 UNL     1      75.368  33.052  -9.683  1.00  0.00     0.013 C
ENDROOT
BRANCH   1  22
HETATM   22  C5  UNL     1      75.828  35.854 -10.552  1.00  0.00     0.032 C
BRANCH  22  23
HETATM   23  C4  UNL     1      76.119  37.302 -10.269  1.00  0.00     0.002 C
BRANCH  23  24
HETATM   24  C3  UNL     1      75.121  37.874  -9.294  1.00  0.00    -0.000 C
BRANCH  24  25
HETATM   25  C2  UNL     1      75.591  39.067  -8.534  1.00  0.00    -0.005 C
HETATM   26  C1  UNL     1      76.730  38.721  -7.584  1.00  0.00     0.005 C
ENDBRANCH  24  25
ENDBRANCH  23  24
ENDBRANCH  22  23
ENDBRANCH   1  22
BRANCH   9  27
HETATM   27  O2  UNL     1      83.240  33.095 -12.484  1.00  0.00    -0.395 OA
ATOM     28  H2  UNL     1      83.760  33.266 -13.259  1.00  0.00     0.210 HD
ENDBRANCH   9  27
TORSDOF 5
ENDMDL