MODEL 1
REMARK VINA RESULT: -6.952776179      0.000      0.000
REMARK  5 active torsions:
REMARK  status: ('A' for Active; 'I' for Inactive)
REMARK    1  A    between atoms: C7_7  and  O1_9
REMARK    2  A    between atoms: O1_9  and  C9_10
REMARK    3  A    between atoms: C9_10  and  C10_11
REMARK    4  A    between atoms: C10_11  and  C11_12
REMARK    5  A    between atoms: C11_12  and  C12_13
ROOT
HETATM    1  C1  UNL     1      75.959  31.453  -7.440  1.00  0.00     0.020 C
HETATM    2  C2  UNL     1      76.702  31.645  -8.499  1.00  0.00    -0.058 C
HETATM    3  C3  UNL     1      78.126  32.012  -8.273  1.00  0.00     0.010 C
HETATM    4  C4  UNL     1      78.681  32.921  -9.056  1.00  0.00    -0.072 C
HETATM    5  C5  UNL     1      79.947  33.612  -9.277  1.00  0.00     0.037 C
HETATM    6  C6  UNL     1      79.842  34.017 -10.781  1.00  0.00     0.042 C
HETATM    7  C7  UNL     1      78.399  34.553 -10.666  1.00  0.00     0.065 C
HETATM    8  C8  UNL     1      77.930  35.195 -11.914  1.00  0.00     0.047 C
HETATM    9  C14 UNL     1      77.681  33.456 -10.075  1.00  0.00     0.054 C
HETATM   10  C15 UNL     1      77.290  32.235 -10.800  1.00  0.00     0.010 C
HETATM   11  C16 UNL     1      76.699  32.314 -12.139  1.00  0.00     0.007 C
HETATM   12  C17 UNL     1      76.579  30.915 -12.700  1.00  0.00     0.016 C
HETATM   13  C18 UNL     1      76.359  29.822 -11.756  1.00  0.00     0.002 C
HETATM   14  C19 UNL     1      75.356  28.861 -12.417  1.00  0.00     0.022 C
HETATM   15  C20 UNL     1      77.591  28.995 -11.558  1.00  0.00     0.035 C
HETATM   16  N1  UNL     1      78.546  28.763 -12.601  1.00  0.00    -0.106 NA
HETATM   17  C21 UNL     1      77.638  28.544 -10.325  1.00  0.00    -0.062 C
HETATM   18  C22 UNL     1      78.689  27.684  -9.705  1.00  0.00     0.045 C
HETATM   19  C23 UNL     1      76.458  29.010  -9.600  1.00  0.00     0.042 C
HETATM   20  C24 UNL     1      75.934  30.153 -10.375  1.00  0.00     0.016 C
HETATM   21  C25 UNL     1      76.248  31.526  -9.906  1.00  0.00    -0.008 C
HETATM   22  C26 UNL     1      74.967  32.369  -9.980  1.00  0.00     0.021 C
ENDROOT
BRANCH   7  23
HETATM   23  O1  UNL     1      78.564  35.596  -9.728  1.00  0.00    -0.380 OA
BRANCH  23  24
HETATM   24  C9  UNL     1      78.755  36.833 -10.239  1.00  0.00     0.168 C
BRANCH  24  25
HETATM   25  C10 UNL     1      77.878  37.815  -9.457  1.00  0.00     0.026 C
BRANCH  25  26
HETATM   26  C11 UNL     1      76.461  37.825  -9.911  1.00  0.00     0.002 C
BRANCH  26  27
HETATM   27  C12 UNL     1      75.648  38.465  -8.781  1.00  0.00    -0.004 C
HETATM   28  C13 UNL     1      76.544  38.813  -7.610  1.00  0.00     0.005 C
ENDBRANCH  26  27
ENDBRANCH  25  26
ENDBRANCH  24  25
ENDBRANCH  23  24
ENDBRANCH   7  23
TORSDOF 5
ENDMDL