MODEL 1
REMARK VINA RESULT: -7.502039941      0.000      0.000
REMARK  6 active torsions:
REMARK  status: ('A' for Active; 'I' for Inactive)
REMARK    1  A    between atoms: C2_2  and  C4_4
REMARK    2  A    between atoms: C4_4  and  C5_5
REMARK    3  A    between atoms: C5_5  and  C6_6
REMARK    4  A    between atoms: C6_6  and  C7_7
REMARK    5  A    between atoms: C7_7  and  C9_9
REMARK    6  A    between atoms: C17_17  and  O1_18
ROOT
HETATM    1  C9  UNL     1      79.059  36.502 -12.357  1.00  0.00    -0.002 C
HETATM    2  C10 UNL     1      77.736  36.692 -13.103  1.00  0.00     0.006 C
HETATM    3  C11 UNL     1      76.792  35.894 -12.222  1.00  0.00     0.006 C
HETATM    4  C12 UNL     1      77.661  34.639 -12.049  1.00  0.00    -0.002 C
HETATM    5  C13 UNL     1      77.088  33.649 -11.142  1.00  0.00    -0.005 C
HETATM    6  C14 UNL     1      75.848  34.257 -10.471  1.00  0.00     0.006 C
HETATM    7  C15 UNL     1      75.138  33.177  -9.719  1.00  0.00     0.008 C
HETATM    8  C16 UNL     1      75.968  32.411  -8.767  1.00  0.00     0.023 C
HETATM    9  C17 UNL     1      75.348  31.010  -8.677  1.00  0.00     0.123 C
HETATM   10  C18 UNL     1      76.008  30.331  -9.854  1.00  0.00     0.033 C
HETATM   11  C19 UNL     1      77.467  30.752  -9.648  1.00  0.00     0.012 C
HETATM   12  C20 UNL     1      77.375  32.189  -9.125  1.00  0.00    -0.034 C
HETATM   13  C21 UNL     1      78.196  32.213  -7.828  1.00  0.00     0.016 C
HETATM   14  C22 UNL     1      78.006  33.115 -10.077  1.00  0.00    -0.001 C
HETATM   15  C23 UNL     1      78.689  34.295  -9.456  1.00  0.00     0.006 C
HETATM   16  C24 UNL     1      79.626  34.920 -10.468  1.00  0.00     0.010 C
HETATM   17  C25 UNL     1      79.058  35.115 -11.828  1.00  0.00    -0.036 C
HETATM   18  C26 UNL     1      79.940  34.203 -12.732  1.00  0.00     0.016 C
ENDROOT
BRANCH   1  19
HETATM   19  C7  UNL     1      79.433  37.644 -11.530  1.00  0.00    -0.014 C
HETATM   20  C8  UNL     1      80.130  38.667 -12.452  1.00  0.00     0.010 C
BRANCH  19  21
HETATM   21  C6  UNL     1      78.390  38.401 -10.798  1.00  0.00     0.005 C
BRANCH  21  22
HETATM   22  C5  UNL     1      78.415  38.100  -9.288  1.00  0.00     0.001 C
BRANCH  22  23
HETATM   23  C4  UNL     1      77.089  37.413  -8.931  1.00  0.00     0.004 C
BRANCH  23  24
HETATM   24  C2  UNL     1      75.917  38.233  -9.365  1.00  0.00    -0.023 C
HETATM   25  C1  UNL     1      75.637  39.359  -8.403  1.00  0.00     0.009 C
HETATM   26  C3  UNL     1      74.658  37.403  -9.531  1.00  0.00     0.009 C
ENDBRANCH  23  24
ENDBRANCH  22  23
ENDBRANCH  21  22
ENDBRANCH  19  21
ENDBRANCH   1  19
BRANCH   9  27
HETATM   27  O1  UNL     1      75.592  30.405  -7.474  1.00  0.00    -0.395 OA
ATOM     28  H1  UNL     1      74.891  30.545  -6.848  1.00  0.00     0.210 HD
ENDBRANCH   9  27
TORSDOF 6
ENDMDL