MODEL 1
REMARK VINA RESULT: -6.402128056      0.000      0.000
REMARK  5 active torsions:
REMARK  status: ('A' for Active; 'I' for Inactive)
REMARK    1  A    between atoms: C3_3  and  C4_4
REMARK    2  A    between atoms: C14_17  and  C16_19
REMARK    3  A    between atoms: C16_19  and  S1_21
REMARK    4  A    between atoms: S1_21  and  S2_22
REMARK    5  A    between atoms: S2_22  and  C18_23
ROOT
HETATM    1  C1  UNL     1      79.790  34.357 -10.099  1.00  0.00     0.045 C
HETATM    2  C2  UNL     1      79.659  34.518 -11.549  1.00  0.00    -0.066 C
HETATM    3  C3  UNL     1      79.092  35.583 -12.114  1.00  0.00    -0.028 C
HETATM    4  C11 UNL     1      78.978  35.682 -13.596  1.00  0.00     0.041 C
HETATM    5  C12 UNL     1      78.719  34.384 -14.278  1.00  0.00     0.006 C
HETATM    6  C13 UNL     1      78.955  33.181 -13.388  1.00  0.00     0.015 C
HETATM    7  C14 UNL     1      80.170  33.477 -12.513  1.00  0.00    -0.007 C
HETATM    8  C15 UNL     1      81.327  34.020 -13.315  1.00  0.00     0.021 C
ENDROOT
BRANCH   3   9
HETATM    9  C4  UNL     1      78.559  36.675 -11.265  1.00  0.00     0.047 A
HETATM   10  N1  UNL     1      79.197  37.826 -10.941  1.00  0.00    -0.363 N
HETATM   11  C5  UNL     1      78.402  38.606 -10.168  1.00  0.00     0.118 A
ATOM     12  H1  UNL     1      80.141  38.071 -11.236  1.00  0.00     0.165 HD
HETATM   13  C6  UNL     1      77.201  37.966  -9.966  1.00  0.00     0.054 A
HETATM   14  C7  UNL     1      77.321  36.762 -10.659  1.00  0.00    -0.001 A
HETATM   15  N2  UNL     1      75.914  38.049  -9.347  1.00  0.00    -0.383 N
HETATM   16  C8  UNL     1      76.059  36.028 -10.483  1.00  0.00     0.063 C
HETATM   17  C9  UNL     1      75.074  37.118 -10.074  1.00  0.00     0.127 C
HETATM   18  C10 UNL     1      75.534  38.906  -8.219  1.00  0.00     0.149 C
ENDBRANCH   3   9
BRANCH   7  19
HETATM   19  C16 UNL     1      80.667  32.237 -11.816  1.00  0.00     0.067 C
HETATM   20  C17 UNL     1      82.015  31.857 -12.331  1.00  0.00     0.023 C
BRANCH  19  21
HETATM   21  S1  UNL     1      79.538  30.856 -11.847  1.00  0.00    -0.091 SA
BRANCH  21  22
HETATM   22  S2  UNL     1      78.766  30.353  -9.993  1.00  0.00    -0.088 SA
BRANCH  22  23
HETATM   23  C18 UNL     1      77.402  31.311  -9.393  1.00  0.00     0.007 C
HETATM   24  C19 UNL     1      77.704  32.168  -8.197  1.00  0.00     0.027 C
HETATM   25  C20 UNL     1      76.230  30.413  -8.945  1.00  0.00     0.027 C
HETATM   26  C21 UNL     1      76.792  32.173 -10.524  1.00  0.00     0.027 C
ENDBRANCH  22  23
ENDBRANCH  21  22
ENDBRANCH  19  21
ENDBRANCH   7  19
TORSDOF 5
ENDMDL