MODEL 2
REMARK VINA RESULT: -8.055374069      1.723      2.372
REMARK  4 active torsions:
REMARK  status: ('A' for Active; 'I' for Inactive)
REMARK    1  A    between atoms: N1_9  and  C9_10
REMARK    2  A    between atoms: C9_10  and  C10_11
REMARK    3  A    between atoms: C10_11  and  C11_12
REMARK    4  A    between atoms: C11_12  and  C12_13
ROOT
HETATM    1  C10 UNL     1      76.884  33.384  -9.982  1.00  0.00     0.031 C
ENDROOT
BRANCH   1   2
HETATM    2  C9  UNL     1      78.123  34.017 -10.452  1.00  0.00     0.273 C
BRANCH   2   3
HETATM    3  N1  UNL     1      78.224  35.426 -10.596  1.00  0.00     0.097 N
HETATM    4  C7  UNL     1      78.238  35.918 -11.918  1.00  0.00     0.220 C
HETATM    5  C6  UNL     1      76.922  36.699 -12.145  1.00  0.00     0.042 C
HETATM    6  C8  UNL     1      79.405  36.876 -12.142  1.00  0.00     0.043 C
HETATM    7  C5  UNL     1      76.092  36.194 -10.998  1.00  0.00     0.021 C
HETATM    8  C4  UNL     1      74.964  37.131 -10.644  1.00  0.00     0.007 C
HETATM    9  C23 UNL     1      77.120  36.097  -9.897  1.00  0.00     0.228 C
HETATM   10  C3  UNL     1      75.084  37.611  -9.217  1.00  0.00     0.005 C
HETATM   11  C2  UNL     1      76.404  38.359  -9.106  1.00  0.00    -0.017 C
HETATM   12  C1  UNL     1      76.466  39.005  -7.762  1.00  0.00     0.010 C
HETATM   13  C24 UNL     1      77.566  37.419  -9.372  1.00  0.00     0.040 C
ENDBRANCH   2   3
ENDBRANCH   1   2
BRANCH   1  14
HETATM   14  C11 UNL     1      76.919  32.345  -8.945  1.00  0.00     0.011 C
BRANCH  14  15
HETATM   15  C12 UNL     1      75.597  31.555  -8.825  1.00  0.00    -0.039 C
HETATM   16  C13 UNL     1      74.545  32.655  -8.967  1.00  0.00     0.014 C
HETATM   17  C14 UNL     1      73.206  32.240  -8.450  1.00  0.00    -0.013 C
HETATM   18  C15 UNL     1      73.368  31.974  -6.970  1.00  0.00     0.009 C
HETATM   19  C19 UNL     1      72.689  31.081  -9.220  1.00  0.00     0.010 C
HETATM   20  C16 UNL     1      74.256  30.756  -6.849  1.00  0.00    -0.013 C
HETATM   21  C17 UNL     1      73.462  29.581  -7.360  1.00  0.00     0.010 C
HETATM   22  C22 UNL     1      75.591  30.911  -7.492  1.00  0.00     0.014 C
HETATM   23  C18 UNL     1      73.285  29.760  -8.874  1.00  0.00     0.001 C
HETATM   24  C20 UNL     1      74.537  29.424  -9.614  1.00  0.00     0.063 C
HETATM   25  S1  UNL     1      74.071  28.634 -11.182  1.00  0.00    -0.092 SA
HETATM   26  C21 UNL     1      75.377  30.625  -9.957  1.00  0.00     0.026 C
ENDBRANCH  14  15
ENDBRANCH   1  14
TORSDOF 4
ENDMDL