MODEL 5
REMARK VINA RESULT: -6.707373977      1.535      3.108
REMARK  5 active torsions:
REMARK  status: ('A' for Active; 'I' for Inactive)
REMARK    1  A    between atoms: C2_2  and  C3_3
REMARK    2  A    between atoms: C2_2  and  C19_23
REMARK    3  A    between atoms: C3_3  and  C4_8
REMARK    4  A    between atoms: N1_4  and  O1_6
REMARK    5  A    between atoms: C14_18  and  C16_20
ROOT
HETATM    1  C4  UNL     1      78.827  35.636 -13.443  1.00  0.00     0.009 A
HETATM    2  C5  UNL     1      78.292  36.390 -14.596  1.00  0.00     0.017 A
HETATM    3  C6  UNL     1      79.503  35.918 -15.381  1.00  0.00     0.012 A
HETATM    4  C7  UNL     1      79.977  35.103 -14.156  1.00  0.00    -0.027 A
HETATM    5  C8  UNL     1      81.377  35.525 -13.854  1.00  0.00     0.016 C
HETATM    6  C9  UNL     1      79.944  33.654 -14.557  1.00  0.00     0.005 C
HETATM    7  C10 UNL     1      78.572  33.267 -15.110  1.00  0.00     0.016 C
HETATM    8  C11 UNL     1      78.195  33.180 -13.644  1.00  0.00    -0.035 C
HETATM    9  C12 UNL     1      77.064  32.231 -13.452  1.00  0.00     0.016 C
HETATM   10  C13 UNL     1      77.978  34.467 -12.964  1.00  0.00     0.026 C
HETATM   11  C14 UNL     1      79.590  32.674 -13.475  1.00  0.00    -0.029 C
HETATM   12  C15 UNL     1      79.782  31.259 -14.059  1.00  0.00     0.016 C
ENDROOT
BRANCH   1  13
HETATM   13  C3  UNL     1      79.009  36.548 -12.259  1.00  0.00     0.023 C
HETATM   14  N1  UNL     1      79.615  37.655 -12.375  1.00  0.00    -0.276 N
ATOM     15  H1  UNL     1      79.947  37.821 -13.325  1.00  0.00     0.193 HD
BRANCH  13  16
HETATM   16  C2  UNL     1      78.459  36.140 -10.963  1.00  0.00     0.034 C
HETATM   17  C1  UNL     1      79.523  35.529 -10.032  1.00  0.00     0.016 C
BRANCH  16  18
HETATM   18  C19 UNL     1      77.584  37.072 -10.208  1.00  0.00    -0.005 C
HETATM   19  C20 UNL     1      76.322  36.229  -9.855  1.00  0.00     0.005 C
HETATM   20  C21 UNL     1      75.079  37.061 -10.122  1.00  0.00     0.000 C
HETATM   21  C22 UNL     1      74.873  38.161  -9.135  1.00  0.00     0.000 C
HETATM   22  C23 UNL     1      76.098  39.016  -8.927  1.00  0.00     0.000 C
HETATM   23  C24 UNL     1      77.071  38.246  -8.102  1.00  0.00     0.000 C
HETATM   24  C25 UNL     1      78.153  37.548  -8.891  1.00  0.00     0.005 C
ENDBRANCH  16  18
ENDBRANCH  13  16
BRANCH  14  25
HETATM   25  O1  UNL     1      79.917  38.644 -11.555  1.00  0.00    -0.290 OA
ATOM     26  H1  UNL     1      80.646  39.247 -11.471  1.00  0.00     0.244 HD
ENDBRANCH  14  25
ENDBRANCH   1  13
BRANCH  11  27
HETATM   27  C16 UNL     1      80.261  32.720 -12.173  1.00  0.00    -0.013 C
HETATM   28  C17 UNL     1      79.662  31.588 -11.320  1.00  0.00     0.010 C
HETATM   29  C18 UNL     1      81.713  32.263 -12.409  1.00  0.00     0.010 C
ENDBRANCH  11  27
TORSDOF 5
ENDMDL