MODEL 4
REMARK VINA RESULT: -7.304561704      2.464      5.266
REMARK  5 active torsions:
REMARK  status: ('A' for Active; 'I' for Inactive)
REMARK    1  A    between atoms: C4_4  and  C5_5
REMARK    2  A    between atoms: C5_5  and  C6_6
REMARK    3  A    between atoms: C6_6  and  C7_7
REMARK    4  A    between atoms: C25_25  and  O1_26
REMARK    5  A    between atoms: O1_26  and  O2_27
ROOT
HETATM    1  C7  UNL     1      79.257  36.611 -13.517  1.00  0.00     0.009 C
HETATM    2  C8  UNL     1      78.885  37.415 -14.753  1.00  0.00     0.023 C
HETATM    3  C9  UNL     1      78.636  35.296 -13.705  1.00  0.00    -0.076 C
HETATM    4  C10 UNL     1      78.694  34.695 -15.091  1.00  0.00     0.044 C
HETATM    5  C11 UNL     1      78.021  34.561 -12.795  1.00  0.00    -0.013 C
HETATM    6  C12 UNL     1      77.916  35.070 -11.412  1.00  0.00    -0.008 C
HETATM    7  C13 UNL     1      79.105  34.680 -10.633  1.00  0.00     0.015 C
HETATM    8  C14 UNL     1      78.991  33.657  -9.590  1.00  0.00     0.010 C
HETATM    9  C15 UNL     1      77.726  32.858  -9.547  1.00  0.00    -0.047 C
HETATM   10  C16 UNL     1      77.681  31.730 -10.512  1.00  0.00     0.015 C
HETATM   11  C17 UNL     1      77.657  32.257  -8.133  1.00  0.00     0.015 C
HETATM   12  C18 UNL     1      76.578  33.816  -9.648  1.00  0.00     0.015 C
HETATM   13  C19 UNL     1      76.589  34.739 -10.771  1.00  0.00     0.007 C
HETATM   14  C20 UNL     1      76.088  36.137 -10.488  1.00  0.00    -0.038 C
HETATM   15  C21 UNL     1      74.883  36.373  -9.756  1.00  0.00     0.015 C
HETATM   16  C22 UNL     1      77.354  36.944 -10.151  1.00  0.00     0.023 C
HETATM   17  C23 UNL     1      77.745  36.564 -11.533  1.00  0.00     0.003 C
HETATM   18  C24 UNL     1      76.261  36.765 -11.884  1.00  0.00     0.023 C
HETATM   19  C25 UNL     1      78.725  37.328 -12.274  1.00  0.00     0.182 C
ENDROOT
BRANCH   1  20
HETATM   20  C6  UNL     1      80.735  36.604 -13.411  1.00  0.00     0.020 C
BRANCH  20  21
HETATM   21  C5  UNL     1      81.513  37.241 -14.514  1.00  0.00     0.028 C
BRANCH  21  22
HETATM   22  C4  UNL     1      82.140  38.458 -13.938  1.00  0.00    -0.025 C
HETATM   23  C2  UNL     1      83.092  39.079 -14.608  1.00  0.00    -0.091 C
HETATM   24  C1  UNL     1      83.524  38.565 -15.919  1.00  0.00     0.042 C
HETATM   25  C3  UNL     1      83.769  40.306 -14.096  1.00  0.00     0.042 C
ENDBRANCH  21  22
ENDBRANCH  20  21
ENDBRANCH   1  20
BRANCH  19  26
HETATM   26  O1  UNL     1      79.758  37.714 -11.417  1.00  0.00    -0.236 OA
BRANCH  26  27
HETATM   27  O2  UNL     1      79.818  38.985 -11.206  1.00  0.00    -0.250 OA
ATOM     28  H2  UNL     1      79.315  39.277 -10.455  1.00  0.00     0.253 HD
ENDBRANCH  26  27
ENDBRANCH  19  26
TORSDOF 5
ENDMDL