MODEL 2
REMARK VINA RESULT: -6.470264993      1.116      1.122
REMARK  5 active torsions:
REMARK  status: ('A' for Active; 'I' for Inactive)
REMARK    1  A    between atoms: N1_1  and  C1_5
REMARK    2  A    between atoms: C1_5  and  C2_6
REMARK    3  A    between atoms: C5_9  and  C6_10
REMARK    4  A    between atoms: C6_10  and  N2_11
REMARK    5  A    between atoms: C8_16  and  N5_17
ROOT
HETATM    1  C2  UNL     1     -20.719  16.330  -5.325  1.00  0.00     0.042 C
HETATM    2  C3  UNL     1     -20.294  16.054  -3.923  1.00  0.00     0.009 C
HETATM    3  C4  UNL     1     -19.996  14.559  -3.845  1.00  0.00     0.009 C
HETATM    4  C5  UNL     1     -20.468  14.081  -5.173  1.00  0.00     0.034 C
HETATM    5  C8  UNL     1     -20.063  15.190  -6.081  1.00  0.00     0.194 C
ENDROOT
BRANCH   4   6
HETATM    6  C6  UNL     1     -20.066  12.719  -5.556  1.00  0.00     0.128 C
BRANCH   6   7
HETATM    7  N2  UNL     1     -21.015  11.683  -5.343  1.00  0.00    -0.366 N
HETATM    8  C7  UNL     1     -20.679  10.469  -5.621  1.00  0.00     0.196 C
HETATM    9  N3  UNL     1     -21.596   9.410  -5.424  1.00  0.00    -0.067 NA
HETATM   10  N4  UNL     1     -19.392  10.131  -6.134  1.00  0.00    -0.067 NA
ATOM     11  H2  UNL     1     -21.943  11.895  -4.978  1.00  0.00     0.161 HD
ENDBRANCH   6   7
ENDBRANCH   4   6
BRANCH   5  12
HETATM   12  N5  UNL     1     -18.663  15.458  -6.126  1.00  0.00    -0.074 N
ATOM     13  H53 UNL     1     -18.181  15.202  -5.264  1.00  0.00     0.274 HD
ATOM     14  H52 UNL     1     -18.157  14.831  -6.752  1.00  0.00     0.274 HD
ATOM     15  H51 UNL     1     -18.550  16.442  -6.368  1.00  0.00     0.274 HD
ENDBRANCH   5  12
BRANCH   1  16
HETATM   16  C1  UNL     1     -20.401  17.677  -5.837  1.00  0.00     0.236 C
BRANCH  16  17
HETATM   17  N1  UNL     1     -21.356  18.693  -5.586  1.00  0.00    -0.079 N
ATOM     18  H13 UNL     1     -22.296  18.308  -5.670  1.00  0.00     0.274 HD
ATOM     19  H12 UNL     1     -21.343  18.939  -4.596  1.00  0.00     0.274 HD
ATOM     20  H11 UNL     1     -21.281  19.540  -6.150  1.00  0.00     0.274 HD
ENDBRANCH  16  17
ENDBRANCH   1  16
TORSDOF 5
ENDMDL