MODEL 2
REMARK VINA RESULT: -5.807926774      2.095      4.712
REMARK  3 active torsions:
REMARK  status: ('A' for Active; 'I' for Inactive)
REMARK    1  A    between atoms: C2_2  and  N1_3
REMARK    2  A    between atoms: N1_3  and  C4_5
REMARK    3  A    between atoms: C7_11  and  N3_12
REMARK       I    between atoms: N3_12  and  C8_14
ROOT
HETATM    1  C4  UNL     1     -19.402  15.495  -5.354  1.00  0.00     0.128 C
HETATM    2  C5  UNL     1     -19.217  14.098  -5.825  1.00  0.00     0.259 C
HETATM    3  N2  UNL     1     -19.938  13.974  -7.072  1.00  0.00    -0.071 N
ATOM      4  H21 UNL     1     -20.634  13.228  -7.060  1.00  0.00     0.277 HD
ATOM      5  H22 UNL     1     -19.364  13.606  -7.831  1.00  0.00     0.277 HD
HETATM    6  C6  UNL     1     -20.504  15.270  -7.370  1.00  0.00     0.259 C
HETATM    7  C7  UNL     1     -20.725  15.849  -6.003  1.00  0.00     0.133 C
ENDROOT
BRANCH   7   8
HETATM    8  N3  UNL     1     -20.962  17.250  -5.982  1.00  0.00    -0.357 N
HETATM    9  C8  UNL     1     -22.176  17.852  -5.545  1.00  0.00     0.182 C
HETATM   10  N4  UNL     1     -23.255  17.185  -5.366  1.00  0.00    -0.374 N
HETATM   11  N5  UNL     1     -22.211  19.253  -5.291  1.00  0.00    -0.064 NA
ATOM     12  H42 UNL     1     -23.231  16.182  -5.548  1.00  0.00     0.158 HD
ATOM     13  H41 UNL     1     -24.126  17.616  -5.054  1.00  0.00     0.158 HD
ATOM     14  H3  UNL     1     -20.213  17.865  -6.300  1.00  0.00     0.162 HD
ENDBRANCH   7   8
BRANCH   1  15
HETATM   15  N1  UNL     1     -19.403  15.727  -3.980  1.00  0.00    -0.409 N
HETATM   16  C3  UNL     1     -20.457  15.202  -3.192  1.00  0.00     0.143 C
BRANCH  15  17
HETATM   17  C2  UNL     1     -18.193  15.997  -3.307  1.00  0.00     0.112 C
HETATM   18  C1  UNL     1     -17.082  16.529  -4.144  1.00  0.00     0.026 C
ENDBRANCH  15  17
ENDBRANCH   1  15
TORSDOF 3
ENDMDL