MODEL 5
REMARK VINA RESULT: -5.748473302      2.842      6.367
REMARK  4 active torsions:
REMARK  status: ('A' for Active; 'I' for Inactive)
REMARK    1  A    between atoms: C1_2  and  N2_4
REMARK    2  A    between atoms: N2_4  and  N3_6
REMARK    3  A    between atoms: C2_8  and  C3_9
REMARK    4  A    between atoms: C3_9  and  N4_10
ROOT
HETATM    1  N3  UNL     1     -20.431  14.145  -5.066  1.00  0.00    -0.312 N
ATOM      2  H3  UNL     1     -19.759  14.458  -4.365  1.00  0.00     0.185 HD
HETATM    3  C2  UNL     1     -20.869  15.020  -5.904  1.00  0.00     0.099 C
ENDROOT
BRANCH   1   4
HETATM    4  N2  UNL     1     -20.802  12.814  -5.045  1.00  0.00    -0.279 N
ATOM      5  H2  UNL     1     -21.652  12.543  -4.549  1.00  0.00     0.189 HD
BRANCH   4   6
HETATM    6  C1  UNL     1     -20.032  11.814  -5.695  1.00  0.00     0.199 C
HETATM    7  N1  UNL     1     -18.879  12.161  -6.438  1.00  0.00    -0.068 NA
HETATM    8  S1  UNL     1     -20.436  10.226  -5.618  1.00  0.00    -0.043 SA
ENDBRANCH   4   6
ENDBRANCH   1   4
BRANCH   3   9
HETATM    9  C3  UNL     1     -20.369  16.391  -5.784  1.00  0.00     0.168 C
BRANCH   9  10
HETATM   10  N4  UNL     1     -21.394  17.356  -5.487  1.00  0.00    -0.362 N
HETATM   11  C4  UNL     1     -21.117  18.602  -5.676  1.00  0.00     0.197 C
HETATM   12  N5  UNL     1     -19.854  19.048  -6.160  1.00  0.00    -0.067 NA
HETATM   13  N6  UNL     1     -22.084  19.631  -5.404  1.00  0.00    -0.067 NA
ATOM     14  H4  UNL     1     -22.307  17.065  -5.140  1.00  0.00     0.162 HD
ENDBRANCH   9  10
ENDBRANCH   3   9
TORSDOF 4
ENDMDL