MODEL 4
REMARK VINA RESULT: -5.780195320      2.041      3.498
REMARK  3 active torsions:
REMARK  status: ('A' for Active; 'I' for Inactive)
REMARK    1  A    between atoms: N1_2  and  C2_5
REMARK    2  A    between atoms: C2_5  and  C3_6
REMARK    3  A    between atoms: C5_8  and  N2_9
REMARK       I    between atoms: N3_14  and  C8_15
ROOT
HETATM    1  C3  UNL     1     -19.991  15.915  -5.187  1.00  0.00     0.114 C
HETATM    2  C4  UNL     1     -18.939  16.058  -6.287  1.00  0.00     0.061 C
HETATM    3  C5  UNL     1     -19.319  17.285  -7.085  1.00  0.00     0.205 C
HETATM    4  C7  UNL     1     -20.270  18.001  -6.147  1.00  0.00     0.159 C
HETATM    5  N3  UNL     1     -20.997  16.837  -5.608  1.00  0.00    -0.347 N
HETATM    6  C8  UNL     1     -22.402  16.787  -5.590  1.00  0.00     0.184 C
HETATM    7  N4  UNL     1     -23.022  16.082  -6.445  1.00  0.00    -0.374 N
ATOM      8  H41 UNL     1     -24.041  16.046  -6.432  1.00  0.00     0.158 HD
ATOM      9  H42 UNL     1     -22.505  15.553  -7.147  1.00  0.00     0.158 HD
HETATM   10  N5  UNL     1     -23.113  17.515  -4.623  1.00  0.00    -0.064 NA
ENDROOT
BRANCH   1  11
HETATM   11  C2  UNL     1     -20.387  14.482  -5.141  1.00  0.00     0.257 C
BRANCH  11  12
HETATM   12  N1  UNL     1     -20.263  13.885  -3.816  1.00  0.00    -0.077 N
HETATM   13  C1  UNL     1     -20.392  14.976  -2.837  1.00  0.00     0.267 C
ATOM     14  H12 UNL     1     -19.406  13.342  -3.700  1.00  0.00     0.276 HD
ATOM     15  H11 UNL     1     -20.922  13.123  -3.656  1.00  0.00     0.276 HD
ENDBRANCH  11  12
ENDBRANCH   1  11
BRANCH   3  16
HETATM   16  N2  UNL     1     -20.098  16.916  -8.256  1.00  0.00    -0.073 N
HETATM   17  C6  UNL     1     -19.708  15.674  -8.843  1.00  0.00     0.267 C
ATOM     18  H22 UNL     1     -21.094  16.913  -8.038  1.00  0.00     0.277 HD
ATOM     19  H21 UNL     1     -20.076  17.663  -8.950  1.00  0.00     0.277 HD
ENDBRANCH   3  16
TORSDOF 3
ENDMDL