MODEL 2
REMARK VINA RESULT: -6.063668887      1.639      2.532
REMARK  4 active torsions:
REMARK  status: ('A' for Active; 'I' for Inactive)
REMARK    1  A    between atoms: C4_5  and  N2_6
REMARK    2  A    between atoms: N2_6  and  C5_9
REMARK    3  A    between atoms: C5_9  and  C6_10
REMARK    4  A    between atoms: C6_10  and  N3_11
REMARK       I    between atoms: N3_11  and  C7_13
ROOT
HETATM    1  N2  UNL     1     -19.112  14.671  -5.704  1.00  0.00    -0.068 N
ATOM      2  H21 UNL     1     -18.497  15.151  -5.047  1.00  0.00     0.277 HD
ATOM      3  H22 UNL     1     -18.409  14.253  -6.314  1.00  0.00     0.277 HD
ENDROOT
BRANCH   1   4
HETATM    4  C4  UNL     1     -19.928  15.612  -6.428  1.00  0.00     0.215 C
HETATM    5  C3  UNL     1     -19.467  17.043  -6.201  1.00  0.00     0.065 C
HETATM    6  C2  UNL     1     -20.715  17.776  -5.789  1.00  0.00     0.274 C
HETATM    7  N1  UNL     1     -21.551  16.737  -5.223  1.00  0.00     0.086 N
HETATM    8  C1  UNL     1     -22.933  17.165  -5.133  1.00  0.00     0.310 C
HETATM    9  C8  UNL     1     -21.378  15.571  -6.065  1.00  0.00     0.304 C
ENDBRANCH   1   4
BRANCH   1  10
HETATM   10  C5  UNL     1     -19.890  13.651  -5.035  1.00  0.00     0.252 C
BRANCH  10  11
HETATM   11  C6  UNL     1     -19.741  12.315  -5.735  1.00  0.00     0.150 C
BRANCH  11  12
HETATM   12  N3  UNL     1     -20.840  11.402  -5.415  1.00  0.00    -0.363 N
HETATM   13  C7  UNL     1     -20.716  10.012  -5.729  1.00  0.00     0.181 C
HETATM   14  N4  UNL     1     -19.682   9.589  -6.332  1.00  0.00    -0.374 N
HETATM   15  N5  UNL     1     -21.725   9.090  -5.385  1.00  0.00    -0.064 NA
ATOM     16  H42 UNL     1     -18.952  10.257  -6.581  1.00  0.00     0.158 HD
ATOM     17  H41 UNL     1     -19.594   8.598  -6.556  1.00  0.00     0.158 HD
ATOM     18  H3  UNL     1     -21.688  11.755  -4.971  1.00  0.00     0.162 HD
ENDBRANCH  11  12
ENDBRANCH  10  11
ENDBRANCH   1  10
TORSDOF 4
ENDMDL