MODEL 1
REMARK VINA RESULT: -5.868089138      0.000      0.000
REMARK  5 active torsions:
REMARK  status: ('A' for Active; 'I' for Inactive)
REMARK    1  A    between atoms: N1_1  and  C1_5
REMARK    2  A    between atoms: C4_8  and  N2_9
REMARK    3  A    between atoms: N2_9  and  C5_11
REMARK    4  A    between atoms: C7_14  and  N3_15
REMARK    5  A    between atoms: N3_15  and  C8_17
ROOT
HETATM    1  C1  UNL     1     -21.541  15.413  -6.272  1.00  0.00     0.206 C
HETATM    2  C2  UNL     1     -20.225  14.702  -6.085  1.00  0.00     0.037 C
HETATM    3  C3  UNL     1     -19.909  14.362  -4.687  1.00  0.00     0.027 C
HETATM    4  C4  UNL     1     -20.264  15.378  -3.657  1.00  0.00     0.085 C
HETATM    5  C6  UNL     1     -21.357  16.305  -3.986  1.00  0.00     0.052 C
HETATM    6  C7  UNL     1     -21.579  16.659  -5.402  1.00  0.00     0.116 C
ENDROOT
BRANCH   1   7
HETATM    7  N1  UNL     1     -21.590  15.880  -7.646  1.00  0.00    -0.073 N
ATOM      8  H13 UNL     1     -21.017  16.709  -7.806  1.00  0.00     0.274 HD
ATOM      9  H12 UNL     1     -21.108  15.259  -8.297  1.00  0.00     0.274 HD
ATOM     10  H11 UNL     1     -22.572  16.022  -7.885  1.00  0.00     0.274 HD
ENDBRANCH   1   7
BRANCH   6  11
HETATM   11  N3  UNL     1     -20.736  17.697  -5.925  1.00  0.00    -0.361 N
ATOM     12  H3  UNL     1     -19.907  17.430  -6.457  1.00  0.00     0.162 HD
BRANCH  11  13
HETATM   13  C8  UNL     1     -21.007  19.095  -5.731  1.00  0.00     0.348 C
HETATM   14  O2  UNL     1     -22.173  19.456  -5.406  1.00  0.00    -0.284 OA
ENDBRANCH  11  13
ENDBRANCH   6  11
BRANCH   4  15
HETATM   15  N2  UNL     1     -19.090  16.129  -3.260  1.00  0.00    -0.364 N
ATOM     16  H2  UNL     1     -19.092  16.593  -2.351  1.00  0.00     0.162 HD
BRANCH  15  17
HETATM   17  C5  UNL     1     -17.940  16.245  -4.077  1.00  0.00     0.348 C
HETATM   18  O1  UNL     1     -17.845  17.097  -5.000  1.00  0.00    -0.284 OA
ENDBRANCH  15  17
ENDBRANCH   4  15
TORSDOF 5
ENDMDL