MODEL 5
REMARK VINA RESULT: -5.681027246      1.349      4.261
REMARK  6 active torsions:
REMARK  status: ('A' for Active; 'I' for Inactive)
REMARK    1  A    between atoms: N1_2  and  C2_5
REMARK    2  A    between atoms: C2_5  and  C3_6
REMARK    3  A    between atoms: C4_7  and  C5_8
REMARK    4  A    between atoms: C5_8  and  N2_9
REMARK    5  A    between atoms: C7_14  and  C8_15
REMARK    6  A    between atoms: N4_17  and  N5_19
ROOT
HETATM    1  C3  UNL     1     -19.624  15.155  -5.074  1.00  0.00     0.028 C
HETATM    2  C4  UNL     1     -19.038  14.371  -6.229  1.00  0.00     0.018 C
HETATM    3  C6  UNL     1     -19.995  15.158  -7.117  1.00  0.00     0.019 C
HETATM    4  C7  UNL     1     -19.828  16.283  -6.082  1.00  0.00     0.058 C
ENDROOT
BRANCH   4   5
HETATM    5  C8  UNL     1     -21.029  17.095  -5.883  1.00  0.00     0.111 C
HETATM    6  N3  UNL     1     -22.348  16.564  -5.829  1.00  0.00    -0.086 NA
HETATM    7  N4  UNL     1     -20.926  18.373  -5.745  1.00  0.00    -0.297 N
ATOM      8  H4  UNL     1     -21.764  18.938  -5.605  1.00  0.00     0.187 HD
BRANCH   7   9
HETATM    9  N5  UNL     1     -19.673  18.985  -5.785  1.00  0.00    -0.344 N
ATOM     10  H52 UNL     1     -18.854  18.450  -5.498  1.00  0.00     0.176 HD
ATOM     11  H51 UNL     1     -19.584  19.952  -6.096  1.00  0.00     0.176 HD
ENDBRANCH   7   9
ENDBRANCH   4   5
BRANCH   1  12
HETATM   12  C2  UNL     1     -18.660  15.431  -3.975  1.00  0.00     0.237 C
BRANCH  12  13
HETATM   13  N1  UNL     1     -19.326  15.775  -2.755  1.00  0.00    -0.079 N
HETATM   14  C1  UNL     1     -20.612  15.057  -2.768  1.00  0.00     0.267 C
ATOM     15  H12 UNL     1     -19.424  16.781  -2.617  1.00  0.00     0.276 HD
ATOM     16  H11 UNL     1     -18.767  15.589  -1.922  1.00  0.00     0.276 HD
ENDBRANCH  12  13
ENDBRANCH   1  12
BRANCH   2  17
HETATM   17  C5  UNL     1     -19.300  12.889  -6.196  1.00  0.00     0.234 C
BRANCH  17  18
HETATM   18  N2  UNL     1     -20.442  12.548  -5.381  1.00  0.00    -0.079 N
ATOM     19  H23 UNL     1     -20.675  11.558  -5.471  1.00  0.00     0.274 HD
ATOM     20  H22 UNL     1     -20.204  12.569  -4.389  1.00  0.00     0.274 HD
ATOM     21  H21 UNL     1     -21.252  13.136  -5.578  1.00  0.00     0.274 HD
ENDBRANCH  17  18
ENDBRANCH   2  17
TORSDOF 6
ENDMDL