MODEL 4
REMARK VINA RESULT: -5.859908652      1.614      2.239
REMARK  3 active torsions:
REMARK  status: ('A' for Active; 'I' for Inactive)
REMARK    1  A    between atoms: C1_2  and  C2_3
REMARK    2  A    between atoms: C2_3  and  N1_4
REMARK    3  A    between atoms: N1_4  and  C3_7
ROOT
HETATM    1  C3  UNL     1     -20.251  13.430  -6.123  1.00  0.00     0.190 C
HETATM    2  C4  UNL     1     -18.754  13.639  -6.288  1.00  0.00     0.067 C
HETATM    3  C5  UNL     1     -18.600  14.950  -5.722  1.00  0.00     0.213 C
HETATM    4  C6  UNL     1     -17.664  15.942  -5.419  1.00  0.00     0.265 C
HETATM    5  N2  UNL     1     -18.471  16.965  -4.702  1.00  0.00    -0.071 N
ATOM      6  H21 UNL     1     -18.161  17.907  -4.945  1.00  0.00     0.277 HD
ATOM      7  H22 UNL     1     -18.252  16.967  -3.706  1.00  0.00     0.277 HD
HETATM    8  C7  UNL     1     -19.920  16.819  -4.920  1.00  0.00     0.265 C
HETATM    9  C8  UNL     1     -20.465  15.451  -4.604  1.00  0.00     0.213 C
HETATM   10  C9  UNL     1     -21.046  14.685  -5.788  1.00  0.00     0.067 C
HETATM   11  N3  UNL     1     -19.243  14.700  -4.416  1.00  0.00    -0.063 N
ATOM     12  H31 UNL     1     -18.692  14.940  -3.592  1.00  0.00     0.278 HD
ATOM     13  H32 UNL     1     -19.355  13.721  -4.151  1.00  0.00     0.278 HD
ENDROOT
BRANCH   1  14
HETATM   14  N1  UNL     1     -20.652  12.275  -5.417  1.00  0.00    -0.065 N
ATOM     15  H12 UNL     1     -21.637  12.052  -5.555  1.00  0.00     0.278 HD
ATOM     16  H11 UNL     1     -20.684  12.422  -4.408  1.00  0.00     0.278 HD
BRANCH  14  17
HETATM   17  C2  UNL     1     -19.776  11.191  -5.795  1.00  0.00     0.301 C
BRANCH  17  18
HETATM   18  C1  UNL     1     -20.546   9.836  -5.804  1.00  0.00     0.258 C
HETATM   19  O1  UNL     1     -21.589   9.769  -5.454  1.00  0.00    -0.305 OA
ENDBRANCH  17  18
ENDBRANCH  14  17
ENDBRANCH   1  14
TORSDOF 3
ENDMDL