MODEL 5
REMARK VINA RESULT: -6.070542169      1.808      2.254
REMARK  5 active torsions:
REMARK  status: ('A' for Active; 'I' for Inactive)
REMARK    1  A    between atoms: N3_4  and  C2_6
REMARK    2  A    between atoms: C2_6  and  C3_7
REMARK    3  A    between atoms: C3_7  and  O1_8
REMARK    4  A    between atoms: O1_8  and  C4_9
REMARK    5  A    between atoms: N4_12  and  N5_13
ROOT
HETATM    1  C4  UNL     1     -20.467  16.028  -5.420  1.00  0.00     0.137 C
HETATM    2  C5  UNL     1     -19.648  16.960  -6.327  1.00  0.00     0.049 C
HETATM    3  C6  UNL     1     -19.403  15.984  -7.480  1.00  0.00     0.115 C
HETATM    4  N4  UNL     1     -20.639  15.246  -7.638  1.00  0.00    -0.235 NA
HETATM    5  C7  UNL     1     -21.436  15.475  -6.470  1.00  0.00     0.144 C
ENDROOT
BRANCH   1   6
HETATM    6  O1  UNL     1     -19.642  15.005  -5.059  1.00  0.00    -0.383 OA
BRANCH   6   7
HETATM    7  C3  UNL     1     -20.231  13.857  -4.605  1.00  0.00     0.187 C
BRANCH   7   8
HETATM    8  C2  UNL     1     -19.820  12.665  -5.428  1.00  0.00     0.148 C
BRANCH   8   9
HETATM    9  N3  UNL     1     -20.852  11.650  -5.267  1.00  0.00    -0.365 N
HETATM   10  C1  UNL     1     -20.652  10.420  -5.611  1.00  0.00     0.197 C
HETATM   11  N1  UNL     1     -21.678   9.452  -5.442  1.00  0.00    -0.067 NA
HETATM   12  N2  UNL     1     -19.420  10.015  -6.159  1.00  0.00    -0.067 NA
ATOM     13  H3  UNL     1     -21.755  11.916  -4.873  1.00  0.00     0.161 HD
ENDBRANCH   8   9
ENDBRANCH   7   8
ENDBRANCH   6   7
ENDBRANCH   1   6
BRANCH   4  14
HETATM   14  N5  UNL     1     -21.306  15.784  -8.746  1.00  0.00    -0.363 NA
ATOM     15  H52 UNL     1     -21.229  15.127  -9.523  1.00  0.00     0.171 HD
ATOM     16  H51 UNL     1     -22.293  15.860  -8.500  1.00  0.00     0.171 HD
ENDBRANCH   4  14
TORSDOF 5
ENDMDL