MODEL 4
REMARK VINA RESULT: -5.758584029      2.081      2.818
REMARK  3 active torsions:
REMARK  status: ('A' for Active; 'I' for Inactive)
REMARK       I    between atoms: C1_4  and  N3_6
REMARK    1  A    between atoms: N3_6  and  C2_8
REMARK    2  A    between atoms: C4_10  and  C5_11
REMARK    3  A    between atoms: C7_14  and  N4_15
ROOT
HETATM    1  C2  UNL     1       4.687  25.768  29.930  1.00  0.00     0.115 C
HETATM    2  C3  UNL     1       4.541  24.396  30.555  1.00  0.00     0.038 C
HETATM    3  C4  UNL     1       3.031  24.245  30.627  1.00  0.00     0.051 C
HETATM    4  C6  UNL     1       2.517  25.025  29.444  1.00  0.00     0.046 C
HETATM    5  C7  UNL     1       3.711  25.648  28.768  1.00  0.00     0.207 C
ENDROOT
BRANCH   1   6
HETATM    6  N3  UNL     1       6.037  26.012  29.481  1.00  0.00    -0.358 N
HETATM    7  C1  UNL     1       6.430  27.273  28.959  1.00  0.00     0.182 C
HETATM    8  N1  UNL     1       7.301  27.370  27.985  1.00  0.00    -0.374 N
HETATM    9  N2  UNL     1       5.924  28.512  29.436  1.00  0.00    -0.064 NA
ATOM     10  H12 UNL     1       7.584  28.276  27.611  1.00  0.00     0.158 HD
ATOM     11  H11 UNL     1       7.664  26.480  27.643  1.00  0.00     0.158 HD
ATOM     12  H3  UNL     1       6.725  25.262  29.540  1.00  0.00     0.162 HD
ENDBRANCH   1   6
BRANCH   5  13
HETATM   13  N4  UNL     1       3.321  26.922  28.238  1.00  0.00    -0.073 N
ATOM     14  H43 UNL     1       2.446  27.238  28.655  1.00  0.00     0.274 HD
ATOM     15  H42 UNL     1       3.940  27.661  28.571  1.00  0.00     0.274 HD
ATOM     16  H41 UNL     1       3.263  26.925  27.220  1.00  0.00     0.274 HD
ENDBRANCH   5  13
BRANCH   3  17
HETATM   17  C5  UNL     1       2.562  24.827  31.925  1.00  0.00     0.235 C
HETATM   18  O1  UNL     1       2.512  24.167  32.952  1.00  0.00    -0.306 OA
ENDBRANCH   3  17
TORSDOF 3
ENDMDL