MODEL 5
REMARK VINA RESULT: -5.517283725      3.629      5.914
REMARK  3 active torsions:
REMARK  status: ('A' for Active; 'I' for Inactive)
REMARK    1  A    between atoms: N3_4  and  N4_6
REMARK       I    between atoms: C2_8  and  N6_10
REMARK    2  A    between atoms: N6_10  and  C3_12
REMARK    3  A    between atoms: C3_12  and  C4_13
ROOT
HETATM    1  N4  UNL     1       6.122  26.538  29.120  1.00  0.00    -0.272 N
ATOM      2  H4  UNL     1       5.740  25.598  29.016  1.00  0.00     0.189 HD
HETATM    3  C2  UNL     1       5.298  27.475  29.360  1.00  0.00     0.203 C
HETATM    4  N5  UNL     1       5.773  28.788  29.510  1.00  0.00    -0.062 NA
HETATM    5  N6  UNL     1       3.917  27.239  29.481  1.00  0.00    -0.363 N
ATOM      6  H6  UNL     1       3.424  27.708  30.241  1.00  0.00     0.162 HD
ENDROOT
BRANCH   1   7
HETATM    7  N3  UNL     1       7.498  26.681  28.987  1.00  0.00    -0.274 N
HETATM    8  C1  UNL     1       8.313  25.810  28.535  1.00  0.00     0.215 C
HETATM    9  N1  UNL     1       7.890  24.503  28.083  1.00  0.00    -0.065 NA
HETATM   10  N2  UNL     1       9.705  26.040  28.433  1.00  0.00    -0.065 NA
ATOM     11  H3  UNL     1       7.897  27.573  29.279  1.00  0.00     0.189 HD
ENDBRANCH   1   7
BRANCH   5  12
HETATM   12  C3  UNL     1       3.148  26.390  28.618  1.00  0.00     0.127 C
BRANCH  12  13
HETATM   13  C4  UNL     1       3.025  24.979  29.119  1.00  0.00     0.003 A
HETATM   14  C5  UNL     1       1.586  24.524  29.307  1.00  0.00     0.007 A
HETATM   15  C6  UNL     1       2.543  24.661  30.471  1.00  0.00     0.007 A
ENDBRANCH  12  13
ENDBRANCH   5  12
TORSDOF 3
ENDMDL