MODEL 2
REMARK VINA RESULT: -6.252655865      0.910      1.369
REMARK  3 active torsions:
REMARK  status: ('A' for Active; 'I' for Inactive)
REMARK    1  A    between atoms: C3_3  and  N1_4
REMARK       I    between atoms: N1_4  and  C4_6
REMARK       I    between atoms: C4_6  and  N3_10
REMARK    2  A    between atoms: N3_10  and  N4_12
REMARK    3  A    between atoms: N4_12  and  N5_14
ROOT
HETATM    1  C1  UNL     1       3.640  24.742  24.765  1.00  0.00     0.014 C
HETATM    2  C2  UNL     1       3.172  24.277  25.781  1.00  0.00    -0.097 C
HETATM    3  C3  UNL     1       2.630  23.707  27.039  1.00  0.00     0.231 C
ENDROOT
BRANCH   3   4
HETATM    4  N1  UNL     1       2.522  24.756  28.047  1.00  0.00    -0.215 N
HETATM    5  C4  UNL     1       2.066  24.498  29.339  1.00  0.00     0.690 C
HETATM    6  N2  UNL     1       2.731  25.032  30.304  1.00  0.00    -0.229 N
HETATM    7  N3  UNL     1       0.951  23.706  29.615  1.00  0.00    -0.113 N
HETATM    8  C5  UNL     1       2.449  24.904  31.701  1.00  0.00     0.165 C
ATOM      9  H2  UNL     1       3.536  25.603  30.048  1.00  0.00     0.177 HD
ATOM     10  H3  UNL     1       1.127  22.726  29.837  1.00  0.00     0.207 HD
ATOM     11  H1  UNL     1       2.789  25.709  27.799  1.00  0.00     0.178 HD
BRANCH   7  12
HETATM   12  N4  UNL     1      -0.384  24.123  29.617  1.00  0.00    -0.168 N
ATOM     13  H4  UNL     1      -0.621  25.095  29.817  1.00  0.00     0.215 HD
BRANCH  12  14
HETATM   14  N5  UNL     1      -1.384  23.199  29.346  1.00  0.00    -0.023 N
HETATM   15  O1  UNL     1      -1.101  22.054  28.979  1.00  0.00    -0.515 OA
HETATM   16  O2  UNL     1      -2.693  23.544  29.478  1.00  0.00    -0.515 OA
ENDBRANCH  12  14
ENDBRANCH   7  12
ENDBRANCH   3   4
TORSDOF 3
ENDMDL