MODEL 3
REMARK VINA RESULT: -5.315366409      2.347      2.934
REMARK  3 active torsions:
REMARK  status: ('A' for Active; 'I' for Inactive)
REMARK    1  A    between atoms: C2_2  and  S1_3
REMARK    2  A    between atoms: S1_3  and  N1_6
REMARK    3  A    between atoms: N1_6  and  N2_8
REMARK       I    between atoms: N2_8  and  C3_10
REMARK       I    between atoms: C3_10  and  N4_14
ROOT
HETATM    1  N2  UNL     1       5.006  25.425  29.256  1.00  0.00    -0.123 N
ATOM      2  H2  UNL     1       5.788  25.112  28.680  1.00  0.00     0.206 HD
HETATM    3  C3  UNL     1       4.825  24.873  30.534  1.00  0.00     0.686 C
HETATM    4  N3  UNL     1       5.415  23.684  30.750  1.00  0.00    -0.234 N
ATOM      5  H31 UNL     1       5.284  23.284  31.678  1.00  0.00     0.174 HD
ATOM      6  H32 UNL     1       5.984  23.247  30.025  1.00  0.00     0.174 HD
HETATM    7  N4  UNL     1       4.055  25.465  31.515  1.00  0.00    -0.230 N
ATOM      8  H4  UNL     1       4.351  26.327  31.973  1.00  0.00     0.177 HD
HETATM    9  C4  UNL     1       2.788  24.802  31.876  1.00  0.00     0.165 C
ENDROOT
BRANCH   1  10
HETATM   10  N1  UNL     1       4.119  26.410  28.755  1.00  0.00    -0.209 N
ATOM     11  H1  UNL     1       4.166  27.411  28.942  1.00  0.00     0.201 HD
BRANCH  10  12
HETATM   12  S1  UNL     1       2.955  25.618  27.780  1.00  0.00     0.265 S
HETATM   13  O1  UNL     1       1.726  25.415  28.652  1.00  0.00    -0.200 OA
HETATM   14  O2  UNL     1       2.636  26.506  26.594  1.00  0.00    -0.200 OA
BRANCH  12  15
HETATM   15  C2  UNL     1       3.488  24.066  27.161  1.00  0.00     0.122 C
HETATM   16  C1  UNL     1       2.961  22.973  27.611  1.00  0.00     0.025 C
ENDBRANCH  12  15
ENDBRANCH  10  12
ENDBRANCH   1  10
TORSDOF 3
ENDMDL