MODEL 5
REMARK VINA RESULT: -4.851064884      3.256      3.882
REMARK  4 active torsions:
REMARK  status: ('A' for Active; 'I' for Inactive)
REMARK    1  A    between atoms: N1_1  and  C1_5
REMARK    2  A    between atoms: C3_7  and  N2_8
REMARK    3  A    between atoms: N2_8  and  S1_10
REMARK    4  A    between atoms: S1_10  and  N3_11
ROOT
HETATM    1  C1  UNL     1       2.722  25.012  31.532  1.00  0.00     0.187 C
HETATM    2  C2  UNL     1       2.405  24.270  30.236  1.00  0.00     0.058 C
HETATM    3  C3  UNL     1       3.078  25.411  29.494  1.00  0.00     0.098 C
HETATM    4  C4  UNL     1       3.824  25.727  30.780  1.00  0.00     0.058 C
ENDROOT
BRANCH   3   5
HETATM    5  N2  UNL     1       3.902  24.944  28.418  1.00  0.00    -0.298 N
ATOM      6  H2  UNL     1       4.765  24.421  28.564  1.00  0.00     0.174 HD
BRANCH   5   7
HETATM    7  S1  UNL     1       3.305  25.346  26.864  1.00  0.00     0.313 S
HETATM    8  O1  UNL     1       2.571  26.660  26.847  1.00  0.00    -0.183 OA
HETATM    9  O2  UNL     1       2.315  24.310  26.354  1.00  0.00    -0.183 OA
BRANCH   7  10
HETATM   10  N3  UNL     1       4.600  25.430  25.697  1.00  0.00    -0.312 N
ATOM     11  H32 UNL     1       4.926  24.630  25.155  1.00  0.00     0.170 HD
ATOM     12  H31 UNL     1       4.976  26.376  25.635  1.00  0.00     0.170 HD
ENDBRANCH   7  10
ENDBRANCH   5   7
ENDBRANCH   3   5
BRANCH   1  13
HETATM   13  N1  UNL     1       3.145  24.167  32.610  1.00  0.00    -0.075 N
ATOM     14  H13 UNL     1       3.473  23.270  32.251  1.00  0.00     0.274 HD
ATOM     15  H12 UNL     1       4.012  24.518  33.019  1.00  0.00     0.274 HD
ATOM     16  H11 UNL     1       2.442  24.025  33.334  1.00  0.00     0.274 HD
ENDBRANCH   1  13
TORSDOF 4
ENDMDL