MODEL 4
REMARK VINA RESULT: -5.546188939      1.840      2.585
REMARK  5 active torsions:
REMARK  status: ('A' for Active; 'I' for Inactive)
REMARK    1  A    between atoms: C5_6  and  C6_7
REMARK    2  A    between atoms: C5_6  and  N2_10
REMARK    3  A    between atoms: C6_7  and  O1_8
REMARK    4  A    between atoms: N2_10  and  N3_12
REMARK    5  A    between atoms: N3_12  and  N4_13
ROOT
HETATM    1  C1  UNL     1       4.855  23.428  29.955  1.00  0.00     0.272 C
HETATM    2  N1  UNL     1       4.031  24.609  29.940  1.00  0.00    -0.072 N
HETATM    3  C2  UNL     1       2.870  24.484  30.798  1.00  0.00     0.272 C
HETATM    4  C3  UNL     1       3.580  24.822  28.583  1.00  0.00     0.239 C
HETATM    5  C4  UNL     1       4.719  25.631  27.995  1.00  0.00     0.064 C
HETATM    6  C5  UNL     1       4.875  26.665  29.123  1.00  0.00     0.091 C
HETATM    7  C7  UNL     1       4.800  25.764  30.327  1.00  0.00     0.270 C
ENDROOT
BRANCH   6   8
HETATM    8  C6  UNL     1       6.206  27.351  28.988  1.00  0.00     0.198 C
BRANCH   8   9
HETATM    9  O1  UNL     1       5.998  28.718  29.290  1.00  0.00    -0.398 OA
ATOM     10  H1  UNL     1       6.454  29.221  28.627  1.00  0.00     0.209 HD
ENDBRANCH   8   9
ENDBRANCH   6   8
BRANCH   6  11
HETATM   11  N2  UNL     1       3.754  27.540  29.022  1.00  0.00    -0.306 N
ATOM     12  H2  UNL     1       3.251  27.677  28.146  1.00  0.00     0.178 HD
BRANCH  11  13
HETATM   13  N3  UNL     1       3.395  28.186  30.176  1.00  0.00    -0.034 NA
BRANCH  13  14
HETATM   14  N4  UNL     1       3.007  29.505  29.819  1.00  0.00    -0.329 N
ATOM     15  H42 UNL     1       2.719  29.807  28.889  1.00  0.00     0.174 HD
ATOM     16  H41 UNL     1       3.073  30.078  30.661  1.00  0.00     0.174 HD
ENDBRANCH  13  14
ENDBRANCH  11  13
ENDBRANCH   6  11
TORSDOF 5
ENDMDL