MODEL 1
REMARK VINA RESULT: -5.896533887      0.000      0.000
REMARK  4 active torsions:
REMARK  status: ('A' for Active; 'I' for Inactive)
REMARK    1  A    between atoms: C2_2  and  N1_3
REMARK    2  A    between atoms: C2_2  and  C6_12
REMARK    3  A    between atoms: N1_3  and  C3_5
REMARK    4  A    between atoms: C5_9  and  O1_10
ROOT
HETATM    1  C3  UNL     1       2.015  24.648  28.479  1.00  0.00     0.139 C
HETATM    2  C4  UNL     1       2.919  23.532  28.087  1.00  0.00     0.159 C
HETATM    3  N2  UNL     1       1.932  22.524  27.639  1.00  0.00    -0.144 NA
HETATM    4  N3  UNL     1       0.835  22.632  28.480  1.00  0.00    -0.114 NA
HETATM    5  C5  UNL     1       0.958  23.821  29.250  1.00  0.00     0.250 C
ENDROOT
BRANCH   1   6
HETATM    6  N1  UNL     1       2.454  25.635  29.344  1.00  0.00    -0.408 N
ATOM      7  H1  UNL     1       1.803  26.380  29.593  1.00  0.00     0.154 HD
BRANCH   6   8
HETATM    8  C2  UNL     1       3.735  25.671  29.897  1.00  0.00     0.077 C
HETATM    9  C1  UNL     1       4.396  27.008  29.628  1.00  0.00     0.032 C
BRANCH   8  10
HETATM   10  C6  UNL     1       3.824  25.414  31.373  1.00  0.00     0.007 A
HETATM   11  C7  UNL     1       2.792  24.647  32.105  1.00  0.00     0.007 A
HETATM   12  C8  UNL     1       4.034  23.930  31.728  1.00  0.00     0.007 A
ENDBRANCH   8  10
ENDBRANCH   6   8
ENDBRANCH   1   6
BRANCH   5  13
HETATM   13  O1  UNL     1      -0.174  24.562  29.438  1.00  0.00    -0.376 OA
ATOM     14  H1  UNL     1      -0.875  24.012  29.768  1.00  0.00     0.211 HD
ENDBRANCH   5  13
TORSDOF 4
ENDMDL