MODEL 3
REMARK VINA RESULT: -5.977937617      2.250      5.283
REMARK  4 active torsions:
REMARK  status: ('A' for Active; 'I' for Inactive)
REMARK    1  A    between atoms: C1_4  and  C2_5
REMARK    2  A    between atoms: C1_4  and  N6_13
REMARK    3  A    between atoms: N2_6  and  N3_8
REMARK    4  A    between atoms: N6_13  and  C4_15
ROOT
HETATM    1  N1  UNL     1       4.441  25.135  31.623  1.00  0.00    -0.385 N
ATOM      2  H11 UNL     1       5.310  25.666  31.578  1.00  0.00     0.157 HD
ATOM      3  H12 UNL     1       4.306  24.474  32.388  1.00  0.00     0.157 HD
HETATM    4  C1  UNL     1       3.524  25.297  30.725  1.00  0.00     0.112 C
ENDROOT
BRANCH   4   5
HETATM    5  C2  UNL     1       2.291  24.543  30.790  1.00  0.00     0.154 C
HETATM    6  N2  UNL     1       1.487  24.562  29.790  1.00  0.00    -0.306 N
ATOM      7  H2  UNL     1       1.729  25.110  28.964  1.00  0.00     0.186 HD
BRANCH   6   8
HETATM    8  N3  UNL     1       0.290  23.850  29.809  1.00  0.00    -0.276 N
HETATM    9  C3  UNL     1       0.050  23.007  28.877  1.00  0.00     0.215 C
HETATM   10  N4  UNL     1       0.991  22.810  27.856  1.00  0.00    -0.065 NA
HETATM   11  N5  UNL     1      -1.176  22.289  28.912  1.00  0.00    -0.065 NA
ATOM     12  H3  UNL     1      -0.387  23.999  30.557  1.00  0.00     0.189 HD
ENDBRANCH   6   8
ENDBRANCH   4   5
BRANCH   4  13
HETATM   13  N6  UNL     1       3.712  26.225  29.651  1.00  0.00    -0.371 N
ATOM     14  H6  UNL     1       3.181  27.094  29.601  1.00  0.00     0.161 HD
BRANCH  13  15
HETATM   15  C4  UNL     1       4.690  25.878  28.641  1.00  0.00     0.083 A
HETATM   16  C5  UNL     1       4.119  25.664  27.266  1.00  0.00     0.027 A
HETATM   17  C6  UNL     1       4.746  24.545  28.028  1.00  0.00     0.027 A
ENDBRANCH  13  15
ENDBRANCH   4  13
TORSDOF 4
ENDMDL