MODEL 3
REMARK VINA RESULT: -6.955727590      1.609      1.915
REMARK  4 active torsions:
REMARK  status: ('A' for Active; 'I' for Inactive)
REMARK    1  A    between atoms: O1_3  and  N1_4
REMARK    2  A    between atoms: C3_6  and  C4_7
REMARK    3  A    between atoms: C7_10  and  N2_11
REMARK    4  A    between atoms: C14_26  and  N7_27
ROOT
HETATM    1  C1  UNL     1      -7.311   1.520  16.990  1.00  0.00     0.047 C
HETATM    2  C2  UNL     1      -6.294   1.531  16.342  1.00  0.00     0.073 C
HETATM    3  O1  UNL     1      -5.145   1.537  15.581  1.00  0.00    -0.187 OA
ENDROOT
BRANCH   3   4
HETATM    4  N1  UNL     1      -4.130   2.335  15.906  1.00  0.00    -0.262 N
HETATM    5  C3  UNL     1      -3.574   3.307  15.319  1.00  0.00     0.126 C
ATOM      6  H1  UNL     1      -3.716   2.118  16.812  1.00  0.00     0.194 HD
BRANCH   5   7
HETATM    7  C4  UNL     1      -3.877   3.899  14.033  1.00  0.00    -0.019 A
HETATM    8  C5  UNL     1      -3.970   3.104  12.899  1.00  0.00     0.015 A
HETATM    9  C6  UNL     1      -4.255   3.649  11.683  1.00  0.00     0.030 A
HETATM   10  C7  UNL     1      -4.466   5.008  11.500  1.00  0.00     0.033 A
HETATM   11  C17 UNL     1      -4.369   5.779  12.638  1.00  0.00     0.030 A
HETATM   12  C18 UNL     1      -4.078   5.238  13.899  1.00  0.00     0.015 A
BRANCH  10  13
HETATM   13  N2  UNL     1      -4.763   5.579  10.233  1.00  0.00    -0.342 N
HETATM   14  C8  UNL     1      -3.793   5.673   9.362  1.00  0.00     0.123 A
HETATM   15  N3  UNL     1      -2.549   5.243   9.651  1.00  0.00    -0.333 N
HETATM   16  C16 UNL     1      -4.133   6.237   8.146  1.00  0.00     0.079 A
HETATM   17  C9  UNL     1      -1.573   5.354   8.731  1.00  0.00     0.117 A
ATOM     18  H3  UNL     1      -2.347   4.835  10.563  1.00  0.00     0.168 HD
HETATM   19  C10 UNL     1      -0.232   4.889   9.041  1.00  0.00     0.117 C
HETATM   20  C11 UNL     1      -1.859   5.909   7.500  1.00  0.00     0.071 A
HETATM   21  N4  UNL     1       0.841   4.533   9.299  1.00  0.00    -0.190 NA
HETATM   22  C12 UNL     1      -3.135   6.351   7.202  1.00  0.00     0.053 A
HETATM   23  N5  UNL     1      -3.442   6.898   6.008  1.00  0.00    -0.351 N
HETATM   24  C13 UNL     1      -4.699   7.313   5.766  1.00  0.00     0.182 A
ATOM     25  H5  UNL     1      -2.725   6.995   5.290  1.00  0.00     0.166 HD
HETATM   26  N6  UNL     1      -5.670   7.198   6.694  1.00  0.00    -0.338 N
HETATM   27  C14 UNL     1      -5.435   6.662   7.905  1.00  0.00     0.118 A
ATOM     28  H6  UNL     1      -6.610   7.525   6.471  1.00  0.00     0.168 HD
ATOM     29  H2  UNL     1      -5.703   5.905  10.010  1.00  0.00     0.167 HD
BRANCH  27  30
HETATM   30  N7  UNL     1      -6.350   6.544   8.807  1.00  0.00    -0.380 N
HETATM   31  C15 UNL     1      -7.692   6.954   8.472  1.00  0.00     0.147 C
ATOM     32  H7  UNL     1      -6.132   6.170   9.731  1.00  0.00     0.160 HD
ENDBRANCH  27  30
ENDBRANCH  10  13
ENDBRANCH   5   7
ENDBRANCH   3   4
TORSDOF 4
ENDMDL