MODEL 5
REMARK VINA RESULT: -7.066526806      3.764      5.556
REMARK  7 active torsions:
REMARK  status: ('A' for Active; 'I' for Inactive)
REMARK    1  A    between atoms: C3_3  and  O1_4
REMARK    2  A    between atoms: C3_3  and  O2_6
REMARK    3  A    between atoms: O2_6  and  C4_7
REMARK    4  A    between atoms: C8_11  and  C9_12
REMARK    5  A    between atoms: C10_13  and  C11_14
REMARK    6  A    between atoms: C11_14  and  N1_15
REMARK    7  A    between atoms: C16_24  and  N4_25
ROOT
HETATM    1  C1  UNL     1      -7.011   1.199  17.336  1.00  0.00     0.017 C
HETATM    2  C2  UNL     1      -6.053   1.060  16.609  1.00  0.00    -0.057 C
HETATM    3  C3  UNL     1      -4.896   0.874  15.721  1.00  0.00     0.345 C
ENDROOT
BRANCH   3   4
HETATM    4  O1  UNL     1      -4.757  -0.492  15.415  1.00  0.00    -0.361 OA
ATOM      5  H1  UNL     1      -4.768  -0.998  16.219  1.00  0.00     0.213 HD
ENDBRANCH   3   4
BRANCH   3   6
HETATM    6  O2  UNL     1      -5.124   1.545  14.521  1.00  0.00    -0.309 OA
BRANCH   6   7
HETATM    7  C4  UNL     1      -4.457   2.646  14.063  1.00  0.00     0.075 A
HETATM    8  C5  UNL     1      -4.137   3.628  15.007  1.00  0.00     0.038 A
HETATM    9  C6  UNL     1      -3.462   4.771  14.617  1.00  0.00     0.019 A
HETATM   10  C7  UNL     1      -3.097   4.954  13.295  1.00  0.00     0.027 A
HETATM   11  C8  UNL     1      -2.418   6.094  12.883  1.00  0.00     0.115 A
HETATM   12  C18 UNL     1      -3.400   4.005  12.351  1.00  0.00     0.065 A
HETATM   13  N3  UNL     1      -2.081   6.241  11.600  1.00  0.00    -0.183 N
HETATM   14  C16 UNL     1      -2.373   5.316  10.667  1.00  0.00     0.679 A
ATOM     15  H3  UNL     1      -1.583   7.085  11.316  1.00  0.00     0.185 HD
HETATM   16  N5  UNL     1      -3.030   4.221  11.089  1.00  0.00    -0.191 N
ATOM     17  H5  UNL     1      -3.261   3.508  10.397  1.00  0.00     0.184 HD
HETATM   18  C19 UNL     1      -4.075   2.874  12.773  1.00  0.00     0.067 A
BRANCH  11  19
HETATM   19  C9  UNL     1      -2.073   7.124  13.825  1.00  0.00    -0.045 C
HETATM   20  C10 UNL     1      -1.765   7.994  14.614  1.00  0.00    -0.078 C
BRANCH  20  21
HETATM   21  C11 UNL     1      -1.372   9.035  15.566  1.00  0.00     0.242 C
BRANCH  21  22
HETATM   22  N1  UNL     1      -0.197   9.735  15.034  1.00  0.00    -0.292 N
HETATM   23  C12 UNL     1       0.281  10.911  15.453  1.00  0.00     0.119 A
HETATM   24  C13 UNL     1       1.397  11.260  14.721  1.00  0.00    -0.028 A
HETATM   25  C14 UNL     1       2.246  12.474  14.841  1.00  0.00     0.051 C
HETATM   26  C15 UNL     1       1.574  10.219  13.825  1.00  0.00     0.115 A
HETATM   27  N2  UNL     1       0.593   9.331  14.053  1.00  0.00    -0.309 N
ATOM     28  H2  UNL     1       0.473   8.460  13.537  1.00  0.00     0.186 HD
ENDBRANCH  21  22
ENDBRANCH  20  21
ENDBRANCH  11  19
BRANCH  14  29
HETATM   29  N4  UNL     1      -2.037   5.472   9.415  1.00  0.00    -0.230 N
HETATM   30  C17 UNL     1      -0.814   6.199   9.135  1.00  0.00     0.165 C
ATOM     31  H4  UNL     1      -2.612   5.095   8.662  1.00  0.00     0.177 HD
ENDBRANCH  14  29
ENDBRANCH   6   7
ENDBRANCH   3   6
TORSDOF 7
ENDMDL