MODEL 1
REMARK VINA RESULT: -7.028395219      0.000      0.000
REMARK  4 active torsions:
REMARK  status: ('A' for Active; 'I' for Inactive)
REMARK    1  A    between atoms: O1_2  and  C2_3
REMARK    2  A    between atoms: C12_19  and  N4_20
REMARK    3  A    between atoms: N4_20  and  C13_22
REMARK    4  A    between atoms: C17_27  and  O4_28
ROOT
HETATM    1  C2  UNL     1      -4.203   6.183  10.103  1.00  0.00     0.102 A
HETATM    2  C3  UNL     1      -4.675   6.266  11.386  1.00  0.00     0.057 A
HETATM    3  C4  UNL     1      -4.694   5.113  12.166  1.00  0.00     0.046 A
HETATM    4  C5  UNL     1      -5.155   5.164  13.438  1.00  0.00     0.259 A
HETATM    5  O2  UNL     1      -5.565   6.272  13.891  1.00  0.00    -0.267 OA
HETATM    6  N1  UNL     1      -5.209   4.077  14.289  1.00  0.00    -0.316 N
HETATM    7  C6  UNL     1      -5.915   4.296  15.503  1.00  0.00     0.159 C
HETATM    8  C7  UNL     1      -4.763   2.928  13.800  1.00  0.00     0.064 A
HETATM    9  C8  UNL     1      -4.278   2.824  12.470  1.00  0.00     0.003 A
HETATM   10  C9  UNL     1      -3.842   1.617  11.982  1.00  0.00     0.017 A
HETATM   11  C10 UNL     1      -3.863   0.509  12.778  1.00  0.00     0.033 A
HETATM   12  C11 UNL     1      -4.304   0.568  14.060  1.00  0.00     0.064 A
HETATM   13  N2  UNL     1      -4.355  -0.320  15.064  1.00  0.00    -0.298 N
ATOM     14  H2  UNL     1      -4.093  -1.303  14.987  1.00  0.00     0.187 HD
HETATM   15  N3  UNL     1      -4.783   0.248  16.145  1.00  0.00    -0.284 N
ATOM     16  H3  UNL     1      -4.906  -0.221  17.042  1.00  0.00     0.188 HD
HETATM   17  C12 UNL     1      -5.049   1.582  15.904  1.00  0.00     0.137 A
HETATM   18  C14 UNL     1      -4.762   1.786  14.599  1.00  0.00     0.065 A
HETATM   19  C15 UNL     1      -4.252   3.936  11.662  1.00  0.00    -0.005 A
HETATM   20  C16 UNL     1      -3.776   3.827  10.383  1.00  0.00     0.053 A
HETATM   21  C17 UNL     1      -3.754   4.971   9.598  1.00  0.00     0.102 A
ENDROOT
BRANCH  17  22
HETATM   22  N4  UNL     1      -5.351   2.267  16.886  1.00  0.00    -0.319 N
ATOM     23  H4  UNL     1      -4.863   3.160  16.963  1.00  0.00     0.169 HD
BRANCH  22  24
HETATM   24  C13 UNL     1      -6.267   1.994  17.907  1.00  0.00     0.354 C
HETATM   25  O3  UNL     1      -7.292   1.316  17.640  1.00  0.00    -0.283 OA
ENDBRANCH  22  24
ENDBRANCH  17  22
BRANCH  21  26
HETATM   26  O4  UNL     1      -3.275   4.873   8.304  1.00  0.00    -0.353 OA
HETATM   27  C18 UNL     1      -1.895   4.969   8.055  1.00  0.00     0.210 C
ENDBRANCH  21  26
BRANCH   1  28
HETATM   28  O1  UNL     1      -4.175   7.307   9.312  1.00  0.00    -0.353 OA
HETATM   29  C1  UNL     1      -5.328   7.788   8.670  1.00  0.00     0.210 C
ENDBRANCH   1  28
TORSDOF 4
ENDMDL