MODEL 5
REMARK VINA RESULT: -7.372156152      2.285      5.970
REMARK  4 active torsions:
REMARK  status: ('A' for Active; 'I' for Inactive)
REMARK    1  A    between atoms: O1_2  and  C2_3
REMARK    2  A    between atoms: C10_15  and  C11_16
REMARK    3  A    between atoms: C11_16  and  N3_17
REMARK    4  A    between atoms: N3_17  and  C12_19
ROOT
HETATM    1  C2  UNL     1      -6.097   3.262  15.892  1.00  0.00     0.090 A
HETATM    2  C3  UNL     1      -6.486   2.974  17.181  1.00  0.00    -0.028 A
HETATM    3  C4  UNL     1      -7.177   4.026  17.949  1.00  0.00     0.051 C
HETATM    4  C5  UNL     1      -6.214   1.714  17.707  1.00  0.00     0.012 A
HETATM    5  C6  UNL     1      -5.568   0.745  16.974  1.00  0.00     0.032 A
HETATM    6  C7  UNL     1      -5.184   1.045  15.687  1.00  0.00     0.065 A
HETATM    7  N1  UNL     1      -4.558   0.337  14.749  1.00  0.00    -0.289 N
ATOM      8  H1  UNL     1      -4.245  -0.626  14.874  1.00  0.00     0.188 HD
HETATM    9  N2  UNL     1      -4.389   1.034  13.629  1.00  0.00    -0.202 N
HETATM   10  C8  UNL     1      -3.823   0.741  12.448  1.00  0.00     0.270 A
HETATM   11  O2  UNL     1      -3.314  -0.388  12.227  1.00  0.00    -0.266 OA
HETATM   12  C9  UNL     1      -3.803   1.694  11.462  1.00  0.00     0.103 A
HETATM   13  C10 UNL     1      -4.358   2.924  11.702  1.00  0.00     0.034 A
HETATM   14  N6  UNL     1      -4.912   3.175  12.896  1.00  0.00    -0.342 N
ATOM     15  H6  UNL     1      -5.323   4.092  13.070  1.00  0.00     0.167 HD
HETATM   16  C16 UNL     1      -4.941   2.254  13.870  1.00  0.00     0.146 A
HETATM   17  C17 UNL     1      -5.450   2.299  15.149  1.00  0.00     0.072 A
ENDROOT
BRANCH  13  18
HETATM   18  C11 UNL     1      -4.358   4.003  10.649  1.00  0.00     0.178 C
BRANCH  18  19
HETATM   19  N3  UNL     1      -4.530   5.263  11.305  1.00  0.00    -0.370 N
ATOM     20  H3  UNL     1      -3.912   5.474  12.088  1.00  0.00     0.161 HD
BRANCH  19  21
HETATM   21  C12 UNL     1      -5.394   6.139  10.989  1.00  0.00     0.117 A
HETATM   22  C13 UNL     1      -5.856   7.182  11.756  1.00  0.00     0.068 A
HETATM   23  C14 UNL     1      -6.789   7.879  11.007  1.00  0.00     0.113 A
HETATM   24  N4  UNL     1      -6.870   7.262   9.835  1.00  0.00    -0.306 N
HETATM   25  C15 UNL     1      -7.755   7.696   8.753  1.00  0.00     0.177 C
HETATM   26  N5  UNL     1      -6.041   6.222   9.815  1.00  0.00    -0.284 N
ATOM     27  H5  UNL     1      -5.916   5.585   9.028  1.00  0.00     0.188 HD
ENDBRANCH  19  21
ENDBRANCH  18  19
ENDBRANCH  13  18
BRANCH   1  28
HETATM   28  O1  UNL     1      -6.346   4.480  15.349  1.00  0.00    -0.354 OA
HETATM   29  C1  UNL     1      -5.419   5.518  15.169  1.00  0.00     0.210 C
ENDBRANCH   1  28
TORSDOF 4
ENDMDL