MODEL 1
REMARK VINA RESULT: -8.447989469      0.000      0.000
REMARK  4 active torsions:
REMARK  status: ('A' for Active; 'I' for Inactive)
REMARK    1  A    between atoms: N3_17  and  C10_19
REMARK    2  A    between atoms: C10_19  and  C11_20
REMARK    3  A    between atoms: C11_20  and  C12_21
REMARK    4  A    between atoms: C15_24  and  O3_25
ROOT
HETATM    1  C1  UNL     1      -0.678   3.609  12.100  1.00  0.00     0.147 C
HETATM    2  N1  UNL     1      -1.865   4.220  12.632  1.00  0.00    -0.378 N
ATOM      3  H1  UNL     1      -2.076   4.105  13.624  1.00  0.00     0.160 HD
HETATM    4  C2  UNL     1      -2.674   4.908  11.899  1.00  0.00     0.138 A
HETATM    5  N2  UNL     1      -2.342   5.037  10.545  1.00  0.00    -0.264 N
ATOM      6  H2  UNL     1      -1.493   4.597  10.189  1.00  0.00     0.180 HD
HETATM    7  S1  UNL     1      -3.342   5.924   9.484  1.00  0.00     0.265 S
HETATM    8  O1  UNL     1      -3.806   4.970   8.398  1.00  0.00    -0.200 OA
HETATM    9  O2  UNL     1      -2.522   7.026   8.880  1.00  0.00    -0.200 OA
HETATM   10  C3  UNL     1      -4.698   6.548  10.386  1.00  0.00     0.092 A
HETATM   11  C4  UNL     1      -5.650   7.315   9.691  1.00  0.00     0.026 A
HETATM   12  C5  UNL     1      -6.727   7.821  10.363  1.00  0.00     0.002 A
HETATM   13  C6  UNL     1      -6.915   7.606  11.704  1.00  0.00     0.001 A
HETATM   14  C7  UNL     1      -5.962   6.846  12.361  1.00  0.00     0.015 A
HETATM   15  C8  UNL     1      -4.838   6.303  11.723  1.00  0.00     0.017 A
HETATM   16  C9  UNL     1      -3.889   5.510  12.530  1.00  0.00     0.085 A
HETATM   17  N3  UNL     1      -4.023   5.295  13.732  1.00  0.00    -0.386 N
ATOM     18  H3  UNL     1      -3.202   4.730  13.948  1.00  0.00     0.159 HD
ENDROOT
BRANCH  17  19
HETATM   19  C10 UNL     1      -4.639   5.383  14.926  1.00  0.00     0.124 C
BRANCH  19  20
HETATM   20  C11 UNL     1      -6.096   4.834  14.924  1.00  0.00     0.058 C
BRANCH  20  21
HETATM   21  C12 UNL     1      -6.011   3.493  15.536  1.00  0.00    -0.057 A
HETATM   22  C13 UNL     1      -6.844   3.136  16.582  1.00  0.00     0.010 A
HETATM   23  C14 UNL     1      -6.774   1.885  17.163  1.00  0.00     0.037 A
HETATM   24  C15 UNL     1      -5.870   0.940  16.724  1.00  0.00     0.065 A
HETATM   25  C16 UNL     1      -5.042   1.301  15.682  1.00  0.00     0.037 A
HETATM   26  C17 UNL     1      -5.107   2.549  15.096  1.00  0.00     0.010 A
BRANCH  24  27
HETATM   27  O3  UNL     1      -5.797  -0.320  17.307  1.00  0.00    -0.361 OA
ATOM     28  H3  UNL     1      -5.127  -0.945  17.055  1.00  0.00     0.217 HD
ENDBRANCH  24  27
ENDBRANCH  20  21
ENDBRANCH  19  20
ENDBRANCH  17  19
TORSDOF 4
ENDMDL