MODEL 3
REMARK VINA RESULT: -7.423010523      2.667      4.127
REMARK  6 active torsions:
REMARK  status: ('A' for Active; 'I' for Inactive)
REMARK    1  A    between atoms: O1_2  and  C2_3
REMARK    2  A    between atoms: N1_5  and  O2_6
REMARK    3  A    between atoms: C7_11  and  N2_12
REMARK    4  A    between atoms: N2_12  and  C8_14
REMARK    5  A    between atoms: C12_20  and  N4_21
REMARK    6  A    between atoms: N4_21  and  C13_23
ROOT
HETATM    1  C8  UNL     1      -3.816   4.326  13.204  1.00  0.00     0.684 A
HETATM    2  N3  UNL     1      -2.676   4.436  13.909  1.00  0.00    -0.201 N
ATOM      3  H3  UNL     1      -2.303   3.614  14.384  1.00  0.00     0.183 HD
HETATM    4  C9  UNL     1      -2.010   5.615  14.004  1.00  0.00     0.116 A
HETATM    5  C10 UNL     1      -2.537   6.715  13.351  1.00  0.00    -0.001 A
HETATM    6  C11 UNL     1      -1.854   8.032  13.417  1.00  0.00     0.054 C
HETATM    7  C12 UNL     1      -3.706   6.613  12.625  1.00  0.00     0.129 A
HETATM    8  N7  UNL     1      -4.306   5.412  12.579  1.00  0.00    -0.176 N
ATOM      9  H7  UNL     1      -5.171   5.320  12.047  1.00  0.00     0.186 HD
ENDROOT
BRANCH   1  10
HETATM   10  N2  UNL     1      -4.449   3.227  13.109  1.00  0.00    -0.189 N
ATOM     11  H2  UNL     1      -4.759   2.958  12.175  1.00  0.00     0.184 HD
BRANCH  10  12
HETATM   12  C7  UNL     1      -4.762   2.350  14.145  1.00  0.00     0.086 A
HETATM   13  C2  UNL     1      -4.334   1.043  14.105  1.00  0.00     0.113 A
HETATM   14  C3  UNL     1      -4.656   0.185  15.148  1.00  0.00     0.162 A
HETATM   15  N1  UNL     1      -5.391   0.635  16.200  1.00  0.00    -0.238 N
HETATM   16  C4  UNL     1      -5.816   1.908  16.252  1.00  0.00     0.038 A
HETATM   17  C5  UNL     1      -6.629   2.384  17.428  1.00  0.00     0.071 C
HETATM   18  C6  UNL     1      -5.505   2.765  15.230  1.00  0.00     0.060 A
BRANCH  13  19
HETATM   19  O1  UNL     1      -3.588   0.655  13.001  1.00  0.00    -0.352 OA
HETATM   20  C1  UNL     1      -4.158  -0.269  12.096  1.00  0.00     0.210 C
ENDBRANCH  13  19
BRANCH  15  21
HETATM   21  O2  UNL     1      -5.725  -0.190  17.246  1.00  0.00    -0.283 OA
ATOM     22  H2  UNL     1      -6.403  -0.850  17.158  1.00  0.00     0.245 HD
ENDBRANCH  15  21
ENDBRANCH  10  12
ENDBRANCH   1  10
BRANCH   7  23
HETATM   23  N4  UNL     1      -4.169   7.652  12.031  1.00  0.00    -0.339 N
ATOM     24  H4  UNL     1      -3.670   8.532  12.164  1.00  0.00     0.167 HD
BRANCH  23  25
HETATM   25  C13 UNL     1      -5.307   7.671  11.212  1.00  0.00     0.068 A
HETATM   26  C14 UNL     1      -6.615   7.998  11.503  1.00  0.00     0.138 A
HETATM   27  N5  UNL     1      -7.303   7.849  10.356  1.00  0.00    -0.308 N
HETATM   28  N6  UNL     1      -6.539   7.458   9.373  1.00  0.00    -0.306 N
ATOM     29  H5  UNL     1      -8.304   8.021  10.266  1.00  0.00     0.186 HD
HETATM   30  C15 UNL     1      -6.888   7.182   7.983  1.00  0.00     0.177 C
HETATM   31  C16 UNL     1      -5.297   7.339   9.873  1.00  0.00     0.140 A
ENDBRANCH  23  25
ENDBRANCH   7  23
TORSDOF 6
ENDMDL