MODEL 3
REMARK VINA RESULT: -7.141867975      4.109      5.104
REMARK  6 active torsions:
REMARK  status: ('A' for Active; 'I' for Inactive)
REMARK    1  A    between atoms: O1_1  and  N1_3
REMARK    2  A    between atoms: C3_6  and  N2_7
REMARK    3  A    between atoms: N2_7  and  C4_9
REMARK    4  A    between atoms: C5_12  and  N4_13
REMARK    5  A    between atoms: C6_14  and  C7_15
REMARK    6  A    between atoms: C7_15  and  O2_16
ROOT
HETATM    1  C4  UNL     1      -4.218   3.407  14.547  1.00  0.00     0.684 A
HETATM    2  N3  UNL     1      -3.154   4.108  14.092  1.00  0.00    -0.176 N
ATOM      3  H3  UNL     1      -2.371   3.611  13.669  1.00  0.00     0.186 HD
HETATM    4  C5  UNL     1      -3.111   5.449  14.188  1.00  0.00     0.130 A
HETATM    5  C14 UNL     1      -4.194   6.071  14.766  1.00  0.00     0.067 A
HETATM    6  C15 UNL     1      -5.277   5.361  15.229  1.00  0.00     0.110 A
HETATM    7  N6  UNL     1      -5.286   4.003  15.115  1.00  0.00    -0.202 N
ATOM      8  H6  UNL     1      -6.077   3.454  15.451  1.00  0.00     0.183 HD
ENDROOT
BRANCH   4   9
HETATM    9  N4  UNL     1      -1.985   6.192  13.706  1.00  0.00    -0.282 N
HETATM   10  C6  UNL     1      -1.151   5.844  12.709  1.00  0.00     0.114 A
HETATM   11  N5  UNL     1      -0.203   6.798  12.539  1.00  0.00    -0.342 N
HETATM   12  C8  UNL     1      -0.423   7.782  13.439  1.00  0.00     0.061 A
ATOM     13  H5  UNL     1       0.548   6.777  11.849  1.00  0.00     0.167 HD
HETATM   14  C9  UNL     1       0.240   8.972  13.692  1.00  0.00     0.032 A
HETATM   15  C13 UNL     1      -1.533   7.385  14.153  1.00  0.00     0.069 A
HETATM   16  C10 UNL     1      -0.257   9.763  14.704  1.00  0.00     0.002 A
HETATM   17  C11 UNL     1      -1.372   9.379  15.431  1.00  0.00     0.002 A
HETATM   18  C12 UNL     1      -2.015   8.190  15.160  1.00  0.00     0.032 A
BRANCH  10  19
HETATM   19  C7  UNL     1      -1.222   4.610  11.891  1.00  0.00     0.241 C
BRANCH  19  20
HETATM   20  O2  UNL     1      -0.616   3.519  12.541  1.00  0.00    -0.393 OA
ATOM     21  H2  UNL     1      -0.129   3.794  13.309  1.00  0.00     0.209 HD
ENDBRANCH  19  20
ENDBRANCH  10  19
ENDBRANCH   4   9
BRANCH   1  22
HETATM   22  N2  UNL     1      -4.151   2.117  14.401  1.00  0.00    -0.192 N
ATOM     23  H2  UNL     1      -3.940   1.528  15.208  1.00  0.00     0.184 HD
BRANCH  22  24
HETATM   24  C3  UNL     1      -4.367   1.518  13.132  1.00  0.00     0.051 A
HETATM   25  C2  UNL     1      -4.134   0.172  12.969  1.00  0.00     0.050 A
HETATM   26  C1  UNL     1      -4.345  -0.406  11.734  1.00  0.00     0.124 A
HETATM   27  N1  UNL     1      -4.774   0.311  10.680  1.00  0.00    -0.247 N
HETATM   28  C17 UNL     1      -5.003   1.621  10.833  1.00  0.00     0.124 A
HETATM   29  C16 UNL     1      -4.808   2.241  12.036  1.00  0.00     0.050 A
BRANCH  27  30
HETATM   30  O1  UNL     1      -4.969  -0.329   9.461  1.00  0.00    -0.284 OA
ATOM     31  H1  UNL     1      -5.415   0.134   8.761  1.00  0.00     0.245 HD
ENDBRANCH  27  30
ENDBRANCH  22  24
ENDBRANCH   1  22
TORSDOF 6
ENDMDL