MODEL 2
REMARK VINA RESULT: -7.693172501      1.736      4.170
REMARK  5 active torsions:
REMARK  status: ('A' for Active; 'I' for Inactive)
REMARK    1  A    between atoms: C4_8  and  N3_9
REMARK    2  A    between atoms: N3_9  and  C5_11
REMARK    3  A    between atoms: C5_11  and  C6_12
REMARK    4  A    between atoms: C10_17  and  N4_18
REMARK    5  A    between atoms: N4_18  and  C11_20
ROOT
HETATM    1  O1  UNL     1      -1.093   8.972  14.778  1.00  0.00    -0.268 OA
HETATM    2  C1  UNL     1      -1.805   8.113  14.208  1.00  0.00     0.260 A
HETATM    3  C2  UNL     1      -2.412   8.414  12.985  1.00  0.00     0.095 A
HETATM    4  C3  UNL     1      -3.198   7.487  12.340  1.00  0.00     0.140 A
HETATM    5  N1  UNL     1      -3.367   6.289  12.918  1.00  0.00    -0.096 N
HETATM    6  N2  UNL     1      -4.122   5.356  12.330  1.00  0.00    -0.262 N
ATOM      7  H2  UNL     1      -4.561   5.584  11.437  1.00  0.00     0.190 HD
HETATM    8  C4  UNL     1      -4.335   4.142  12.847  1.00  0.00     0.162 A
HETATM    9  C10 UNL     1      -3.743   3.834  14.051  1.00  0.00     0.167 A
HETATM   10  N5  UNL     1      -2.982   4.737  14.670  1.00  0.00    -0.171 N
ATOM     11  H5  UNL     1      -2.541   4.515  15.562  1.00  0.00     0.186 HD
HETATM   12  C17 UNL     1      -2.803   5.949  14.101  1.00  0.00     0.707 A
HETATM   13  N6  UNL     1      -2.034   6.890  14.705  1.00  0.00    -0.154 N
ATOM     14  H6  UNL     1      -1.601   6.650  15.598  1.00  0.00     0.187 HD
ENDROOT
BRANCH   8  15
HETATM   15  N3  UNL     1      -5.055   3.241  12.293  1.00  0.00    -0.366 N
ATOM     16  H3  UNL     1      -5.946   3.018  12.735  1.00  0.00     0.161 HD
BRANCH  15  17
HETATM   17  C5  UNL     1      -4.713   2.523  11.108  1.00  0.00     0.186 C
BRANCH  17  18
HETATM   18  C6  UNL     1      -4.528   1.098  11.435  1.00  0.00     0.070 A
HETATM   19  C7  UNL     1      -4.775   0.038  10.604  1.00  0.00     0.036 A
HETATM   20  C8  UNL     1      -4.467  -1.124  11.309  1.00  0.00     0.027 A
HETATM   21  C9  UNL     1      -4.047  -0.695  12.542  1.00  0.00     0.142 A
HETATM   22  O2  UNL     1      -4.101   0.615  12.567  1.00  0.00    -0.325 OA
ENDBRANCH  17  18
ENDBRANCH  15  17
ENDBRANCH   8  15
BRANCH   9  23
HETATM   23  N4  UNL     1      -3.931   2.660  14.581  1.00  0.00    -0.339 N
ATOM     24  H4  UNL     1      -3.410   1.850  14.244  1.00  0.00     0.167 HD
BRANCH  23  25
HETATM   25  C11 UNL     1      -4.871   2.525  15.633  1.00  0.00     0.033 A
HETATM   26  C12 UNL     1      -5.951   3.392  15.789  1.00  0.00     0.029 A
HETATM   27  C13 UNL     1      -6.863   3.259  16.812  1.00  0.00     0.002 A
HETATM   28  C14 UNL     1      -6.706   2.230  17.717  1.00  0.00     0.000 A
HETATM   29  C15 UNL     1      -5.631   1.358  17.572  1.00  0.00     0.002 A
HETATM   30  C16 UNL     1      -4.724   1.502  16.542  1.00  0.00     0.029 A
ENDBRANCH  23  25
ENDBRANCH   9  23
TORSDOF 5
ENDMDL