MODEL 4
REMARK VINA RESULT: -7.679636551      4.339      6.629
REMARK  4 active torsions:
REMARK  status: ('A' for Active; 'I' for Inactive)
REMARK    1  A    between atoms: O1_2  and  C2_3
REMARK    2  A    between atoms: C5_6  and  N1_7
REMARK    3  A    between atoms: N1_7  and  C6_9
REMARK    4  A    between atoms: N4_22  and  C15_24
ROOT
HETATM    1  C15 UNL     1      -4.370   0.649  12.517  1.00  0.00     0.262 C
HETATM    2  C16 UNL     1      -3.927  -0.672  12.038  1.00  0.00     0.079 C
HETATM    3  N5  UNL     1      -3.594  -1.700  11.677  1.00  0.00    -0.196 NA
ENDROOT
BRANCH   1   4
HETATM    4  N4  UNL     1      -4.698   1.503  11.412  1.00  0.00    -0.212 N
HETATM    5  C14 UNL     1      -4.413   2.769  11.405  1.00  0.00     0.696 A
HETATM    6  N3  UNL     1      -3.800   3.505  12.353  1.00  0.00    -0.172 N
HETATM    7  N6  UNL     1      -4.691   3.623  10.408  1.00  0.00    -0.109 N
HETATM    8  C13 UNL     1      -3.713   4.777  11.927  1.00  0.00     0.173 A
ATOM      9  H3  UNL     1      -3.458   3.153  13.248  1.00  0.00     0.186 HD
HETATM   10  C12 UNL     1      -3.181   5.923  12.505  1.00  0.00     0.038 A
HETATM   11  N7  UNL     1      -4.276   4.847  10.701  1.00  0.00    -0.054 N
HETATM   12  C7  UNL     1      -3.237   7.109  11.819  1.00  0.00     0.063 A
HETATM   13  C11 UNL     1      -2.600   5.849  13.769  1.00  0.00     0.017 A
HETATM   14  N2  UNL     1      -3.813   7.120  10.593  1.00  0.00    -0.189 N
HETATM   15  C8  UNL     1      -2.711   8.252  12.386  1.00  0.00     0.031 A
HETATM   16  C6  UNL     1      -4.329   6.012  10.031  1.00  0.00     0.706 A
ATOM     17  H2  UNL     1      -3.858   8.000  10.078  1.00  0.00     0.184 HD
HETATM   18  C9  UNL     1      -2.141   8.180  13.627  1.00  0.00     0.002 A
HETATM   19  C10 UNL     1      -2.080   6.992  14.326  1.00  0.00     0.001 A
ATOM     20  H6  UNL     1      -5.160   3.364   9.539  1.00  0.00     0.207 HD
ATOM     21  H4  UNL     1      -5.172   1.101  10.602  1.00  0.00     0.178 HD
BRANCH  16  22
HETATM   22  N1  UNL     1      -4.859   6.107   8.863  1.00  0.00    -0.190 N
ATOM     23  H1  UNL     1      -4.524   5.475   8.135  1.00  0.00     0.184 HD
BRANCH  22  24
HETATM   24  C5  UNL     1      -5.867   7.022   8.524  1.00  0.00     0.049 A
HETATM   25  C4  UNL     1      -7.079   6.906   9.197  1.00  0.00     0.033 A
HETATM   26  C3  UNL     1      -8.076   7.799   8.874  1.00  0.00     0.039 A
HETATM   27  C2  UNL     1      -7.898   8.790   7.912  1.00  0.00     0.068 A
HETATM   28  C18 UNL     1      -6.672   8.884   7.252  1.00  0.00     0.039 A
HETATM   29  C17 UNL     1      -5.665   7.997   7.565  1.00  0.00     0.033 A
BRANCH  27  30
HETATM   30  O1  UNL     1      -8.923   9.674   7.611  1.00  0.00    -0.356 OA
HETATM   31  C1  UNL     1      -8.895  10.407   6.420  1.00  0.00     0.210 C
ENDBRANCH  27  30
ENDBRANCH  22  24
ENDBRANCH  16  22
ENDBRANCH   1   4
TORSDOF 4
ENDMDL