MODEL 3
REMARK VINA RESULT: -7.367118299      1.351      2.029
REMARK  6 active torsions:
REMARK  status: ('A' for Active; 'I' for Inactive)
REMARK    1  A    between atoms: C3_4  and  C4_5
REMARK    2  A    between atoms: C4_5  and  C5_6
REMARK    3  A    between atoms: C13_15  and  O3_16
REMARK    4  A    between atoms: C15_18  and  C16_19
REMARK    5  A    between atoms: C17_21  and  O5_22
REMARK    6  A    between atoms: C18_24  and  O6_25
ROOT
HETATM    1  C1  UNL     1      -3.810   2.402  11.325  1.00  0.00     0.052 C
HETATM    2  C2  UNL     1      -4.306   3.156  12.201  1.00  0.00     0.081 A
HETATM    3  O1  UNL     1      -4.547   4.442  12.044  1.00  0.00    -0.307 OA
HETATM    4  C3  UNL     1      -5.041   5.259  12.960  1.00  0.00     0.127 A
HETATM    5  C11 UNL     1      -5.325   4.737  14.174  1.00  0.00     0.219 A
HETATM    6  O2  UNL     1      -5.790   5.446  15.100  1.00  0.00    -0.284 OA
HETATM    7  C12 UNL     1      -5.108   3.373  14.448  1.00  0.00     0.067 A
HETATM    8  C13 UNL     1      -5.380   2.790  15.664  1.00  0.00     0.099 A
HETATM    9  C15 UNL     1      -5.136   1.421  15.863  1.00  0.00     0.072 A
HETATM   10  C17 UNL     1      -4.634   0.602  14.890  1.00  0.00     0.116 A
HETATM   11  C18 UNL     1      -4.367   1.225  13.659  1.00  0.00     0.114 A
HETATM   12  C19 UNL     1      -4.596   2.587  13.446  1.00  0.00     0.050 A
ENDROOT
BRANCH   4  13
HETATM   13  C4  UNL     1      -5.224   6.538  12.607  1.00  0.00     0.053 C
BRANCH  13  14
HETATM   14  C5  UNL     1      -4.120   7.431  12.340  1.00  0.00    -0.034 A
HETATM   15  C6  UNL     1      -4.273   8.347  11.303  1.00  0.00     0.011 A
HETATM   16  C7  UNL     1      -3.232   9.212  11.062  1.00  0.00     0.001 A
HETATM   17  C8  UNL     1      -2.071   9.175  11.830  1.00  0.00     0.000 A
HETATM   18  C9  UNL     1      -1.984   8.227  12.864  1.00  0.00     0.001 A
HETATM   19  C10 UNL     1      -2.997   7.347  13.129  1.00  0.00     0.011 A
ENDBRANCH  13  14
ENDBRANCH   4  13
BRANCH   8  20
HETATM   20  O3  UNL     1      -5.882   3.566  16.688  1.00  0.00    -0.354 OA
HETATM   21  C14 UNL     1      -7.241   3.309  17.085  1.00  0.00     0.210 C
ENDBRANCH   8  20
BRANCH  11  22
HETATM   22  O6  UNL     1      -3.877   0.483  12.665  1.00  0.00    -0.357 OA
ATOM     23  H6  UNL     1      -3.409   0.920  11.963  1.00  0.00     0.217 HD
ENDBRANCH  11  22
BRANCH   9  24
HETATM   24  C16 UNL     1      -5.460   0.891  17.216  1.00  0.00     0.275 C
HETATM   25  O4  UNL     1      -5.993  -0.228  17.368  1.00  0.00    -0.301 OA
ENDBRANCH   9  24
BRANCH  10  26
HETATM   26  O5  UNL     1      -4.365  -0.743  15.008  1.00  0.00    -0.357 OA
ATOM     27  H5  UNL     1      -3.772  -1.251  14.468  1.00  0.00     0.217 HD
ENDBRANCH  10  26
TORSDOF 6
ENDMDL