MODEL 1
REMARK VINA RESULT: -7.547864921      0.000      0.000
REMARK  10 active torsions:
REMARK  status: ('A' for Active; 'I' for Inactive)
REMARK    1  A    between atoms: C2_2  and  O1_5
REMARK    2  A    between atoms: O1_5  and  C5_6
REMARK    3  A    between atoms: C5_6  and  O2_7
REMARK    4  A    between atoms: C5_6  and  C6_9
REMARK    5  A    between atoms: C6_9  and  C7_10
REMARK    6  A    between atoms: C7_10  and  O3_11
REMARK    7  A    between atoms: O3_11  and  C8_12
REMARK    8  A    between atoms: C10_14  and  O4_15
REMARK    9  A    between atoms: C10_14  and  C11_17
REMARK   10  A    between atoms: C15_22  and  O6_23
ROOT
HETATM    1  C8  UNL     1      -3.825   3.810  12.615  1.00  0.00     0.185 C
HETATM    2  C9  UNL     1      -4.519   2.712  12.457  1.00  0.00     0.105 C
HETATM    3  C10 UNL     1      -4.629   2.052  11.163  1.00  0.00     0.197 C
HETATM    4  O5  UNL     1      -4.232   2.748  10.082  1.00  0.00    -0.297 OA
HETATM    5  C15 UNL     1      -3.421   3.805  10.219  1.00  0.00     0.421 C
HETATM    6  O7  UNL     1      -3.198   4.315  11.482  1.00  0.00    -0.275 OA
ENDROOT
BRANCH   1   7
HETATM    7  O3  UNL     1      -3.701   4.462  13.834  1.00  0.00    -0.330 OA
BRANCH   7   8
HETATM    8  C7  UNL     1      -4.345   3.879  14.951  1.00  0.00     0.182 C
BRANCH   8   9
HETATM    9  C6  UNL     1      -3.426   2.907  15.668  1.00  0.00     0.087 C
BRANCH   9  10
HETATM   10  C5  UNL     1      -4.337   1.918  16.401  1.00  0.00     0.259 C
BRANCH  10  11
HETATM   11  O1  UNL     1      -5.630   2.083  15.975  1.00  0.00    -0.352 OA
BRANCH  11  12
HETATM   12  C2  UNL     1      -6.563   2.115  16.990  1.00  0.00     0.053 C
HETATM   13  C1  UNL     1      -7.234   3.485  16.963  1.00  0.00     0.045 C
HETATM   14  C3  UNL     1      -5.994   1.923  18.357  1.00  0.00     0.045 C
HETATM   15  C4  UNL     1      -7.682   1.097  16.775  1.00  0.00     0.045 C
ENDBRANCH  11  12
ENDBRANCH  10  11
BRANCH  10  16
HETATM   16  O2  UNL     1      -3.822   0.643  16.082  1.00  0.00    -0.371 OA
ATOM     17  H2  UNL     1      -2.960   0.688  15.685  1.00  0.00     0.212 HD
ENDBRANCH  10  16
ENDBRANCH   9  10
ENDBRANCH   8   9
ENDBRANCH   7   8
ENDBRANCH   1   7
BRANCH   3  18
HETATM   18  O4  UNL     1      -5.989   1.703  10.986  1.00  0.00    -0.361 OA
ATOM     19  H4  UNL     1      -6.215   1.095  11.680  1.00  0.00     0.213 HD
ENDBRANCH   3  18
BRANCH   3  20
HETATM   20  C11 UNL     1      -3.891   0.709  11.241  1.00  0.00     0.009 C
HETATM   21  C12 UNL     1      -4.494  -0.189  10.172  1.00  0.00     0.020 C
HETATM   22  C13 UNL     1      -2.419   0.861  11.033  1.00  0.00     0.020 C
HETATM   23  C14 UNL     1      -4.124   0.058  12.595  1.00  0.00     0.020 C
ENDBRANCH   3  20
BRANCH   5  24
HETATM   24  O6  UNL     1      -3.897   4.858   9.409  1.00  0.00    -0.349 OA
ATOM     25  H6  UNL     1      -4.720   5.174   9.763  1.00  0.00     0.215 HD
ENDBRANCH   5  24
TORSDOF 10
ENDMDL