MODEL 2
REMARK VINA RESULT: -6.475452558      2.874      7.164
REMARK  7 active torsions:
REMARK  status: ('A' for Active; 'I' for Inactive)
REMARK    1  A    between atoms: C6_6  and  O1_7
REMARK    2  A    between atoms: C7_9  and  C8_10
REMARK    3  A    between atoms: C8_10  and  N1_11
REMARK    4  A    between atoms: N1_11  and  C9_14
REMARK    5  A    between atoms: C9_14  and  C10_15
REMARK    6  A    between atoms: C10_15  and  C11_16
REMARK    7  A    between atoms: C11_16  and  N2_17
ROOT
HETATM    1  C1  UNL     1      -3.824   4.497  10.304  1.00  0.00     0.010 C
HETATM    2  C2  UNL     1      -2.982   5.161  11.344  1.00  0.00    -0.005 C
HETATM    3  C3  UNL     1      -2.665   4.267  12.522  1.00  0.00     0.076 C
HETATM    4  C4  UNL     1      -3.865   4.087  13.358  1.00  0.00     0.203 C
HETATM    5  C5  UNL     1      -4.407   5.370  13.883  1.00  0.00     0.103 C
HETATM    6  C6  UNL     1      -4.660   6.359  12.768  1.00  0.00     0.129 C
HETATM    7  C7  UNL     1      -3.505   6.474  11.839  1.00  0.00     0.044 C
HETATM    8  O2  UNL     1      -4.926   3.401  12.769  1.00  0.00    -0.197 OA
HETATM    9  O3  UNL     1      -5.640   3.178  13.886  1.00  0.00    -0.197 OA
HETATM   10  C12 UNL     1      -4.699   2.473  14.629  1.00  0.00     0.204 C
HETATM   11  C13 UNL     1      -4.660   1.081  14.073  1.00  0.00     0.098 C
HETATM   12  C14 UNL     1      -4.279  -0.000  15.003  1.00  0.00     0.173 C
HETATM   13  O4  UNL     1      -4.273   0.321  16.342  1.00  0.00    -0.391 OA
HETATM   14  C15 UNL     1      -5.316   1.176  16.697  1.00  0.00     0.173 C
HETATM   15  C16 UNL     1      -4.994   2.526  16.106  1.00  0.00     0.098 C
HETATM   16  O5  UNL     1      -3.538   3.208  14.396  1.00  0.00    -0.313 OA
ENDROOT
BRANCH   7  17
HETATM   17  C8  UNL     1      -3.742   7.380  10.675  1.00  0.00     0.239 C
BRANCH  17  18
HETATM   18  N1  UNL     1      -4.402   8.595  11.001  1.00  0.00    -0.075 N
ATOM     19  H12 UNL     1      -4.877   8.531  11.901  1.00  0.00     0.277 HD
ATOM     20  H11 UNL     1      -3.735   9.333  11.227  1.00  0.00     0.277 HD
BRANCH  18  21
HETATM   21  C9  UNL     1      -5.303   9.000   9.959  1.00  0.00     0.233 C
BRANCH  21  22
HETATM   22  C10 UNL     1      -6.711   8.922  10.445  1.00  0.00     0.055 C
BRANCH  22  23
HETATM   23  C11 UNL     1      -7.565   8.149   9.457  1.00  0.00     0.231 C
BRANCH  23  24
HETATM   24  N2  UNL     1      -7.018   6.798   9.409  1.00  0.00    -0.079 N
ATOM     25  H23 UNL     1      -6.653   6.477  10.305  1.00  0.00     0.274 HD
ATOM     26  H22 UNL     1      -7.731   6.078   9.297  1.00  0.00     0.274 HD
ATOM     27  H21 UNL     1      -6.321   6.796   8.665  1.00  0.00     0.274 HD
ENDBRANCH  23  24
ENDBRANCH  22  23
ENDBRANCH  21  22
ENDBRANCH  18  21
ENDBRANCH  17  18
ENDBRANCH   7  17
BRANCH   6  28
HETATM   28  O1  UNL     1      -5.812   6.158  12.066  1.00  0.00    -0.395 OA
ATOM     29  H1  UNL     1      -5.874   6.637  11.249  1.00  0.00     0.210 HD
ENDBRANCH   6  28
TORSDOF 7
ENDMDL