MODEL 1
REMARK VINA RESULT: -7.020128560      0.000      0.000
REMARK  8 active torsions:
REMARK  status: ('A' for Active; 'I' for Inactive)
REMARK    1  A    between atoms: C2_2  and  C3_3
REMARK    2  A    between atoms: C4_5  and  C5_6
REMARK    3  A    between atoms: C5_6  and  S1_7
REMARK    4  A    between atoms: S1_7  and  C6_8
REMARK    5  A    between atoms: C7_13  and  C8_14
REMARK    6  A    between atoms: C12_19  and  O2_20
REMARK    7  A    between atoms: C13_22  and  O3_23
REMARK    8  A    between atoms: C14_25  and  O4_26
ROOT
HETATM    1  C3  UNL     1      -4.479   1.587  13.947  1.00  0.00     0.153 C
HETATM    2  O1  UNL     1      -5.446   2.442  13.531  1.00  0.00    -0.374 OA
HETATM    3  C4  UNL     1      -6.007   3.281  14.421  1.00  0.00     0.163 C
HETATM    4  C12 UNL     1      -5.657   3.037  15.861  1.00  0.00     0.179 C
HETATM    5  C13 UNL     1      -5.767   1.527  16.091  1.00  0.00     0.180 C
HETATM    6  C14 UNL     1      -4.658   0.922  15.263  1.00  0.00     0.178 C
ENDROOT
BRANCH   3   7
HETATM    7  C5  UNL     1      -5.782   4.750  14.136  1.00  0.00     0.117 C
BRANCH   7   8
HETATM    8  S1  UNL     1      -4.198   5.350  14.719  1.00  0.00    -0.090 SA
BRANCH   8   9
HETATM    9  C6  UNL     1      -2.923   4.599  13.716  1.00  0.00     0.162 A
HETATM   10  N1  UNL     1      -1.757   4.070  14.128  1.00  0.00    -0.278 N
HETATM   11  N2  UNL     1      -1.081   3.612  13.089  1.00  0.00    -0.286 N
ATOM     12  H1  UNL     1      -1.441   4.030  15.097  1.00  0.00     0.189 HD
HETATM   13  C7  UNL     1      -1.805   3.838  11.967  1.00  0.00     0.103 A
ATOM     14  H2  UNL     1      -0.166   3.162  13.127  1.00  0.00     0.188 HD
HETATM   15  N3  UNL     1      -2.917   4.437  12.366  1.00  0.00    -0.319 N
HETATM   16  C11 UNL     1      -4.000   4.875  11.517  1.00  0.00     0.159 C
BRANCH  13  17
HETATM   17  C8  UNL     1      -1.358   3.456  10.591  1.00  0.00     0.047 C
HETATM   18  C9  UNL     1      -0.011   4.091  10.320  1.00  0.00     0.017 C
HETATM   19  C10 UNL     1      -1.261   1.977  10.422  1.00  0.00     0.017 C
ENDBRANCH  13  17
ENDBRANCH   8   9
ENDBRANCH   7   8
ENDBRANCH   3   7
BRANCH   4  20
HETATM   20  O2  UNL     1      -6.583   3.652  16.679  1.00  0.00    -0.390 OA
ATOM     21  H2  UNL     1      -6.808   3.077  17.401  1.00  0.00     0.210 HD
ENDBRANCH   4  20
BRANCH   1  22
HETATM   22  C2  UNL     1      -4.377   0.475  12.893  1.00  0.00     0.030 C
HETATM   23  C1  UNL     1      -4.793   1.070  11.565  1.00  0.00     0.007 C
ENDBRANCH   1  22
BRANCH   5  24
HETATM   24  O3  UNL     1      -5.562   1.219  17.439  1.00  0.00    -0.390 OA
ATOM     25  H3  UNL     1      -5.579   2.007  17.969  1.00  0.00     0.210 HD
ENDBRANCH   5  24
BRANCH   6  26
HETATM   26  O4  UNL     1      -4.850  -0.446  15.215  1.00  0.00    -0.390 OA
ATOM     27  H4  UNL     1      -4.301  -0.954  15.799  1.00  0.00     0.210 HD
ENDBRANCH   6  26
TORSDOF 8
ENDMDL