MODEL 2
REMARK VINA RESULT: -6.770149824      1.640      2.455
REMARK  8 active torsions:
REMARK  status: ('A' for Active; 'I' for Inactive)
REMARK    1  A    between atoms: C2_2  and  O1_3
REMARK    2  A    between atoms: O1_3  and  C3_4
REMARK    3  A    between atoms: C3_4  and  C5_7
REMARK    4  A    between atoms: C5_7  and  S1_8
REMARK    5  A    between atoms: S1_8  and  C6_9
REMARK    6  A    between atoms: N4_15  and  C8_17
REMARK    7  A    between atoms: C10_19  and  O2_20
REMARK    8  A    between atoms: C11_22  and  O3_23
ROOT
HETATM    1  C3  UNL     1       1.938   4.398   9.983  1.00  0.00     0.237 C
HETATM    2  C4  UNL     1       2.423   3.880   8.710  1.00  0.00     0.092 C
HETATM    3  N1  UNL     1       2.813   3.449   7.704  1.00  0.00    -0.194 NA
ENDROOT
BRANCH   1   4
HETATM    4  O1  UNL     1       2.829   4.194  11.019  1.00  0.00    -0.371 OA
BRANCH   4   5
HETATM    5  C2  UNL     1       3.039   5.316  11.802  1.00  0.00     0.165 C
HETATM    6  C1  UNL     1       4.259   5.201  12.681  1.00  0.00     0.033 C
ENDBRANCH   4   5
ENDBRANCH   1   4
BRANCH   1   7
HETATM    7  C5  UNL     1       0.621   3.804  10.389  1.00  0.00     0.128 C
BRANCH   7   8
HETATM    8  S1  UNL     1      -0.656   5.029  10.696  1.00  0.00    -0.100 SA
BRANCH   8   9
HETATM    9  C6  UNL     1      -1.455   4.583  12.253  1.00  0.00     0.130 A
HETATM   10  N2  UNL     1      -0.946   4.646  13.470  1.00  0.00    -0.286 N
HETATM   11  N3  UNL     1      -1.626   4.299  14.484  1.00  0.00    -0.279 N
ATOM     12  H2  UNL     1       0.009   4.979  13.597  1.00  0.00     0.188 HD
HETATM   13  C7  UNL     1      -2.878   3.865  14.282  1.00  0.00     0.162 A
ATOM     14  H3  UNL     1      -1.231   4.347  15.423  1.00  0.00     0.189 HD
HETATM   15  N4  UNL     1      -3.706   3.474  15.199  1.00  0.00    -0.365 N
HETATM   16  S2  UNL     1      -3.020   3.984  12.585  1.00  0.00    -0.027 SA
ATOM     17  H4  UNL     1      -3.408   3.486  16.175  1.00  0.00     0.162 HD
BRANCH  15  18
HETATM   18  C8  UNL     1      -5.040   3.023  14.878  1.00  0.00     0.088 C
HETATM   19  C9  UNL     1      -4.963   1.553  14.526  1.00  0.00     0.059 C
HETATM   20  C10 UNL     1      -5.004   0.819  15.826  1.00  0.00     0.148 C
HETATM   21  C11 UNL     1      -5.614   1.750  16.835  1.00  0.00     0.148 C
HETATM   22  C12 UNL     1      -5.945   3.020  16.092  1.00  0.00     0.059 C
BRANCH  20  23
HETATM   23  O2  UNL     1      -3.699   0.544  16.214  1.00  0.00    -0.393 OA
ATOM     24  H2  UNL     1      -3.725  -0.066  16.941  1.00  0.00     0.210 HD
ENDBRANCH  20  23
BRANCH  21  25
HETATM   25  O3  UNL     1      -6.754   1.151  17.385  1.00  0.00    -0.393 OA
ATOM     26  H3  UNL     1      -7.002   1.616  18.176  1.00  0.00     0.210 HD
ENDBRANCH  21  25
ENDBRANCH  15  18
ENDBRANCH   8   9
ENDBRANCH   7   8
ENDBRANCH   1   7
TORSDOF 8
ENDMDL