MODEL 1
REMARK VINA RESULT: -6.600908904      0.000      0.000
REMARK  8 active torsions:
REMARK  status: ('A' for Active; 'I' for Inactive)
REMARK    1  A    between atoms: C2_2  and  S1_3
REMARK    2  A    between atoms: S1_3  and  C3_4
REMARK    3  A    between atoms: C3_4  and  C7_9
REMARK    4  A    between atoms: N3_13  and  C9_14
REMARK    5  A    between atoms: C10_16  and  C11_17
REMARK    6  A    between atoms: C11_17  and  O2_18
REMARK    7  A    between atoms: C12_20  and  O3_21
REMARK    8  A    between atoms: C13_23  and  O4_24
ROOT
HETATM    1  C3  UNL     1      -2.540   5.933  12.529  1.00  0.00     0.029 C
HETATM    2  C4  UNL     1      -3.432   6.833  12.262  1.00  0.00     0.036 C
HETATM    3  C5  UNL     1      -3.198   8.260  11.908  1.00  0.00     0.062 C
HETATM    4  C6  UNL     1      -4.849   6.475  12.343  1.00  0.00     0.096 C
HETATM    5  N1  UNL     1      -5.990   6.219  12.418  1.00  0.00    -0.192 NA
ENDROOT
BRANCH   1   6
HETATM    6  S1  UNL     1      -0.781   6.063  12.571  1.00  0.00    -0.128 SA
BRANCH   6   7
HETATM    7  C2  UNL     1      -0.011   5.687  11.010  1.00  0.00     0.075 C
HETATM    8  C1  UNL     1       0.297   4.177  10.921  1.00  0.00     0.016 C
ENDBRANCH   6   7
ENDBRANCH   1   6
BRANCH   1   9
HETATM    9  C7  UNL     1      -3.076   4.554  12.779  1.00  0.00     0.016 A
HETATM   10  C8  UNL     1      -3.434   4.142  14.042  1.00  0.00     0.121 A
HETATM   11  N2  UNL     1      -3.830   2.864  13.921  1.00  0.00    -0.307 N
HETATM   12  N3  UNL     1      -3.724   2.506  12.660  1.00  0.00    -0.271 N
ATOM     13  H2  UNL     1      -4.159   2.270  14.682  1.00  0.00     0.186 HD
HETATM   14  C14 UNL     1      -3.255   3.530  11.900  1.00  0.00     0.127 A
BRANCH  12  15
HETATM   15  C9  UNL     1      -4.066   1.198  12.176  1.00  0.00     0.275 C
HETATM   16  O1  UNL     1      -2.903   0.545  11.733  1.00  0.00    -0.352 OA
HETATM   17  C10 UNL     1      -3.380  -0.547  10.992  1.00  0.00     0.179 C
HETATM   18  C12 UNL     1      -4.690  -0.157  10.393  1.00  0.00     0.182 C
HETATM   19  C13 UNL     1      -4.801   1.304  10.833  1.00  0.00     0.199 C
BRANCH  17  20
HETATM   20  C11 UNL     1      -3.485  -1.700  11.963  1.00  0.00     0.198 C
BRANCH  20  21
HETATM   21  O2  UNL     1      -2.807  -2.825  11.574  1.00  0.00    -0.398 OA
ATOM     22  H2  UNL     1      -3.082  -3.619  12.018  1.00  0.00     0.209 HD
ENDBRANCH  20  21
ENDBRANCH  17  20
BRANCH  18  23
HETATM   23  O3  UNL     1      -4.640  -0.153   8.997  1.00  0.00    -0.390 OA
ATOM     24  H3  UNL     1      -4.840  -1.008   8.635  1.00  0.00     0.210 HD
ENDBRANCH  18  23
BRANCH  19  25
HETATM   25  O4  UNL     1      -6.095   1.730  10.991  1.00  0.00    -0.388 OA
ATOM     26  H4  UNL     1      -6.443   2.108  10.193  1.00  0.00     0.210 HD
ENDBRANCH  19  25
ENDBRANCH  12  15
ENDBRANCH   1   9
TORSDOF 8
ENDMDL