MODEL 1
REMARK VINA RESULT: -7.652969786      0.000      0.000
REMARK  9 active torsions:
REMARK  status: ('A' for Active; 'I' for Inactive)
REMARK    1  A    between atoms: O1_2  and  C2_3
REMARK    2  A    between atoms: C3_4  and  O2_5
REMARK    3  A    between atoms: O2_5  and  C4_6
REMARK    4  A    between atoms: C4_6  and  C5_7
REMARK    5  A    between atoms: C6_10  and  C7_11
REMARK    6  A    between atoms: C12_18  and  C13_19
REMARK    7  A    between atoms: C13_19  and  O5_20
REMARK    8  A    between atoms: C14_22  and  O6_23
REMARK    9  A    between atoms: C15_25  and  O7_26
ROOT
HETATM    1  C2  UNL     1      -4.463   3.171  11.610  1.00  0.00     0.207 C
HETATM    2  C3  UNL     1      -3.315   3.022  12.642  1.00  0.00     0.292 C
HETATM    3  O4  UNL     1      -2.361   2.317  11.975  1.00  0.00    -0.348 OA
HETATM    4  C12 UNL     1      -2.677   1.014  11.713  1.00  0.00     0.179 C
HETATM    5  C14 UNL     1      -4.126   0.675  11.823  1.00  0.00     0.180 C
HETATM    6  C15 UNL     1      -5.110   1.795  11.716  1.00  0.00     0.183 C
ENDROOT
BRANCH   2   7
HETATM    7  O2  UNL     1      -2.796   4.218  13.046  1.00  0.00    -0.351 OA
BRANCH   7   8
HETATM    8  C4  UNL     1      -2.841   4.228  14.452  1.00  0.00     0.255 C
BRANCH   8   9
HETATM    9  C5  UNL     1      -4.171   3.894  14.988  1.00  0.00     0.147 A
HETATM   10  N1  UNL     1      -4.371   2.865  15.840  1.00  0.00    -0.340 N
HETATM   11  C6  UNL     1      -5.698   2.824  16.148  1.00  0.00     0.041 A
ATOM     12  H1  UNL     1      -3.655   2.231  16.192  1.00  0.00     0.167 HD
HETATM   13  C11 UNL     1      -6.259   3.827  15.479  1.00  0.00     0.169 A
HETATM   14  O3  UNL     1      -5.316   4.465  14.783  1.00  0.00    -0.305 OA
BRANCH  11  15
HETATM   15  C7  UNL     1      -6.268   1.784  17.051  1.00  0.00    -0.007 C
HETATM   16  C8  UNL     1      -7.698   1.462  16.652  1.00  0.00     0.021 C
HETATM   17  C9  UNL     1      -6.231   2.262  18.449  1.00  0.00     0.021 C
HETATM   18  C10 UNL     1      -5.476   0.522  16.795  1.00  0.00     0.021 C
ENDBRANCH  11  15
ENDBRANCH   8   9
ENDBRANCH   7   8
ENDBRANCH   2   7
BRANCH   1  19
HETATM   19  O1  UNL     1      -3.941   3.270  10.342  1.00  0.00    -0.383 OA
HETATM   20  C1  UNL     1      -3.818   4.502   9.798  1.00  0.00     0.202 C
ENDBRANCH   1  19
BRANCH   6  21
HETATM   21  O7  UNL     1      -6.087   1.609  10.748  1.00  0.00    -0.390 OA
ATOM     22  H7  UNL     1      -6.710   2.326  10.735  1.00  0.00     0.210 HD
ENDBRANCH   6  21
BRANCH   4  23
HETATM   23  C13 UNL     1      -2.067   0.602  10.405  1.00  0.00     0.198 C
BRANCH  23  24
HETATM   24  O5  UNL     1      -2.981  -0.166   9.645  1.00  0.00    -0.398 OA
ATOM     25  H5  UNL     1      -3.502   0.392   9.082  1.00  0.00     0.209 HD
ENDBRANCH  23  24
ENDBRANCH   4  23
BRANCH   5  26
HETATM   26  O6  UNL     1      -4.395  -0.017  13.016  1.00  0.00    -0.390 OA
ATOM     27  H6  UNL     1      -5.065  -0.677  12.886  1.00  0.00     0.210 HD
ENDBRANCH   5  26
TORSDOF 9
ENDMDL