MODEL 4
REMARK VINA RESULT: -5.892422908      1.395      1.437
REMARK  10 active torsions:
REMARK  status: ('A' for Active; 'I' for Inactive)
REMARK    1  A    between atoms: C2_2  and  S1_4
REMARK    2  A    between atoms: S1_4  and  S2_5
REMARK    3  A    between atoms: S2_5  and  C3_6
REMARK    4  A    between atoms: C4_8  and  C5_9
REMARK    5  A    between atoms: C5_9  and  O3_10
REMARK    6  A    between atoms: C6_12  and  O4_13
REMARK    7  A    between atoms: C7_15  and  O5_16
REMARK    8  A    between atoms: C8_18  and  C9_19
REMARK    9  A    between atoms: C9_19  and  N1_20
REMARK   10  A    between atoms: N1_20  and  C10_22
ROOT
HETATM    1  C3  UNL     1      -3.893   2.595  13.325  1.00  0.00     0.203 C
HETATM    2  O2  UNL     1      -5.046   1.934  13.018  1.00  0.00    -0.364 OA
HETATM    3  C4  UNL     1      -4.845   1.003  12.036  1.00  0.00     0.177 C
HETATM    4  C6  UNL     1      -4.197   1.513  10.783  1.00  0.00     0.178 C
HETATM    5  C7  UNL     1      -2.971   2.350  11.016  1.00  0.00     0.158 C
HETATM    6  C8  UNL     1      -3.308   3.334  12.115  1.00  0.00     0.074 C
ENDROOT
BRANCH   1   7
HETATM    7  S2  UNL     1      -4.037   3.775  14.666  1.00  0.00    -0.057 SA
BRANCH   7   8
HETATM    8  S1  UNL     1      -5.479   3.056  16.055  1.00  0.00    -0.018 SA
BRANCH   8   9
HETATM    9  C2  UNL     1      -4.975   1.406  16.531  1.00  0.00     0.192 C
HETATM   10  C1  UNL     1      -5.976   0.539  17.228  1.00  0.00     0.105 C
HETATM   11  O1  UNL     1      -3.882   0.953  16.327  1.00  0.00    -0.285 OA
ENDBRANCH   8   9
ENDBRANCH   7   8
ENDBRANCH   1   7
BRANCH   6  12
HETATM   12  C9  UNL     1      -2.130   4.113  12.602  1.00  0.00     0.130 C
BRANCH  12  13
HETATM   13  N1  UNL     1      -0.868   3.534  12.265  1.00  0.00    -0.390 N
ATOM     14  H1  UNL     1      -0.666   2.595  12.606  1.00  0.00     0.159 HD
BRANCH  13  15
HETATM   15  C10 UNL     1       0.018   4.116  11.568  1.00  0.00     0.165 C
HETATM   16  S3  UNL     1       1.292   4.342  10.582  1.00  0.00    -0.075 SA
ENDBRANCH  13  15
ENDBRANCH  12  13
ENDBRANCH   6  12
BRANCH   3  17
HETATM   17  C5  UNL     1      -4.123  -0.236  12.505  1.00  0.00     0.198 C
BRANCH  17  18
HETATM   18  O3  UNL     1      -4.584  -0.612  13.762  1.00  0.00    -0.398 OA
ATOM     19  H3  UNL     1      -3.975  -1.221  14.165  1.00  0.00     0.209 HD
ENDBRANCH  17  18
ENDBRANCH   3  17
BRANCH   5  20
HETATM   20  O5  UNL     1      -2.748   3.089   9.853  1.00  0.00    -0.392 OA
ATOM     21  H5  UNL     1      -3.200   3.919   9.955  1.00  0.00     0.210 HD
ENDBRANCH   5  20
BRANCH   4  22
HETATM   22  O4  UNL     1      -3.807   0.387  10.033  1.00  0.00    -0.390 OA
ATOM     23  H4  UNL     1      -4.518   0.192   9.436  1.00  0.00     0.210 HD
ENDBRANCH   4  22
TORSDOF 10
ENDMDL