MODEL 1
REMARK VINA RESULT: -7.448380265      0.000      0.000
REMARK  7 active torsions:
REMARK  status: ('A' for Active; 'I' for Inactive)
REMARK    1  A    between atoms: O1_2  and  C2_3
REMARK    2  A    between atoms: C2_3  and  C3_4
REMARK    3  A    between atoms: C10_13  and  S1_14
REMARK    4  A    between atoms: S1_14  and  C11_15
REMARK    5  A    between atoms: C11_15  and  C12_16
REMARK    6  A    between atoms: C13_20  and  O4_21
REMARK    7  A    between atoms: C14_23  and  O5_24
ROOT
HETATM    1  C2  UNL     1      -2.859   2.739  10.925  1.00  0.00     0.172 C
HETATM    2  C6  UNL     1      -2.997   3.456  12.216  1.00  0.00     0.111 C
HETATM    3  C7  UNL     1      -4.286   3.273  12.940  1.00  0.00     0.119 C
HETATM    4  O2  UNL     1      -5.237   4.268  12.651  1.00  0.00    -0.306 OA
HETATM    5  C8  UNL     1      -4.817   5.403  13.329  1.00  0.00     0.260 C
HETATM    6  O3  UNL     1      -5.167   6.604  13.144  1.00  0.00    -0.265 OA
HETATM    7  C9  UNL     1      -3.826   5.041  14.390  1.00  0.00     0.129 C
HETATM    8  C10 UNL     1      -4.028   3.520  14.425  1.00  0.00     0.095 C
HETATM    9  C13 UNL     1      -4.777   1.887  12.727  1.00  0.00     0.209 C
HETATM   10  C14 UNL     1      -4.752   1.433  11.321  1.00  0.00     0.292 C
HETATM   11  O6  UNL     1      -3.911   2.035  10.469  1.00  0.00    -0.322 OA
ENDROOT
BRANCH   8  12
HETATM   12  S1  UNL     1      -5.467   3.039  15.376  1.00  0.00    -0.155 SA
BRANCH  12  13
HETATM   13  C11 UNL     1      -5.087   1.884  16.696  1.00  0.00     0.118 C
BRANCH  13  14
HETATM   14  C12 UNL     1      -6.325   1.675  17.500  1.00  0.00     0.063 C
HETATM   15  N1  UNL     1      -7.309   1.007  17.031  1.00  0.00    -0.410 N
ATOM     16  H12 UNL     1      -7.230   0.618  16.091  1.00  0.00     0.155 HD
ATOM     17  H11 UNL     1      -8.156   0.864  17.582  1.00  0.00     0.155 HD
ENDBRANCH  13  14
ENDBRANCH  12  13
ENDBRANCH   8  12
BRANCH   9  18
HETATM   18  O4  UNL     1      -4.025   1.017  13.529  1.00  0.00    -0.388 OA
ATOM     19  H4  UNL     1      -4.092   0.140  13.170  1.00  0.00     0.210 HD
ENDBRANCH   9  18
BRANCH   1  20
HETATM   20  O1  UNL     1      -2.521   3.667   9.906  1.00  0.00    -0.359 OA
HETATM   21  C1  UNL     1      -3.499   4.604   9.682  1.00  0.00     0.205 C
ENDBRANCH   1  20
BRANCH   1  22
HETATM   22  C3  UNL     1      -1.589   1.873  11.025  1.00  0.00     0.040 C
HETATM   23  C4  UNL     1      -0.513   2.436  10.129  1.00  0.00     0.015 C
HETATM   24  C5  UNL     1      -1.918   0.478  10.508  1.00  0.00     0.015 C
ENDBRANCH   1  22
BRANCH  10  25
HETATM   25  O5  UNL     1      -6.069   1.598  10.813  1.00  0.00    -0.368 OA
ATOM     26  H5  UNL     1      -6.028   2.294  10.167  1.00  0.00     0.212 HD
ENDBRANCH  10  25
TORSDOF 7
ENDMDL