MODEL 1
REMARK VINA RESULT: -7.035717342      0.000      0.000
REMARK  10 active torsions:
REMARK  status: ('A' for Active; 'I' for Inactive)
REMARK    1  A    between atoms: C2_2  and  O1_3
REMARK    2  A    between atoms: C2_2  and  C4_5
REMARK    3  A    between atoms: C6_8  and  C7_9
REMARK    4  A    between atoms: C7_9  and  C8_10
REMARK    5  A    between atoms: C8_10  and  O3_11
REMARK    6  A    between atoms: N1_13  and  O4_15
REMARK    7  A    between atoms: C9_17  and  C10_18
REMARK    8  A    between atoms: C10_18  and  O5_19
REMARK    9  A    between atoms: C11_22  and  O7_23
REMARK   10  A    between atoms: O7_23  and  C12_24
ROOT
HETATM    1  C4  UNL     1      -3.839   5.432  14.465  1.00  0.00     0.167 C
HETATM    2  C5  UNL     1      -3.361   4.108  14.875  1.00  0.00     0.149 C
HETATM    3  O2  UNL     1      -2.243   3.689  14.960  1.00  0.00    -0.296 OA
HETATM    4  C6  UNL     1      -4.540   3.193  15.228  1.00  0.00     0.095 C
HETATM    5  C9  UNL     1      -5.379   3.068  13.984  1.00  0.00     0.159 C
HETATM    6  O6  UNL     1      -5.793   4.340  13.584  1.00  0.00    -0.351 OA
HETATM    7  C11 UNL     1      -4.833   5.274  13.348  1.00  0.00     0.287 C
ENDROOT
BRANCH   4   8
HETATM    8  C7  UNL     1      -4.125   2.004  15.939  1.00  0.00     0.100 C
BRANCH   8   9
HETATM    9  C8  UNL     1      -5.185   0.991  16.100  1.00  0.00     0.136 C
HETATM   10  N1  UNL     1      -6.255   1.178  16.771  1.00  0.00    -0.251 N
ATOM     11  H1  UNL     1      -6.421   2.069  17.239  1.00  0.00     0.196 HD
BRANCH   9  12
HETATM   12  O3  UNL     1      -4.948  -0.237  15.448  1.00  0.00    -0.348 OA
ATOM     13  H3  UNL     1      -4.906  -0.192  14.501  1.00  0.00     0.219 HD
ENDBRANCH   9  12
BRANCH  10  14
HETATM   14  O4  UNL     1      -7.180   0.166  16.858  1.00  0.00    -0.288 OA
ATOM     15  H4  UNL     1      -8.028   0.274  16.444  1.00  0.00     0.244 HD
ENDBRANCH  10  14
ENDBRANCH   8   9
ENDBRANCH   4   8
BRANCH   5  16
HETATM   16  C10 UNL     1      -4.698   2.343  12.847  1.00  0.00     0.197 C
BRANCH  16  17
HETATM   17  O5  UNL     1      -5.400   2.366  11.650  1.00  0.00    -0.398 OA
ATOM     18  H5  UNL     1      -4.986   1.885  10.943  1.00  0.00     0.209 HD
ENDBRANCH  16  17
ENDBRANCH   5  16
BRANCH   1  19
HETATM   19  C2  UNL     1      -2.874   6.495  14.258  1.00  0.00     0.052 C
HETATM   20  C1  UNL     1      -1.929   6.550  13.393  1.00  0.00     0.047 C
BRANCH  19  21
HETATM   21  O1  UNL     1      -3.021   7.607  15.151  1.00  0.00    -0.360 OA
HETATM   22  C3  UNL     1      -1.956   8.549  15.238  1.00  0.00     0.209 C
ENDBRANCH  19  21
ENDBRANCH   1  19
BRANCH   7  23
HETATM   23  O7  UNL     1      -4.280   5.233  12.069  1.00  0.00    -0.289 OA
BRANCH  23  24
HETATM   24  C12 UNL     1      -4.894   5.796  10.978  1.00  0.00     0.257 C
HETATM   25  C13 UNL     1      -5.077   7.271  10.817  1.00  0.00     0.126 C
HETATM   26  O8  UNL     1      -5.333   5.065  10.058  1.00  0.00    -0.266 OA
ENDBRANCH  23  24
ENDBRANCH   7  23
TORSDOF 10
ENDMDL