MODEL 1
REMARK VINA RESULT: -5.667877963      0.000      0.000
REMARK  8 active torsions:
REMARK  status: ('A' for Active; 'I' for Inactive)
REMARK    1  A    between atoms: C2_2  and  O1_4
REMARK    2  A    between atoms: O1_4  and  C4_5
REMARK    3  A    between atoms: C4_5  and  C5_6
REMARK    4  A    between atoms: C5_6  and  O2_7
REMARK    5  A    between atoms: C7_11  and  S1_12
REMARK    6  A    between atoms: S1_12  and  C8_13
REMARK    7  A    between atoms: C11_18  and  O5_19
REMARK    8  A    between atoms: C12_21  and  O6_22
ROOT
HETATM    1  C4  UNL     1      -2.593   4.152  11.786  1.00  0.00     0.132 C
HETATM    2  C6  UNL     1      -3.404   3.171  12.626  1.00  0.00     0.212 C
HETATM    3  O3  UNL     1      -4.763   3.466  12.506  1.00  0.00    -0.370 OA
HETATM    4  C7  UNL     1      -5.039   4.535  13.370  1.00  0.00     0.215 C
HETATM    5  C11 UNL     1      -4.227   5.705  12.906  1.00  0.00     0.189 C
HETATM    6  C12 UNL     1      -3.383   5.424  11.697  1.00  0.00     0.189 C
ENDROOT
BRANCH   1   7
HETATM    7  O1  UNL     1      -2.396   3.527  10.570  1.00  0.00    -0.368 OA
BRANCH   7   8
HETATM    8  C2  UNL     1      -1.241   2.783  10.485  1.00  0.00     0.114 C
HETATM    9  C1  UNL     1      -0.577   3.159   9.166  1.00  0.00     0.039 C
HETATM   10  C3  UNL     1      -1.494   1.291  10.419  1.00  0.00     0.039 C
ENDBRANCH   7   8
ENDBRANCH   1   7
BRANCH   1  11
HETATM   11  C5  UNL     1      -1.276   4.334  12.493  1.00  0.00     0.207 C
BRANCH  11  12
HETATM   12  O2  UNL     1      -1.407   3.978  13.825  1.00  0.00    -0.398 OA
ATOM     13  H2  UNL     1      -0.812   4.494  14.356  1.00  0.00     0.209 HD
ENDBRANCH  11  12
ENDBRANCH   1  11
BRANCH   6  14
HETATM   14  O6  UNL     1      -2.568   6.552  11.511  1.00  0.00    -0.390 OA
ATOM     15  H6  UNL     1      -2.457   7.057  12.308  1.00  0.00     0.210 HD
ENDBRANCH   6  14
BRANCH   5  16
HETATM   16  O5  UNL     1      -3.427   6.256  13.895  1.00  0.00    -0.389 OA
ATOM     17  H5  UNL     1      -3.823   6.246  14.758  1.00  0.00     0.210 HD
ENDBRANCH   5  16
BRANCH   4  18
HETATM   18  S1  UNL     1      -4.621   3.982  15.032  1.00  0.00    -0.117 SA
BRANCH  18  19
HETATM   19  C8  UNL     1      -5.331   2.390  15.452  1.00  0.00     0.137 C
HETATM   20  C9  UNL     1      -4.400   1.544  16.319  1.00  0.00     0.194 C
HETATM   21  O4  UNL     1      -5.188   0.597  16.944  1.00  0.00    -0.379 OA
HETATM   22  C10 UNL     1      -6.048   1.282  17.819  1.00  0.00     0.242 C
HETATM   23  S2  UNL     1      -6.696   2.544  16.663  1.00  0.00    -0.126 SA
ENDBRANCH  18  19
ENDBRANCH   4  18
TORSDOF 8
ENDMDL