MODEL 3
REMARK VINA RESULT: -7.179916174      1.353      1.621
REMARK  9 active torsions:
REMARK  status: ('A' for Active; 'I' for Inactive)
REMARK    1  A    between atoms: C2_2  and  O1_3
REMARK    2  A    between atoms: O1_3  and  C3_4
REMARK    3  A    between atoms: N1_6  and  O2_8
REMARK    4  A    between atoms: O2_8  and  C5_9
REMARK    5  A    between atoms: C5_9  and  C6_10
REMARK    6  A    between atoms: C8_12  and  O3_13
REMARK    7  A    between atoms: C8_12  and  C9_15
REMARK    8  A    between atoms: C14_22  and  C15_23
REMARK    9  A    between atoms: C15_23  and  O6_24
ROOT
HETATM    1  C6  UNL     1      -4.178   0.959  11.460  1.00  0.00     0.156 C
HETATM    2  C7  UNL     1      -4.548   2.259  12.143  1.00  0.00     0.106 C
HETATM    3  C8  UNL     1      -3.827   2.754  10.882  1.00  0.00     0.198 C
HETATM    4  O7  UNL     1      -3.034   1.612  10.998  1.00  0.00    -0.344 OA
ENDROOT
BRANCH   3   5
HETATM    5  O3  UNL     1      -4.624   2.667   9.767  1.00  0.00    -0.363 OA
ATOM      6  H3  UNL     1      -4.224   3.084   9.012  1.00  0.00     0.213 HD
ENDBRANCH   3   5
BRANCH   3   7
HETATM    7  C9  UNL     1      -3.092   4.054  11.085  1.00  0.00     0.145 C
HETATM    8  C10 UNL     1      -1.801   3.999  10.357  1.00  0.00     0.055 C
HETATM    9  O4  UNL     1      -2.811   4.163  12.455  1.00  0.00    -0.337 OA
HETATM   10  C11 UNL     1      -2.971   5.477  12.807  1.00  0.00     0.159 C
HETATM   11  C12 UNL     1      -1.684   6.264  12.809  1.00  0.00     0.078 C
HETATM   12  C13 UNL     1      -3.521   5.536  14.239  1.00  0.00     0.078 C
HETATM   13  O5  UNL     1      -3.838   6.078  11.924  1.00  0.00    -0.345 OA
HETATM   14  C14 UNL     1      -3.935   5.240  10.826  1.00  0.00     0.188 C
BRANCH  14  15
HETATM   15  C15 UNL     1      -3.592   6.010   9.589  1.00  0.00     0.199 C
BRANCH  15  16
HETATM   16  O6  UNL     1      -4.226   5.544   8.456  1.00  0.00    -0.398 OA
ATOM     17  H6  UNL     1      -3.938   5.970   7.657  1.00  0.00     0.209 HD
ENDBRANCH  15  16
ENDBRANCH  14  15
ENDBRANCH   3   7
BRANCH   1  18
HETATM   18  C5  UNL     1      -3.896  -0.195  12.383  1.00  0.00     0.233 C
BRANCH  18  19
HETATM   19  O2  UNL     1      -3.445   0.278  13.617  1.00  0.00    -0.276 OA
BRANCH  19  20
HETATM   20  N1  UNL     1      -4.062   0.007  14.810  1.00  0.00    -0.249 N
HETATM   21  C3  UNL     1      -4.196   0.835  15.769  1.00  0.00     0.133 C
HETATM   22  C4  UNL     1      -3.713   2.230  15.767  1.00  0.00     0.099 C
ATOM     23  H1  UNL     1      -4.444  -0.931  14.941  1.00  0.00     0.196 HD
BRANCH  21  24
HETATM   24  O1  UNL     1      -4.853   0.388  16.914  1.00  0.00    -0.338 OA
BRANCH  24  25
HETATM   25  C2  UNL     1      -5.747   1.255  17.612  1.00  0.00     0.172 C
HETATM   26  C1  UNL     1      -7.080   1.171  16.896  1.00  0.00     0.034 C
ENDBRANCH  24  25
ENDBRANCH  21  24
ENDBRANCH  19  20
ENDBRANCH  18  19
ENDBRANCH   1  18
TORSDOF 9
ENDMDL