MODEL 4
REMARK VINA RESULT: -6.769522686      2.971      6.100
REMARK  6 active torsions:
REMARK  status: ('A' for Active; 'I' for Inactive)
REMARK    1  A    between atoms: C1_2  and  C2_3
REMARK       I    between atoms: C1_2  and  N4_17
REMARK    2  A    between atoms: C2_3  and  S1_4
REMARK    3  A    between atoms: S1_4  and  C3_5
REMARK    4  A    between atoms: N3_11  and  C5_12
REMARK    5  A    between atoms: N4_17  and  C10_18
REMARK    6  A    between atoms: C10_18  and  C11_19
ROOT
HETATM    1  C2  UNL     1      -4.650   1.309  11.264  1.00  0.00     0.201 C
ENDROOT
BRANCH   1   2
HETATM    2  C1  UNL     1      -3.891   0.687  10.173  1.00  0.00     0.300 C
HETATM    3  O1  UNL     1      -4.219  -0.016   9.300  1.00  0.00    -0.256 OA
HETATM    4  N4  UNL     1      -2.495   1.143  10.275  1.00  0.00    -0.383 NA
BRANCH   4   5
HETATM    5  C10 UNL     1      -1.230   1.552  10.357  1.00  0.00     0.220 C
BRANCH   5   6
HETATM    6  C11 UNL     1      -0.789   2.974  10.344  1.00  0.00     0.374 C
HETATM    7  N5  UNL     1      -1.912   3.801  10.013  1.00  0.00    -0.043 N
HETATM    8  C12 UNL     1      -1.428   5.112   9.526  1.00  0.00     0.238 C
ATOM      9  H52 UNL     1      -2.542   3.350   9.348  1.00  0.00     0.280 HD
ATOM     10  H51 UNL     1      -2.566   3.894  10.790  1.00  0.00     0.280 HD
HETATM   11  C13 UNL     1      -0.832   4.730   8.143  1.00  0.00     0.054 C
HETATM   12  C14 UNL     1      -0.104   3.403   8.202  1.00  0.00     0.172 C
HETATM   13  O2  UNL     1       0.300   3.128   9.476  1.00  0.00    -0.354 OA
ENDBRANCH   5   6
ENDBRANCH   4   5
ENDBRANCH   1   2
BRANCH   1  14
HETATM   14  S1  UNL     1      -3.844   0.922  12.826  1.00  0.00    -0.082 SA
BRANCH  14  15
HETATM   15  C3  UNL     1      -3.663   2.449  13.661  1.00  0.00     0.163 A
HETATM   16  N1  UNL     1      -2.836   3.472  13.276  1.00  0.00    -0.279 N
HETATM   17  N2  UNL     1      -3.037   4.481  14.117  1.00  0.00    -0.294 N
ATOM     18  H1  UNL     1      -2.186   3.461  12.489  1.00  0.00     0.189 HD
HETATM   19  C4  UNL     1      -3.950   4.093  14.965  1.00  0.00     0.202 A
ATOM     20  H2  UNL     1      -2.567   5.386  14.102  1.00  0.00     0.187 HD
HETATM   21  N3  UNL     1      -4.343   2.845  14.713  1.00  0.00    -0.317 N
BRANCH  21  22
HETATM   22  C5  UNL     1      -5.255   2.093  15.555  1.00  0.00     0.093 C
HETATM   23  C6  UNL     1      -4.664   1.160  16.525  1.00  0.00     0.026 C
HETATM   24  C7  UNL     1      -5.947   0.546  17.089  1.00  0.00     0.002 C
HETATM   25  C8  UNL     1      -7.054   1.614  16.858  1.00  0.00     0.002 C
HETATM   26  C9  UNL     1      -6.287   2.814  16.307  1.00  0.00     0.026 C
ENDBRANCH  21  22
ENDBRANCH  14  15
ENDBRANCH   1  14
TORSDOF 6
ENDMDL