MODEL 1
REMARK VINA RESULT: -7.312570945      0.000      0.000
REMARK  8 active torsions:
REMARK  status: ('A' for Active; 'I' for Inactive)
REMARK    1  A    between atoms: C2_5  and  S1_6
REMARK    2  A    between atoms: S1_6  and  C3_7
REMARK    3  A    between atoms: C3_7  and  C4_8
REMARK    4  A    between atoms: C4_8  and  O1_9
REMARK    5  A    between atoms: O1_9  and  C5_10
REMARK    6  A    between atoms: N3_14  and  C9_15
REMARK    7  A    between atoms: C9_15  and  C10_16
REMARK    8  A    between atoms: C13_19  and  O2_20
ROOT
HETATM    1  C1  UNL     1      -1.858   0.691  10.888  1.00  0.00     0.183 C
HETATM    2  N1  UNL     1      -2.488   1.732  11.708  1.00  0.00    -0.245 N
HETATM    3  N2  UNL     1      -2.024   2.934  11.989  1.00  0.00    -0.274 N
ATOM      4  H2  UNL     1      -1.138   3.329  11.673  1.00  0.00     0.189 HD
HETATM    5  C2  UNL     1      -2.951   3.553  12.785  1.00  0.00     0.165 A
HETATM    6  N3  UNL     1      -3.960   2.698  12.962  1.00  0.00    -0.275 N
HETATM    7  C14 UNL     1      -3.680   1.539  12.284  1.00  0.00     0.345 A
HETATM    8  O3  UNL     1      -4.464   0.565  12.282  1.00  0.00    -0.245 OA
ENDROOT
BRANCH   6   9
HETATM    9  C9  UNL     1      -5.126   2.921  13.745  1.00  0.00     0.169 C
BRANCH   9  10
HETATM   10  C10 UNL     1      -5.083   2.611  15.179  1.00  0.00     0.207 C
HETATM   11  C11 UNL     1      -6.206   3.014  16.058  1.00  0.00     0.039 C
HETATM   12  C12 UNL     1      -6.266   1.925  17.147  1.00  0.00     0.063 C
HETATM   13  C13 UNL     1      -5.137   1.013  16.762  1.00  0.00     0.319 C
HETATM   14  N4  UNL     1      -5.083   1.134  15.320  1.00  0.00    -0.043 N
ATOM     15  H42 UNL     1      -5.812   0.639  14.807  1.00  0.00     0.280 HD
ATOM     16  H41 UNL     1      -4.313   0.645  14.863  1.00  0.00     0.280 HD
BRANCH  13  17
HETATM   17  O2  UNL     1      -5.402  -0.305  17.151  1.00  0.00    -0.370 OA
ATOM     18  H2  UNL     1      -4.618  -0.839  17.100  1.00  0.00     0.212 HD
ENDBRANCH  13  17
ENDBRANCH   9  10
ENDBRANCH   6   9
BRANCH   5  19
HETATM   19  S1  UNL     1      -2.714   5.236  13.364  1.00  0.00    -0.090 SA
BRANCH  19  20
HETATM   20  C3  UNL     1      -3.442   6.358  12.159  1.00  0.00     0.108 C
BRANCH  20  21
HETATM   21  C4  UNL     1      -4.916   6.213  11.991  1.00  0.00     0.179 C
BRANCH  21  22
HETATM   22  O1  UNL     1      -5.339   6.385  10.680  1.00  0.00    -0.381 OA
BRANCH  22  23
HETATM   23  C5  UNL     1      -6.226   7.437  10.537  1.00  0.00     0.050 C
HETATM   24  C6  UNL     1      -7.222   7.530  11.649  1.00  0.00     0.045 C
HETATM   25  C7  UNL     1      -5.503   8.775  10.455  1.00  0.00     0.045 C
HETATM   26  C8  UNL     1      -6.986   7.261   9.238  1.00  0.00     0.045 C
ENDBRANCH  22  23
ENDBRANCH  21  22
ENDBRANCH  20  21
ENDBRANCH  19  20
ENDBRANCH   5  19
TORSDOF 8
ENDMDL