MODEL 3
REMARK VINA RESULT: -7.609410000      2.053      2.394
REMARK  6 active torsions:
REMARK  status: ('A' for Active; 'I' for Inactive)
REMARK    1  A    between atoms: C2_3  and  N2_4
REMARK    2  A    between atoms: N2_4  and  N3_6
REMARK    3  A    between atoms: C3_11  and  S1_12
REMARK    4  A    between atoms: S1_12  and  C4_13
REMARK    5  A    between atoms: C4_13  and  C5_14
REMARK       I    between atoms: C5_14  and  N7_16
REMARK    6  A    between atoms: N7_16  and  C6_18
ROOT
HETATM    1  N1  UNL     1      -5.496   1.959  10.853  1.00  0.00    -0.195 NA
HETATM    2  C1  UNL     1      -4.627   1.322  11.284  1.00  0.00     0.092 C
HETATM    3  C2  UNL     1      -3.548   0.501  11.831  1.00  0.00     0.135 C
HETATM    4  C10 UNL     1      -3.934  -0.954  11.753  1.00  0.00     0.048 C
HETATM    5  C11 UNL     1      -2.558  -1.250  11.199  1.00  0.00     0.007 C
HETATM    6  C12 UNL     1      -2.419   0.220  10.869  1.00  0.00     0.048 C
ENDROOT
BRANCH   3   7
HETATM    7  N2  UNL     1      -3.131   0.901  13.155  1.00  0.00    -0.291 N
ATOM      8  H2  UNL     1      -2.197   1.292  13.282  1.00  0.00     0.184 HD
BRANCH   7   9
HETATM    9  N3  UNL     1      -3.957   0.770  14.255  1.00  0.00    -0.160 N
HETATM   10  N4  UNL     1      -4.291  -0.300  14.958  1.00  0.00     0.017 NA
HETATM   11  N5  UNL     1      -5.114   0.014  15.942  1.00  0.00    -0.005 NA
HETATM   12  N6  UNL     1      -5.334   1.337  15.888  1.00  0.00    -0.263 N
HETATM   13  C3  UNL     1      -4.622   1.801  14.851  1.00  0.00     0.194 A
ATOM     14  H6  UNL     1      -5.926   1.883  16.513  1.00  0.00     0.186 HD
BRANCH  13  15
HETATM   15  S1  UNL     1      -4.549   3.503  14.308  1.00  0.00    -0.081 SA
BRANCH  15  16
HETATM   16  C4  UNL     1      -2.846   4.113  14.276  1.00  0.00     0.185 C
BRANCH  16  17
HETATM   17  C5  UNL     1      -2.388   4.193  12.883  1.00  0.00     0.227 C
HETATM   18  O1  UNL     1      -1.444   3.433  12.524  1.00  0.00    -0.273 OA
HETATM   19  N7  UNL     1      -2.946   5.074  11.926  1.00  0.00    -0.355 N
ATOM     20  H7  UNL     1      -3.713   5.689  12.199  1.00  0.00     0.162 HD
BRANCH  19  21
HETATM   21  C6  UNL     1      -2.446   5.119  10.560  1.00  0.00     0.094 C
HETATM   22  C7  UNL     1      -3.441   4.681   9.537  1.00  0.00     0.036 C
HETATM   23  C8  UNL     1      -4.255   5.838   9.066  1.00  0.00     0.076 C
HETATM   24  S2  UNL     1      -2.937   7.112   8.915  1.00  0.00    -0.167 SA
HETATM   25  C9  UNL     1      -1.812   6.403  10.184  1.00  0.00     0.099 C
ENDBRANCH  19  21
ENDBRANCH  16  17
ENDBRANCH  15  16
ENDBRANCH  13  15
ENDBRANCH   7   9
ENDBRANCH   3   7
TORSDOF 6
ENDMDL