MODEL 2
REMARK VINA RESULT: -6.161031187      3.213      5.098
REMARK  8 active torsions:
REMARK  status: ('A' for Active; 'I' for Inactive)
REMARK    1  A    between atoms: C2_2  and  C3_3
REMARK    2  A    between atoms: C3_3  and  S1_4
REMARK    3  A    between atoms: S1_4  and  C4_5
REMARK    4  A    between atoms: C5_6  and  O1_7
REMARK    5  A    between atoms: C6_9  and  C7_10
REMARK    6  A    between atoms: C7_10  and  S2_11
REMARK    7  A    between atoms: C9_14  and  N1_15
REMARK    8  A    between atoms: C11_21  and  O4_22
ROOT
HETATM    1  C4  UNL     1      -2.875   3.771  12.111  1.00  0.00     0.128 C
HETATM    2  C5  UNL     1      -3.114   5.211  11.728  1.00  0.00     0.165 C
HETATM    3  C6  UNL     1      -3.800   5.113  10.381  1.00  0.00     0.163 C
HETATM    4  O2  UNL     1      -4.076   3.770  10.192  1.00  0.00    -0.356 OA
HETATM    5  C9  UNL     1      -2.995   3.129  10.742  1.00  0.00     0.255 C
ENDROOT
BRANCH   5   6
HETATM    6  N1  UNL     1      -3.155   1.684  10.865  1.00  0.00    -0.249 N
HETATM    7  S3  UNL     1      -2.002   0.463  11.036  1.00  0.00     0.056 SA
HETATM    8  C10 UNL     1      -3.058  -0.874  11.099  1.00  0.00     0.307 A
HETATM    9  O3  UNL     1      -2.802  -2.128  11.224  1.00  0.00    -0.258 OA
HETATM   10  N2  UNL     1      -4.250  -0.292  10.984  1.00  0.00    -0.281 N
HETATM   11  C11 UNL     1      -4.304   1.003  10.865  1.00  0.00     0.235 A
ATOM     12  H2  UNL     1      -5.104  -0.850  10.989  1.00  0.00     0.173 HD
BRANCH  11  13
HETATM   13  O4  UNL     1      -5.421   1.659  10.748  1.00  0.00    -0.332 OA
ATOM     14  H4  UNL     1      -5.590   2.386  11.335  1.00  0.00     0.221 HD
ENDBRANCH  11  13
ENDBRANCH   5   6
BRANCH   1  15
HETATM   15  S1  UNL     1      -4.080   3.208  13.286  1.00  0.00    -0.157 SA
BRANCH  15  16
HETATM   16  C3  UNL     1      -3.428   3.258  14.962  1.00  0.00     0.074 C
BRANCH  16  17
HETATM   17  C2  UNL     1      -3.774   1.980  15.742  1.00  0.00     0.006 C
HETATM   18  C1  UNL     1      -4.103   0.849  14.791  1.00  0.00     0.006 C
ENDBRANCH  16  17
ENDBRANCH  15  16
ENDBRANCH   1  15
BRANCH   2  19
HETATM   19  O1  UNL     1      -3.822   5.954  12.628  1.00  0.00    -0.392 OA
ATOM     20  H1  UNL     1      -4.691   6.221  12.350  1.00  0.00     0.210 HD
ENDBRANCH   2  19
BRANCH   3  21
HETATM   21  C7  UNL     1      -5.134   5.841  10.421  1.00  0.00     0.108 C
BRANCH  21  22
HETATM   22  S2  UNL     1      -5.453   6.779   8.927  1.00  0.00    -0.171 SA
HETATM   23  C8  UNL     1      -7.128   6.542   8.309  1.00  0.00     0.089 C
ENDBRANCH  21  22
ENDBRANCH   3  21
TORSDOF 8
ENDMDL