MODEL 3
REMARK VINA RESULT: -6.770880276      1.958      3.980
REMARK  7 active torsions:
REMARK  status: ('A' for Active; 'I' for Inactive)
REMARK    1  A    between atoms: O1_1  and  C1_3
REMARK    2  A    between atoms: C2_4  and  C3_5
REMARK    3  A    between atoms: C3_5  and  N1_6
REMARK    4  A    between atoms: N1_6  and  C4_8
REMARK    5  A    between atoms: C4_8  and  C5_9
REMARK    6  A    between atoms: C5_9  and  N2_10
REMARK    7  A    between atoms: N5_24  and  C13_25
ROOT
HETATM    1  C3  UNL     1      -3.620   0.279  11.814  1.00  0.00     0.123 C
ENDROOT
BRANCH   1   2
HETATM    2  C2  UNL     1      -4.100   1.138  12.964  1.00  0.00     0.117 A
HETATM    3  C1  UNL     1      -4.298   0.738  14.289  1.00  0.00     0.189 A
HETATM    4  N5  UNL     1      -4.660   1.849  14.999  1.00  0.00    -0.250 N
HETATM    5  N4  UNL     1      -4.682   2.842  14.156  1.00  0.00    -0.238 N
HETATM    6  N3  UNL     1      -4.354   2.450  12.939  1.00  0.00    -0.281 N
ATOM      7  H4  UNL     1      -4.921   3.802  14.405  1.00  0.00     0.208 HD
ATOM      8  H3  UNL     1      -4.304   3.048  12.116  1.00  0.00     0.188 HD
BRANCH   3   9
HETATM    9  O1  UNL     1      -4.151  -0.534  14.750  1.00  0.00    -0.343 OA
ATOM     10  H1  UNL     1      -3.642  -0.781  15.512  1.00  0.00     0.219 HD
ENDBRANCH   3   9
BRANCH   4  11
HETATM   11  C13 UNL     1      -4.902   1.846  16.435  1.00  0.00     0.112 C
HETATM   12  C14 UNL     1      -5.816   0.748  16.873  1.00  0.00     0.027 C
HETATM   13  C15 UNL     1      -6.379   1.767  17.888  1.00  0.00     0.004 C
HETATM   14  C16 UNL     1      -5.991   2.811  16.862  1.00  0.00     0.027 C
ENDBRANCH   4  11
ENDBRANCH   1   2
BRANCH   1  15
HETATM   15  N1  UNL     1      -2.236   0.393  11.619  1.00  0.00    -0.372 N
ATOM     16  H1  UNL     1      -1.607  -0.101  12.252  1.00  0.00     0.164 HD
BRANCH  15  17
HETATM   17  C4  UNL     1      -1.695   1.153  10.598  1.00  0.00     0.099 C
BRANCH  17  18
HETATM   18  C5  UNL     1      -0.791   2.293  10.830  1.00  0.00     0.076 C
BRANCH  18  19
HETATM   19  N2  UNL     1      -1.134   3.578  10.402  1.00  0.00    -0.291 NA
HETATM   20  C6  UNL     1      -2.510   3.929  10.279  1.00  0.00     0.100 C
HETATM   21  C7  UNL     1      -2.822   5.354  10.731  1.00  0.00     0.083 C
HETATM   22  C8  UNL     1      -2.521   5.604  12.171  1.00  0.00     0.166 C
HETATM   23  C9  UNL     1      -1.468   4.552  12.574  1.00  0.00     0.083 C
HETATM   24  O2  UNL     1      -3.633   5.487  13.021  1.00  0.00    -0.353 OA
HETATM   25  O3  UNL     1      -1.944   6.833  12.420  1.00  0.00    -0.353 OA
HETATM   26  C10 UNL     1      -0.497   4.503  11.385  1.00  0.00     0.100 C
HETATM   27  C11 UNL     1      -3.050   5.953  14.222  1.00  0.00     0.197 C
HETATM   28  C12 UNL     1      -1.988   6.947  13.808  1.00  0.00     0.197 C
ENDBRANCH  18  19
ENDBRANCH  17  18
ENDBRANCH  15  17
ENDBRANCH   1  15
TORSDOF 7
ENDMDL