MODEL 5
REMARK VINA RESULT: -6.707544858      2.363      5.467
REMARK  8 active torsions:
REMARK  status: ('A' for Active; 'I' for Inactive)
REMARK    1  A    between atoms: C4_4  and  O1_5
REMARK    2  A    between atoms: O1_5  and  N1_6
REMARK    3  A    between atoms: C7_11  and  S1_12
REMARK    4  A    between atoms: S1_12  and  C8_13
REMARK    5  A    between atoms: C8_13  and  C9_14
REMARK    6  A    between atoms: C9_14  and  C10_15
REMARK    7  A    between atoms: C10_15  and  O2_16
REMARK    8  A    between atoms: C11_19  and  C12_20
ROOT
HETATM    1  O1  UNL     1      -2.623   2.011  10.629  1.00  0.00    -0.243 OA
ENDROOT
BRANCH   1   2
HETATM    2  C4  UNL     1      -1.343   2.480  10.949  1.00  0.00     0.292 C
HETATM    3  C3  UNL     1      -0.777   3.265   9.796  1.00  0.00     0.101 C
HETATM    4  C2  UNL     1       0.050   4.439  10.211  1.00  0.00     0.070 C
HETATM    5  C1  UNL     1       1.541   4.183  10.276  1.00  0.00     0.047 C
HETATM    6  C13 UNL     1      -0.503   5.212  11.363  1.00  0.00     0.083 C
HETATM    7  O6  UNL     1      -0.190   5.561   9.404  1.00  0.00    -0.379 OA
HETATM    8  C11 UNL     1      -1.543   4.467  12.148  1.00  0.00     0.234 C
HETATM    9  C14 UNL     1      -1.039   6.181  10.324  1.00  0.00     0.179 C
HETATM   10  O3  UNL     1      -1.301   3.119  12.158  1.00  0.00    -0.342 OA
BRANCH   8  11
HETATM   11  C12 UNL     1      -1.466   4.956  13.554  1.00  0.00     0.203 C
HETATM   12  O4  UNL     1      -1.416   4.160  14.530  1.00  0.00    -0.646 OA
HETATM   13  O5  UNL     1      -1.448   6.310  13.848  1.00  0.00    -0.646 OA
ENDBRANCH   8  11
ENDBRANCH   1   2
BRANCH   1  14
HETATM   14  N1  UNL     1      -2.880   0.799  11.165  1.00  0.00    -0.232 N
HETATM   15  C5  UNL     1      -2.368  -0.469  10.624  1.00  0.00     0.178 C
HETATM   16  C6  UNL     1      -3.382  -1.435  11.212  1.00  0.00     0.144 C
HETATM   17  N2  UNL     1      -3.947  -0.743  12.350  1.00  0.00    -0.368 N
HETATM   18  C7  UNL     1      -3.664   0.497  12.316  1.00  0.00     0.162 C
ATOM     19  H2  UNL     1      -4.499  -1.190  13.082  1.00  0.00     0.161 HD
BRANCH  18  20
HETATM   20  S1  UNL     1      -4.138   1.758  13.504  1.00  0.00    -0.092 SA
BRANCH  20  21
HETATM   21  C8  UNL     1      -4.141   1.060  15.174  1.00  0.00     0.084 C
BRANCH  21  22
HETATM   22  C9  UNL     1      -5.089   1.852  16.024  1.00  0.00     0.036 C
BRANCH  22  23
HETATM   23  C10 UNL     1      -6.025   0.967  16.821  1.00  0.00     0.165 C
BRANCH  23  24
HETATM   24  O2  UNL     1      -5.600  -0.351  16.817  1.00  0.00    -0.401 OA
ATOM     25  H2  UNL     1      -6.103  -0.876  16.205  1.00  0.00     0.209 HD
ENDBRANCH  23  24
ENDBRANCH  22  23
ENDBRANCH  21  22
ENDBRANCH  20  21
ENDBRANCH  18  20
ENDBRANCH   1  14
TORSDOF 8
ENDMDL