MODEL 3
REMARK VINA RESULT: -6.943659943      3.317      4.953
REMARK  10 active torsions:
REMARK  status: ('A' for Active; 'I' for Inactive)
REMARK    1  A    between atoms: N1_1  and  N2_4
REMARK    2  A    between atoms: N2_4  and  N3_5
REMARK    3  A    between atoms: N3_5  and  C1_7
REMARK    4  A    between atoms: C3_9  and  O1_10
REMARK    5  A    between atoms: O1_10  and  C4_11
REMARK    6  A    between atoms: C4_11  and  C5_12
REMARK    7  A    between atoms: N4_14  and  C7_15
REMARK    8  A    between atoms: C11_19  and  O2_20
REMARK    9  A    between atoms: C13_28  and  C14_29
REMARK   10  A    between atoms: C14_29  and  O4_30
ROOT
HETATM    1  C4  UNL     1      -2.744   4.193  11.502  1.00  0.00     0.230 C
ENDROOT
BRANCH   1   2
HETATM    2  O1  UNL     1      -1.585   3.735  10.936  1.00  0.00    -0.355 OA
BRANCH   2   3
HETATM    3  C3  UNL     1      -1.680   2.597  10.180  1.00  0.00     0.262 C
HETATM    4  C2  UNL     1      -0.975   1.451  10.821  1.00  0.00     0.091 C
HETATM    5  C1  UNL     1      -2.080   0.525  11.222  1.00  0.00     0.150 C
HETATM    6  C13 UNL     1      -3.300   1.389  11.125  1.00  0.00     0.173 C
HETATM    7  O3  UNL     1      -3.026   2.233  10.060  1.00  0.00    -0.352 OA
BRANCH   5   8
HETATM    8  N3  UNL     1      -2.156  -0.658  10.389  1.00  0.00    -0.245 N
ATOM      9  H3  UNL     1      -2.021  -0.547   9.384  1.00  0.00     0.197 HD
BRANCH   8  10
HETATM   10  N2  UNL     1      -2.373  -1.786  10.821  1.00  0.00    -0.248 NA
BRANCH  10  11
HETATM   11  N1  UNL     1      -2.312  -2.958  11.161  1.00  0.00    -0.261 N
ATOM     12  H12 UNL     1      -1.782  -3.215  10.329  1.00  0.00     0.193 HD
ATOM     13  H11 UNL     1      -2.391  -3.855  11.639  1.00  0.00     0.193 HD
ENDBRANCH  10  11
ENDBRANCH   8  10
ENDBRANCH   5   8
BRANCH   6  14
HETATM   14  C14 UNL     1      -4.558   0.595  10.872  1.00  0.00     0.198 C
BRANCH  14  15
HETATM   15  O4  UNL     1      -4.576   0.232   9.518  1.00  0.00    -0.398 OA
ATOM     16  H4  UNL     1      -4.591  -0.716   9.468  1.00  0.00     0.209 HD
ENDBRANCH  14  15
ENDBRANCH   6  14
ENDBRANCH   2   3
ENDBRANCH   1   2
BRANCH   1  17
HETATM   17  C5  UNL     1      -2.897   3.852  12.917  1.00  0.00     0.068 A
HETATM   18  C6  UNL     1      -4.024   3.390  13.585  1.00  0.00     0.140 A
HETATM   19  N4  UNL     1      -3.728   3.199  14.879  1.00  0.00    -0.282 N
HETATM   20  N5  UNL     1      -2.460   3.531  15.009  1.00  0.00    -0.240 N
HETATM   21  N6  UNL     1      -1.955   3.919  13.859  1.00  0.00    -0.287 N
ATOM     22  H5  UNL     1      -1.939   3.492  15.885  1.00  0.00     0.208 HD
ATOM     23  H6  UNL     1      -0.993   4.225  13.711  1.00  0.00     0.188 HD
BRANCH  19  24
HETATM   24  C7  UNL     1      -4.598   2.728  15.929  1.00  0.00     0.111 C
HETATM   25  C8  UNL     1      -6.011   3.240  15.769  1.00  0.00     0.027 C
HETATM   26  C9  UNL     1      -7.002   2.310  16.437  1.00  0.00     0.004 C
HETATM   27  C10 UNL     1      -6.380   1.684  17.678  1.00  0.00     0.032 C
HETATM   28  C11 UNL     1      -5.234   0.781  17.315  1.00  0.00     0.120 C
HETATM   29  C12 UNL     1      -4.658   1.211  15.991  1.00  0.00     0.059 C
BRANCH  28  30
HETATM   30  O2  UNL     1      -5.720  -0.510  17.187  1.00  0.00    -0.396 OA
ATOM     31  H2  UNL     1      -5.733  -0.912  18.049  1.00  0.00     0.210 HD
ENDBRANCH  28  30
ENDBRANCH  19  24
ENDBRANCH   1  17
TORSDOF 10
ENDMDL