MODEL 2
REMARK VINA RESULT: -7.722172541      1.709      3.874
REMARK  11 active torsions:
REMARK  status: ('A' for Active; 'I' for Inactive)
REMARK    1  A    between atoms: C2_2  and  C3_3
REMARK    2  A    between atoms: C3_3  and  C4_4
REMARK    3  A    between atoms: C4_4  and  C5_5
REMARK    4  A    between atoms: C6_7  and  O2_9
REMARK    5  A    between atoms: C9_13  and  O4_15
REMARK    6  A    between atoms: O4_15  and  C11_16
REMARK    7  A    between atoms: C11_16  and  C12_18
REMARK    8  A    between atoms: C12_18  and  C13_19
REMARK    9  A    between atoms: C13_19  and  O6_20
REMARK   10  A    between atoms: O6_20  and  C14_21
REMARK   11  A    between atoms: C16_24  and  O8_25
ROOT
HETATM    1  C5  UNL     1      -3.240   4.324  11.718  1.00  0.00     0.168 C
HETATM    2  O1  UNL     1      -2.448   4.739  10.678  1.00  0.00    -0.340 OA
HETATM    3  C6  UNL     1      -1.369   3.875  10.516  1.00  0.00     0.224 C
HETATM    4  C7  UNL     1      -0.929   3.813   9.067  1.00  0.00     0.088 C
HETATM    5  C8  UNL     1      -1.599   2.530  11.087  1.00  0.00     0.225 C
HETATM    6  O3  UNL     1      -0.666   1.803  11.356  1.00  0.00    -0.288 OA
HETATM    7  C9  UNL     1      -2.965   1.929  11.394  1.00  0.00     0.161 C
HETATM    8  C10 UNL     1      -3.161   0.825  10.383  1.00  0.00     0.058 C
HETATM    9  C16 UNL     1      -3.970   3.072  11.243  1.00  0.00     0.190 C
ENDROOT
BRANCH   7  10
HETATM   10  O4  UNL     1      -2.861   1.385  12.638  1.00  0.00    -0.299 OA
BRANCH  10  11
HETATM   11  C11 UNL     1      -3.839   0.895  13.463  1.00  0.00     0.262 C
HETATM   12  O5  UNL     1      -4.252  -0.261  13.314  1.00  0.00    -0.265 OA
BRANCH  11  13
HETATM   13  C12 UNL     1      -4.358   1.829  14.510  1.00  0.00     0.138 C
BRANCH  13  14
HETATM   14  C13 UNL     1      -3.814   1.658  15.843  1.00  0.00     0.188 C
BRANCH  14  15
HETATM   15  O6  UNL     1      -4.598   1.502  16.974  1.00  0.00    -0.321 OA
BRANCH  15  16
HETATM   16  C14 UNL     1      -5.772   0.706  16.930  1.00  0.00     0.254 C
HETATM   17  C15 UNL     1      -7.126   1.273  16.855  1.00  0.00     0.126 C
HETATM   18  O7  UNL     1      -5.565  -0.545  16.960  1.00  0.00    -0.266 OA
ENDBRANCH  15  16
ENDBRANCH  14  15
ENDBRANCH  13  14
ENDBRANCH  11  13
ENDBRANCH  10  11
ENDBRANCH   7  10
BRANCH   9  19
HETATM   19  O8  UNL     1      -4.243   3.238   9.878  1.00  0.00    -0.389 OA
ATOM     20  H8  UNL     1      -4.104   2.399   9.456  1.00  0.00     0.210 HD
ENDBRANCH   9  19
BRANCH   3  21
HETATM   21  O2  UNL     1      -0.309   4.464  11.191  1.00  0.00    -0.360 OA
ATOM     22  H2  UNL     1       0.435   3.888  11.058  1.00  0.00     0.213 HD
ENDBRANCH   3  21
BRANCH   1  23
HETATM   23  C4  UNL     1      -4.193   5.345  12.134  1.00  0.00     0.119 C
BRANCH  23  24
HETATM   24  C3  UNL     1      -5.081   5.244  12.988  1.00  0.00    -0.154 C
BRANCH  24  25
HETATM   25  C2  UNL     1      -6.073   5.128  13.933  1.00  0.00     0.040 C
HETATM   26  C1  UNL     1      -5.917   4.913  15.257  1.00  0.00     0.020 C
ENDBRANCH  24  25
ENDBRANCH  23  24
ENDBRANCH   1  23
TORSDOF 11
ENDMDL