MODEL 4
REMARK VINA RESULT: -7.705796130      1.533      1.789
REMARK  10 active torsions:
REMARK  status: ('A' for Active; 'I' for Inactive)
REMARK    1  A    between atoms: O1_2  and  C2_3
REMARK    2  A    between atoms: N1_6  and  O3_8
REMARK    3  A    between atoms: C7_14  and  C8_15
REMARK    4  A    between atoms: C8_15  and  O5_16
REMARK    5  A    between atoms: C8_15  and  C9_18
REMARK    6  A    between atoms: C9_18  and  C10_19
REMARK    7  A    between atoms: N2_20  and  C11_22
REMARK    8  A    between atoms: C11_22  and  C12_23
REMARK    9  A    between atoms: C12_23  and  C13_24
REMARK   10  A    between atoms: C13_24  and  C14_25
ROOT
HETATM    1  C2  UNL     1      -4.121   0.768  11.797  1.00  0.00     0.306 A
HETATM    2  O2  UNL     1      -4.339   0.050  13.009  1.00  0.00    -0.298 OA
HETATM    3  C3  UNL     1      -4.305   0.974  14.022  1.00  0.00     0.172 A
HETATM    4  N1  UNL     1      -4.470   0.621  15.273  1.00  0.00    -0.247 N
ATOM      5  H1  UNL     1      -4.437   1.346  15.990  1.00  0.00     0.196 HD
HETATM    6  C4  UNL     1      -4.070   2.314  13.480  1.00  0.00     0.014 A
HETATM    7  C5  UNL     1      -3.972   2.134  12.174  1.00  0.00     0.054 A
HETATM    8  C6  UNL     1      -3.736   3.146  11.140  1.00  0.00     0.168 C
HETATM    9  O4  UNL     1      -4.399   2.765  10.104  1.00  0.00    -0.292 OA
HETATM   10  C7  UNL     1      -3.084   4.386  10.787  1.00  0.00     0.093 C
HETATM   11  C15 UNL     1      -2.811   5.445  11.874  1.00  0.00    -0.004 C
HETATM   12  C16 UNL     1      -3.561   6.737  11.586  1.00  0.00     0.011 C
HETATM   13  C17 UNL     1      -3.210   4.716  13.015  1.00  0.00     0.010 C
HETATM   14  C18 UNL     1      -3.444   4.665  14.391  1.00  0.00    -0.010 C
HETATM   15  C19 UNL     1      -4.363   5.795  14.851  1.00  0.00     0.010 C
HETATM   16  C20 UNL     1      -4.045   3.297  14.570  1.00  0.00     0.023 C
HETATM   17  C21 UNL     1      -5.436   3.476  15.107  1.00  0.00     0.015 C
ENDROOT
BRANCH  10  18
HETATM   18  C8  UNL     1      -1.755   4.098  10.132  1.00  0.00     0.134 C
BRANCH  18  19
HETATM   19  O5  UNL     1      -1.897   3.737   8.795  1.00  0.00    -0.394 OA
ATOM     20  H5  UNL     1      -2.430   4.357   8.312  1.00  0.00     0.210 HD
ENDBRANCH  18  19
BRANCH  18  21
HETATM   21  C9  UNL     1      -0.786   5.252  10.188  1.00  0.00     0.076 C
BRANCH  21  22
HETATM   22  C10 UNL     1      -0.575   5.853   8.836  1.00  0.00     0.058 C
HETATM   23  N2  UNL     1      -1.514   6.563   8.361  1.00  0.00    -0.402 N
ATOM     24  H2  UNL     1      -2.364   6.696   8.911  1.00  0.00     0.158 HD
BRANCH  23  25
HETATM   25  C11 UNL     1      -1.412   7.177   7.086  1.00  0.00     0.119 C
BRANCH  25  26
HETATM   26  C12 UNL     1      -2.286   6.430   6.114  1.00  0.00     0.030 C
BRANCH  26  27
HETATM   27  C13 UNL     1      -3.686   6.932   6.212  1.00  0.00     0.114 C
BRANCH  27  28
HETATM   28  C14 UNL     1      -4.587   5.897   6.733  1.00  0.00     0.172 C
HETATM   29  O6  UNL     1      -5.823   5.945   6.662  1.00  0.00    -0.648 OA
HETATM   30  O7  UNL     1      -4.004   4.782   7.351  1.00  0.00    -0.648 OA
ENDBRANCH  27  28
ENDBRANCH  26  27
ENDBRANCH  25  26
ENDBRANCH  23  25
ENDBRANCH  21  22
ENDBRANCH  18  21
ENDBRANCH  10  18
BRANCH   1  31
HETATM   31  O1  UNL     1      -3.022   0.214  11.128  1.00  0.00    -0.361 OA
HETATM   32  C1  UNL     1      -3.086  -1.145  11.044  1.00  0.00     0.205 C
ENDBRANCH   1  31
BRANCH   4  33
HETATM   33  O3  UNL     1      -4.683  -0.654  15.662  1.00  0.00    -0.288 OA
ATOM     34  H3  UNL     1      -4.266  -1.401  15.250  1.00  0.00     0.244 HD
ENDBRANCH   4  33
TORSDOF 10
ENDMDL