MODEL 3
REMARK VINA RESULT: -7.063445346      1.474      2.060
REMARK  12 active torsions:
REMARK  status: ('A' for Active; 'I' for Inactive)
REMARK    1  A    between atoms: C2_2  and  C3_3
REMARK    2  A    between atoms: C3_3  and  S1_4
REMARK    3  A    between atoms: S1_4  and  C4_5
REMARK    4  A    between atoms: C4_5  and  C5_6
REMARK    5  A    between atoms: C4_5  and  C6_9
REMARK    6  A    between atoms: C5_6  and  O1_7
REMARK    7  A    between atoms: C7_10  and  O2_11
REMARK    8  A    between atoms: O2_11  and  C8_12
REMARK    9  A    between atoms: C12_17  and  O4_18
REMARK   10  A    between atoms: O4_18  and  C13_19
REMARK   11  A    between atoms: C15_21  and  O5_22
REMARK   12  A    between atoms: C17_25  and  O6_26
ROOT
HETATM    1  C13 UNL     1      -5.485   2.897  15.142  1.00  0.00     0.095 A
HETATM    2  C14 UNL     1      -6.053   3.011  16.431  1.00  0.00     0.075 A
HETATM    3  C15 UNL     1      -6.090   1.983  17.320  1.00  0.00     0.071 A
HETATM    4  C16 UNL     1      -5.561   0.756  16.995  1.00  0.00     0.074 A
HETATM    5  C17 UNL     1      -4.999   0.588  15.764  1.00  0.00     0.091 A
HETATM    6  C18 UNL     1      -4.969   1.657  14.858  1.00  0.00     0.111 A
HETATM    7  C19 UNL     1      -4.341   1.361  13.586  1.00  0.00     0.105 C
HETATM    8  N1  UNL     1      -3.833   1.098  12.585  1.00  0.00    -0.191 NA
ENDROOT
BRANCH   1   9
HETATM    9  O4  UNL     1      -5.503   3.953  14.363  1.00  0.00    -0.344 OA
BRANCH   9  10
HETATM   10  C12 UNL     1      -4.970   5.128  14.134  1.00  0.00     0.134 C
HETATM   11  C11 UNL     1      -3.489   5.328  14.564  1.00  0.00     0.026 C
HETATM   12  C10 UNL     1      -2.558   4.242  14.163  1.00  0.00     0.045 C
HETATM   13  C21 UNL     1      -3.444   6.283  13.346  1.00  0.00     0.027 C
HETATM   14  C7  UNL     1      -1.566   4.861  13.117  1.00  0.00     0.163 C
HETATM   15  C6  UNL     1      -1.981   6.250  13.061  1.00  0.00    -0.031 C
HETATM   16  C20 UNL     1      -4.384   5.362  12.699  1.00  0.00     0.042 C
BRANCH  14  17
HETATM   17  O2  UNL     1      -1.763   4.078  11.980  1.00  0.00    -0.312 OA
BRANCH  17  18
HETATM   18  C8  UNL     1      -0.742   3.321  11.463  1.00  0.00     0.255 C
HETATM   19  C9  UNL     1      -0.969   1.930  10.931  1.00  0.00     0.126 C
HETATM   20  O3  UNL     1       0.454   3.706  11.387  1.00  0.00    -0.266 OA
ENDBRANCH  17  18
ENDBRANCH  14  17
BRANCH  15  21
HETATM   21  C4  UNL     1      -1.485   7.186  12.008  1.00  0.00     0.007 C
BRANCH  21  22
HETATM   22  S1  UNL     1      -2.116   8.822  12.051  1.00  0.00    -0.128 SA
BRANCH  22  23
HETATM   23  C3  UNL     1      -1.609  10.003  13.211  1.00  0.00     0.105 C
BRANCH  23  24
HETATM   24  C2  UNL     1      -0.978   9.606  14.468  1.00  0.00    -0.026 C
HETATM   25  C1  UNL     1      -1.488   8.863  15.390  1.00  0.00     0.007 C
ENDBRANCH  23  24
ENDBRANCH  22  23
ENDBRANCH  21  22
BRANCH  21  26
HETATM   26  C5  UNL     1       0.007   7.016  11.816  1.00  0.00     0.210 C
BRANCH  26  27
HETATM   27  O1  UNL     1       0.191   6.571  10.484  1.00  0.00    -0.396 OA
ATOM     28  H1  UNL     1       0.846   5.883  10.519  1.00  0.00     0.209 HD
ENDBRANCH  26  27
ENDBRANCH  21  26
ENDBRANCH  15  21
ENDBRANCH   9  10
ENDBRANCH   1   9
BRANCH   5  29
HETATM   29  O6  UNL     1      -4.474  -0.632  15.445  1.00  0.00    -0.359 OA
ATOM     30  H6  UNL     1      -3.559  -0.799  15.638  1.00  0.00     0.217 HD
ENDBRANCH   5  29
BRANCH   3  31
HETATM   31  O5  UNL     1      -6.674   2.164  18.595  1.00  0.00    -0.361 OA
ATOM     32  H5  UNL     1      -7.307   2.859  18.737  1.00  0.00     0.217 HD
ENDBRANCH   3  31
TORSDOF 12
ENDMDL