MODEL 5
REMARK VINA RESULT: -6.740527016      2.087      6.540
REMARK  10 active torsions:
REMARK  status: ('A' for Active; 'I' for Inactive)
REMARK    1  A    between atoms: O1_2  and  C2_3
REMARK    2  A    between atoms: C6_7  and  C7_8
REMARK    3  A    between atoms: C7_8  and  C8_9
REMARK    4  A    between atoms: C8_9  and  C9_10
REMARK    5  A    between atoms: C9_10  and  O2_11
REMARK    6  A    between atoms: O2_11  and  N1_12
REMARK    7  A    between atoms: C13_17  and  O3_18
REMARK    8  A    between atoms: C15_22  and  C16_23
REMARK    9  A    between atoms: C16_23  and  O5_24
REMARK   10  A    between atoms: N2_26  and  C17_27
ROOT
HETATM    1  C2  UNL     1      -1.400   3.765   9.636  1.00  0.00     0.104 A
HETATM    2  C3  UNL     1      -1.724   4.866  10.408  1.00  0.00     0.072 A
HETATM    3  C4  UNL     1      -2.334   4.666  11.634  1.00  0.00     0.071 A
HETATM    4  C5  UNL     1      -2.621   3.373  12.090  1.00  0.00     0.104 A
HETATM    5  C6  UNL     1      -2.303   2.278  11.332  1.00  0.00     0.014 A
HETATM    6  C13 UNL     1      -1.690   2.478  10.099  1.00  0.00     0.108 A
HETATM    7  O4  UNL     1      -3.226   3.260  13.314  1.00  0.00    -0.346 OA
HETATM    8  C14 UNL     1      -3.603   4.357  14.121  1.00  0.00     0.203 C
HETATM    9  C15 UNL     1      -2.695   5.584  13.855  1.00  0.00     0.137 C
HETATM   10  N2  UNL     1      -2.690   5.825  12.439  1.00  0.00    -0.345 N
ENDROOT
BRANCH   5  11
HETATM   11  C7  UNL     1      -2.590   0.914  11.783  1.00  0.00     0.046 C
BRANCH  11  12
HETATM   12  C8  UNL     1      -4.064   0.706  12.087  1.00  0.00     0.033 C
BRANCH  12  13
HETATM   13  C9  UNL     1      -4.155  -0.135  13.360  1.00  0.00     0.201 C
BRANCH  13  14
HETATM   14  O2  UNL     1      -4.108   0.699  14.504  1.00  0.00    -0.281 OA
BRANCH  14  15
HETATM   15  N1  UNL     1      -4.595   0.225  15.677  1.00  0.00    -0.276 N
HETATM   16  C10 UNL     1      -5.422   0.919  16.395  1.00  0.00     0.002 C
HETATM   17  C11 UNL     1      -5.867   2.258  15.966  1.00  0.00     0.065 C
HETATM   18  C12 UNL     1      -5.920   0.331  17.679  1.00  0.00     0.065 C
ATOM     19  H1  UNL     1      -4.306  -0.698  16.002  1.00  0.00     0.193 HD
ENDBRANCH  14  15
ENDBRANCH  13  14
ENDBRANCH  12  13
ENDBRANCH  11  12
ENDBRANCH   5  11
BRANCH   6  20
HETATM   20  O3  UNL     1      -1.376   1.378   9.346  1.00  0.00    -0.357 OA
ATOM     21  H3  UNL     1      -1.819   0.550   9.490  1.00  0.00     0.217 HD
ENDBRANCH   6  20
BRANCH   1  22
HETATM   22  O1  UNL     1      -0.793   3.978   8.418  1.00  0.00    -0.353 OA
HETATM   23  C1  UNL     1      -1.326   4.893   7.482  1.00  0.00     0.210 C
ENDBRANCH   1  22
BRANCH  10  24
HETATM   24  C17 UNL     1      -3.006   7.009  11.758  1.00  0.00     0.095 C
HETATM   25  C18 UNL     1      -4.129   7.535  11.387  1.00  0.00    -0.058 C
HETATM   26  C19 UNL     1      -5.507   7.079  11.548  1.00  0.00     0.055 C
HETATM   27  C22 UNL     1      -4.056   8.861  10.622  1.00  0.00     0.079 C
HETATM   28  C20 UNL     1      -6.016   6.694  10.161  1.00  0.00     0.123 C
HETATM   29  N3  UNL     1      -5.325   7.354   9.119  1.00  0.00    -0.402 N
HETATM   30  C21 UNL     1      -4.802   8.625   9.346  1.00  0.00     0.060 C
ATOM     31  H3  UNL     1      -5.211   6.905   8.211  1.00  0.00     0.158 HD
ENDBRANCH  10  24
BRANCH   9  32
HETATM   32  C16 UNL     1      -1.312   5.196  14.314  1.00  0.00     0.192 C
BRANCH  32  33
HETATM   33  O5  UNL     1      -1.350   4.069  15.114  1.00  0.00    -0.399 OA
ATOM     34  H5  UNL     1      -1.081   3.296  14.631  1.00  0.00     0.209 HD
ENDBRANCH  32  33
ENDBRANCH   9  32
TORSDOF 10
ENDMDL