MODEL 1
REMARK VINA RESULT: -7.316794262      0.000      0.000
REMARK  12 active torsions:
REMARK  status: ('A' for Active; 'I' for Inactive)
REMARK    1  A    between atoms: C4_4  and  C5_5
REMARK    2  A    between atoms: C4_4  and  O5_30
REMARK    3  A    between atoms: C5_5  and  N1_6
REMARK    4  A    between atoms: N1_6  and  C6_8
REMARK    5  A    between atoms: C6_8  and  O1_9
REMARK    6  A    between atoms: C6_8  and  C7_11
REMARK    7  A    between atoms: N2_14  and  C10_15
REMARK    8  A    between atoms: C10_15  and  C11_16
REMARK    9  A    between atoms: C11_16  and  O2_17
REMARK   10  A    between atoms: O2_17  and  C12_18
REMARK   11  A    between atoms: C12_18  and  C13_20
REMARK   12  A    between atoms: O5_30  and  C18_31
ROOT
HETATM    1  C7  UNL     1      -2.098   3.401  10.342  1.00  0.00     0.037 C
HETATM    2  C8  UNL     1      -3.603   3.340  10.198  1.00  0.00     0.039 C
HETATM    3  C9  UNL     1      -4.281   2.509  11.243  1.00  0.00     0.273 C
HETATM    4  N2  UNL     1      -3.755   1.178  11.389  1.00  0.00     0.090 N
HETATM    5  C16 UNL     1      -2.287   1.172  11.289  1.00  0.00     0.273 C
HETATM    6  C17 UNL     1      -1.797   2.576  11.611  1.00  0.00     0.039 C
ENDROOT
BRANCH   1   7
HETATM    7  C6  UNL     1      -1.582   4.763  10.610  1.00  0.00     0.221 C
BRANCH   7   8
HETATM    8  N1  UNL     1      -2.367   5.876  10.355  1.00  0.00    -0.370 N
ATOM      9  H1  UNL     1      -2.620   6.064   9.385  1.00  0.00     0.161 HD
BRANCH   8  10
HETATM   10  C5  UNL     1      -2.837   6.758  11.329  1.00  0.00     0.122 C
BRANCH  10  11
HETATM   11  C4  UNL     1      -4.047   6.300  12.061  1.00  0.00     0.086 C
HETATM   12  C2  UNL     1      -3.954   5.913  13.294  1.00  0.00    -0.053 C
HETATM   13  C1  UNL     1      -2.661   5.920  13.996  1.00  0.00     0.046 C
HETATM   14  C3  UNL     1      -5.142   5.439  14.035  1.00  0.00     0.046 C
BRANCH  11  15
HETATM   15  O5  UNL     1      -5.298   6.270  11.468  1.00  0.00    -0.340 OA
BRANCH  15  16
HETATM   16  C18 UNL     1      -6.036   7.326  10.967  1.00  0.00     0.057 C
HETATM   17  C19 UNL     1      -7.297   7.571  11.809  1.00  0.00     0.045 C
HETATM   18  C20 UNL     1      -5.313   8.658  10.938  1.00  0.00     0.045 C
HETATM   19  C21 UNL     1      -6.481   7.061   9.544  1.00  0.00     0.045 C
ENDBRANCH  15  16
ENDBRANCH  11  15
ENDBRANCH  10  11
ENDBRANCH   8  10
ENDBRANCH   7   8
BRANCH   7  20
HETATM   20  O1  UNL     1      -0.328   4.851   9.955  1.00  0.00    -0.377 OA
ATOM     21  H1  UNL     1       0.300   4.241  10.324  1.00  0.00     0.212 HD
ENDBRANCH   7  20
ENDBRANCH   1   7
BRANCH   4  22
HETATM   22  C10 UNL     1      -4.022   0.788  12.779  1.00  0.00     0.299 C
BRANCH  22  23
HETATM   23  C11 UNL     1      -4.728   1.856  13.541  1.00  0.00     0.209 C
BRANCH  23  24
HETATM   24  O2  UNL     1      -4.024   2.347  14.650  1.00  0.00    -0.315 OA
BRANCH  24  25
HETATM   25  C12 UNL     1      -4.061   1.777  15.909  1.00  0.00     0.314 C
HETATM   26  O3  UNL     1      -2.989   1.734  16.557  1.00  0.00    -0.257 OA
BRANCH  25  27
HETATM   27  C13 UNL     1      -5.269   1.236  16.506  1.00  0.00     0.155 A
HETATM   28  N3  UNL     1      -5.523  -0.031  16.902  1.00  0.00    -0.234 N
HETATM   29  O4  UNL     1      -6.733  -0.092  17.387  1.00  0.00    -0.156 OA
ATOM     30  H3  UNL     1      -4.873  -0.814  16.833  1.00  0.00     0.197 HD
HETATM   31  N4  UNL     1      -7.315   1.068  17.341  1.00  0.00    -0.244 N
HETATM   32  C14 UNL     1      -6.415   1.932  16.789  1.00  0.00     0.065 A
ATOM     33  H4  UNL     1      -8.259   1.289  17.656  1.00  0.00     0.196 HD
HETATM   34  C15 UNL     1      -6.724   3.366  16.572  1.00  0.00     0.073 C
ENDBRANCH  25  27
ENDBRANCH  24  25
ENDBRANCH  23  24
ENDBRANCH  22  23
ENDBRANCH   4  22
TORSDOF 12
ENDMDL