MODEL 5
REMARK VINA RESULT: -7.125931321      3.007      7.453
REMARK  9 active torsions:
REMARK  status: ('A' for Active; 'I' for Inactive)
REMARK    1  A    between atoms: C2_2  and  C3_3
REMARK    2  A    between atoms: C3_3  and  C4_4
REMARK    3  A    between atoms: N1_6  and  N2_8
REMARK    4  A    between atoms: N2_8  and  C6_10
REMARK    5  A    between atoms: C7_12  and  C8_13
REMARK       I    between atoms: C8_13  and  N3_15
REMARK    6  A    between atoms: N3_15  and  C9_17
REMARK    7  A    between atoms: C9_17  and  C10_18
REMARK    8  A    between atoms: C10_18  and  C11_19
REMARK    9  A    between atoms: C15_26  and  N6_27
ROOT
HETATM    1  C6  UNL     1      -2.609   5.226  11.279  1.00  0.00     0.134 A
HETATM    2  S1  UNL     1      -3.711   4.754  12.490  1.00  0.00    -0.058 SA
HETATM    3  C7  UNL     1      -3.805   3.064  12.693  1.00  0.00     0.116 A
HETATM    4  C14 UNL     1      -2.971   2.375  11.840  1.00  0.00     0.140 A
HETATM    5  N4  UNL     1      -3.014   0.935  11.974  1.00  0.00    -0.081 NA
HETATM    6  N5  UNL     1      -2.170   2.919  10.950  1.00  0.00    -0.327 N
ATOM      7  H5  UNL     1      -1.622   2.254  10.404  1.00  0.00     0.168 HD
HETATM    8  C15 UNL     1      -1.959   4.192  10.645  1.00  0.00     0.140 A
ENDROOT
BRANCH   1   9
HETATM    9  N2  UNL     1      -2.417   6.459  10.999  1.00  0.00    -0.291 N
ATOM     10  H2  UNL     1      -1.528   6.736  10.582  1.00  0.00     0.187 HD
BRANCH   9  11
HETATM   11  N1  UNL     1      -3.368   7.427  11.239  1.00  0.00    -0.308 N
HETATM   12  C4  UNL     1      -4.168   7.926  10.376  1.00  0.00    -0.000 C
HETATM   13  C5  UNL     1      -4.080   7.429   8.976  1.00  0.00     0.065 C
ATOM     14  H1  UNL     1      -3.441   7.778  12.195  1.00  0.00     0.186 HD
BRANCH  12  15
HETATM   15  C3  UNL     1      -5.152   8.957  10.725  1.00  0.00     0.053 C
BRANCH  15  16
HETATM   16  C2  UNL     1      -6.569   8.539  10.445  1.00  0.00     0.001 C
HETATM   17  C1  UNL     1      -7.097   7.791  11.644  1.00  0.00     0.005 C
ENDBRANCH  15  16
ENDBRANCH  12  15
ENDBRANCH   9  11
ENDBRANCH   1   9
BRANCH   8  18
HETATM   18  N6  UNL     1      -0.997   4.453   9.600  1.00  0.00    -0.362 N
HETATM   19  C16 UNL     1       0.413   4.673   9.922  1.00  0.00     0.154 C
HETATM   20  C17 UNL     1       1.183   3.606   9.167  1.00  0.00     0.291 C
HETATM   21  N7  UNL     1       1.043   3.901   7.763  1.00  0.00     0.087 N
HETATM   22  C18 UNL     1       2.308   4.504   7.333  1.00  0.00     0.310 C
HETATM   23  C19 UNL     1       0.004   4.838   7.471  1.00  0.00     0.291 C
HETATM   24  C20 UNL     1      -1.301   4.520   8.207  1.00  0.00     0.154 C
ENDBRANCH   8  18
BRANCH   3  25
HETATM   25  C8  UNL     1      -4.672   2.389  13.662  1.00  0.00     0.262 C
HETATM   26  O1  UNL     1      -5.915   2.532  13.607  1.00  0.00    -0.267 OA
HETATM   27  N3  UNL     1      -4.100   1.572  14.666  1.00  0.00    -0.356 N
ATOM     28  H3  UNL     1      -3.089   1.452  14.717  1.00  0.00     0.162 HD
BRANCH  27  29
HETATM   29  C9  UNL     1      -4.960   0.911  15.615  1.00  0.00     0.123 C
BRANCH  29  30
HETATM   30  C10 UNL     1      -4.881   1.627  16.933  1.00  0.00     0.023 C
BRANCH  30  31
HETATM   31  C11 UNL     1      -6.247   1.957  17.479  1.00  0.00    -0.021 C
HETATM   32  C12 UNL     1      -7.189   0.840  17.029  1.00  0.00     0.009 C
HETATM   33  C13 UNL     1      -6.726   3.274  16.892  1.00  0.00     0.009 C
ENDBRANCH  30  31
ENDBRANCH  29  30
ENDBRANCH  27  29
ENDBRANCH   3  25
TORSDOF 9
ENDMDL