MODEL 4
REMARK VINA RESULT: -6.720671729      1.663      5.243
REMARK  12 active torsions:
REMARK  status: ('A' for Active; 'I' for Inactive)
REMARK    1  A    between atoms: C2_2  and  O1_3
REMARK    2  A    between atoms: O1_3  and  C3_4
REMARK    3  A    between atoms: C3_4  and  C4_6
REMARK    4  A    between atoms: C4_6  and  C5_7
REMARK    5  A    between atoms: C4_6  and  N2_17
REMARK    6  A    between atoms: C5_7  and  C6_8
REMARK    7  A    between atoms: C6_8  and  C7_9
REMARK       I    between atoms: C7_9  and  N1_11
REMARK    8  A    between atoms: N1_11  and  C8_13
REMARK    9  A    between atoms: C12_18  and  O4_19
REMARK   10  A    between atoms: C15_23  and  O5_24
REMARK   11  A    between atoms: C17_27  and  C18_28
REMARK   12  A    between atoms: C18_28  and  O6_29
ROOT
HETATM    1  N2  UNL     1      -3.031   4.875  12.123  1.00  0.00    -0.293 N
HETATM    2  C12 UNL     1      -4.301   5.191  12.401  1.00  0.00     0.152 A
HETATM    3  C13 UNL     1      -4.614   4.699  13.612  1.00  0.00     0.004 A
HETATM    4  C14 UNL     1      -3.488   4.049  14.106  1.00  0.00     0.004 A
HETATM    5  C15 UNL     1      -2.530   4.180  13.157  1.00  0.00     0.152 A
HETATM    6  C16 UNL     1      -3.521   3.401  15.436  1.00  0.00     0.050 C
HETATM    7  C17 UNL     1      -4.827   2.634  15.680  1.00  0.00     0.014 C
HETATM    8  C20 UNL     1      -5.954   3.201  14.912  1.00  0.00     0.011 C
HETATM    9  C21 UNL     1      -5.789   4.667  14.514  1.00  0.00     0.044 C
ENDROOT
BRANCH   1  10
HETATM   10  C4  UNL     1      -2.260   5.187  10.938  1.00  0.00     0.194 C
BRANCH  10  11
HETATM   11  C3  UNL     1      -2.641   4.292   9.841  1.00  0.00     0.282 C
HETATM   12  O2  UNL     1      -3.800   4.426   9.306  1.00  0.00    -0.263 OA
BRANCH  11  13
HETATM   13  O1  UNL     1      -1.865   3.288   9.301  1.00  0.00    -0.320 OA
BRANCH  13  14
HETATM   14  C2  UNL     1      -0.870   2.612  10.082  1.00  0.00     0.174 C
HETATM   15  C1  UNL     1      -1.412   1.319  10.601  1.00  0.00     0.034 C
ENDBRANCH  13  14
ENDBRANCH  11  13
ENDBRANCH  10  11
BRANCH  10  16
HETATM   16  C5  UNL     1      -2.260   6.616  10.576  1.00  0.00     0.045 C
BRANCH  16  17
HETATM   17  C6  UNL     1      -1.041   7.294  11.144  1.00  0.00     0.105 C
BRANCH  17  18
HETATM   18  C7  UNL     1      -1.385   8.129  12.334  1.00  0.00     0.218 C
HETATM   19  O3  UNL     1      -2.607   8.320  12.566  1.00  0.00    -0.274 OA
HETATM   20  N1  UNL     1      -0.433   8.695  13.185  1.00  0.00    -0.353 N
ATOM     21  H1  UNL     1       0.552   8.530  12.982  1.00  0.00     0.163 HD
BRANCH  20  22
HETATM   22  C8  UNL     1      -0.764   9.502  14.337  1.00  0.00     0.022 C
HETATM   23  C9  UNL     1      -1.598  10.720  13.921  1.00  0.00     0.037 C
HETATM   24  C10 UNL     1      -1.520   8.730  15.367  1.00  0.00     0.037 C
HETATM   25  C11 UNL     1       0.483  10.079  15.004  1.00  0.00     0.037 C
ENDBRANCH  20  22
ENDBRANCH  17  18
ENDBRANCH  16  17
ENDBRANCH  10  16
ENDBRANCH   1  10
BRANCH   2  26
HETATM   26  O4  UNL     1      -5.126   5.911  11.549  1.00  0.00    -0.345 OA
ATOM     27  H4  UNL     1      -6.002   5.639  11.302  1.00  0.00     0.219 HD
ENDBRANCH   2  26
BRANCH   5  28
HETATM   28  O5  UNL     1      -1.230   3.657  13.272  1.00  0.00    -0.345 OA
ATOM     29  H5  UNL     1      -0.564   3.914  13.899  1.00  0.00     0.219 HD
ENDBRANCH   5  28
BRANCH   7  30
HETATM   30  C18 UNL     1      -4.596   1.178  15.388  1.00  0.00     0.172 C
BRANCH  30  31
HETATM   31  O6  UNL     1      -5.188   0.220  16.078  1.00  0.00    -0.396 OA
HETATM   32  C19 UNL     1      -5.822   0.358  17.250  1.00  0.00     0.201 C
ENDBRANCH  30  31
ENDBRANCH   7  30
TORSDOF 12
ENDMDL