MODEL 3
REMARK VINA RESULT: -6.923219235      0.898      3.597
REMARK  11 active torsions:
REMARK  status: ('A' for Active; 'I' for Inactive)
REMARK    1  A    between atoms: C2_2  and  C3_3
REMARK    2  A    between atoms: C3_3  and  N1_4
REMARK    3  A    between atoms: C4_5  and  C5_6
REMARK    4  A    between atoms: C5_6  and  S1_7
REMARK    5  A    between atoms: S1_7  and  C6_8
REMARK    6  A    between atoms: C7_11  and  C8_12
REMARK    7  A    between atoms: C12_18  and  N5_19
REMARK    8  A    between atoms: N5_19  and  C13_21
REMARK    9  A    between atoms: C18_28  and  C19_29
REMARK   10  A    between atoms: C19_29  and  O1_30
REMARK   11  A    between atoms: N7_32  and  O2_34
ROOT
HETATM    1  C8  UNL     1      -5.238   2.146  16.885  1.00  0.00     0.182 C
HETATM    2  C9  UNL     1      -6.534   1.494  16.807  1.00  0.00     0.065 C
HETATM    3  N3  UNL     1      -7.558   0.969  16.758  1.00  0.00    -0.197 NA
ENDROOT
BRANCH   1   4
HETATM    4  C7  UNL     1      -4.841   2.527  15.480  1.00  0.00     0.049 A
HETATM    5  N2  UNL     1      -4.859   3.796  15.075  1.00  0.00    -0.338 N
HETATM    6  C6  UNL     1      -4.516   4.194  13.837  1.00  0.00     0.146 A
ATOM      7  H2  UNL     1      -5.149   4.509  15.744  1.00  0.00     0.168 HD
HETATM    8  N6  UNL     1      -4.133   3.206  12.972  1.00  0.00    -0.322 N
HETATM    9  C12 UNL     1      -4.073   1.907  13.253  1.00  0.00     0.126 A
ATOM     10  H6  UNL     1      -3.869   3.491  12.029  1.00  0.00     0.169 HD
HETATM   11  C10 UNL     1      -4.449   1.577  14.574  1.00  0.00     0.111 A
HETATM   12  C11 UNL     1      -4.431   0.218  15.006  1.00  0.00     0.105 C
HETATM   13  N4  UNL     1      -4.422  -0.889  15.375  1.00  0.00    -0.191 NA
BRANCH   6  14
HETATM   14  S1  UNL     1      -4.504   5.887  13.335  1.00  0.00    -0.092 SA
BRANCH  14  15
HETATM   15  C5  UNL     1      -3.405   6.344  12.006  1.00  0.00     0.118 C
BRANCH  15  16
HETATM   16  C4  UNL     1      -3.851   5.986  10.614  1.00  0.00     0.233 C
HETATM   17  N1  UNL     1      -4.393   7.052   9.838  1.00  0.00     0.106 N
HETATM   18  C18 UNL     1      -3.851   6.981   8.491  1.00  0.00     0.299 C
HETATM   19  C17 UNL     1      -2.460   6.429   8.664  1.00  0.00     0.047 C
HETATM   20  C16 UNL     1      -2.577   5.538   9.889  1.00  0.00     0.039 C
BRANCH  17  21
HETATM   21  C3  UNL     1      -5.811   7.115   9.832  1.00  0.00     0.273 C
BRANCH  21  22
HETATM   22  C2  UNL     1      -6.459   8.227  10.596  1.00  0.00     0.026 C
HETATM   23  C1  UNL     1      -7.306   7.724  11.748  1.00  0.00     0.007 C
ENDBRANCH  21  22
ENDBRANCH  17  21
BRANCH  18  24
HETATM   24  C19 UNL     1      -4.612   6.142   7.561  1.00  0.00     0.169 C
HETATM   25  N7  UNL     1      -5.682   6.634   6.995  1.00  0.00    -0.249 N
ATOM     26  H7  UNL     1      -5.975   7.588   7.205  1.00  0.00     0.196 HD
BRANCH  24  27
HETATM   27  O1  UNL     1      -4.276   4.843   7.230  1.00  0.00    -0.346 OA
ATOM     28  H1  UNL     1      -4.636   4.368   6.490  1.00  0.00     0.219 HD
ENDBRANCH  24  27
BRANCH  25  29
HETATM   29  O2  UNL     1      -6.409   5.872   6.124  1.00  0.00    -0.288 OA
ATOM     30  H2  UNL     1      -7.041   5.244   6.453  1.00  0.00     0.244 HD
ENDBRANCH  25  29
ENDBRANCH  18  24
ENDBRANCH  15  16
ENDBRANCH  14  15
ENDBRANCH   6  14
BRANCH   9  31
HETATM   31  N5  UNL     1      -3.740   0.959  12.534  1.00  0.00    -0.371 N
ATOM     32  H5  UNL     1      -4.034   0.092  12.986  1.00  0.00     0.161 HD
BRANCH  31  33
HETATM   33  C13 UNL     1      -3.120   0.642  11.349  1.00  0.00     0.075 C
HETATM   34  C14 UNL     1      -3.122  -0.842  10.996  1.00  0.00     0.031 C
HETATM   35  C15 UNL     1      -1.720   1.128  11.110  1.00  0.00     0.031 C
ENDBRANCH  31  33
ENDBRANCH   9  31
ENDBRANCH   1   4
TORSDOF 11
ENDMDL