MODEL 3
REMARK VINA RESULT: -7.595182536      1.733      2.704
REMARK  11 active torsions:
REMARK  status: ('A' for Active; 'I' for Inactive)
REMARK    1  A    between atoms: C2_2  and  C3_3
REMARK    2  A    between atoms: C3_3  and  C4_5
REMARK    3  A    between atoms: C6_9  and  N2_10
REMARK    4  A    between atoms: N2_10  and  C7_11
REMARK    5  A    between atoms: N2_10  and  C9_13
REMARK    6  A    between atoms: C12_16  and  C13_17
REMARK    7  A    between atoms: C13_17  and  C14_18
REMARK    8  A    between atoms: C17_21  and  N3_22
REMARK    9  A    between atoms: C20_28  and  C21_29
REMARK   10  A    between atoms: C21_29  and  O2_30
REMARK   11  A    between atoms: C22_34  and  N4_35
ROOT
HETATM    1  C9  UNL     1      -3.593   5.180  10.784  1.00  0.00     0.226 C
HETATM    2  C10 UNL     1      -3.223   5.642   9.450  1.00  0.00     0.054 C
HETATM    3  C11 UNL     1      -4.413   6.107   8.607  1.00  0.00     0.011 C
HETATM    4  C12 UNL     1      -5.271   7.084   9.392  1.00  0.00     0.017 C
HETATM    5  C20 UNL     1      -5.199   6.730  10.858  1.00  0.00     0.151 C
HETATM    6  O3  UNL     1      -5.005   5.329  10.946  1.00  0.00    -0.359 OA
ENDROOT
BRANCH   1   7
HETATM    7  N2  UNL     1      -3.144   3.940  11.301  1.00  0.00    -0.321 N
BRANCH   7   8
HETATM    8  C6  UNL     1      -3.672   3.477  12.576  1.00  0.00     0.230 A
HETATM    9  N1  UNL     1      -4.101   4.323  13.499  1.00  0.00    -0.331 N
HETATM   10  C5  UNL     1      -4.594   3.896  14.690  1.00  0.00     0.111 A
ATOM     11  H1  UNL     1      -4.060   5.325  13.310  1.00  0.00     0.168 HD
HETATM   12  C4  UNL     1      -4.645   2.549  14.940  1.00  0.00     0.076 A
HETATM   13  C22 UNL     1      -4.179   1.697  13.934  1.00  0.00     0.160 A
HETATM   14  O4  UNL     1      -3.723   2.195  12.822  1.00  0.00    -0.261 OA
BRANCH  12  15
HETATM   15  C3  UNL     1      -5.160   2.002  16.192  1.00  0.00     0.164 C
HETATM   16  O1  UNL     1      -4.405   1.285  16.892  1.00  0.00    -0.292 OA
BRANCH  15  17
HETATM   17  C2  UNL     1      -6.528   2.265  16.645  1.00  0.00     0.079 C
HETATM   18  C1  UNL     1      -7.176   0.994  17.193  1.00  0.00     0.013 C
ENDBRANCH  15  17
ENDBRANCH  12  15
BRANCH  13  19
HETATM   19  N4  UNL     1      -4.221   0.430  14.160  1.00  0.00    -0.379 N
ATOM     20  H42 UNL     1      -4.039   0.030  15.080  1.00  0.00     0.158 HD
ATOM     21  H41 UNL     1      -4.449  -0.181  13.376  1.00  0.00     0.158 HD
ENDBRANCH  13  19
ENDBRANCH   7   8
BRANCH   7  22
HETATM   22  C7  UNL     1      -2.212   3.030  10.685  1.00  0.00     0.124 C
HETATM   23  C8  UNL     1      -0.823   3.168  11.200  1.00  0.00     0.026 C
ENDBRANCH   7  22
ENDBRANCH   1   7
BRANCH   5  24
HETATM   24  C21 UNL     1      -6.366   7.140  11.677  1.00  0.00     0.196 C
BRANCH  24  25
HETATM   25  O2  UNL     1      -6.504   6.351  12.825  1.00  0.00    -0.398 OA
ATOM     26  H2  UNL     1      -6.485   6.873  13.619  1.00  0.00     0.209 HD
ENDBRANCH  24  25
ENDBRANCH   5  24
BRANCH   4  27
HETATM   27  C13 UNL     1      -6.669   7.020   8.887  1.00  0.00     0.012 C
BRANCH  27  28
HETATM   28  C14 UNL     1      -7.140   8.258   8.212  1.00  0.00    -0.014 C
HETATM   29  C15 UNL     1      -8.659   8.204   8.156  1.00  0.00     0.007 C
HETATM   30  C16 UNL     1      -9.189   9.311   7.306  1.00  0.00     0.033 C
HETATM   31  C17 UNL     1      -8.551  10.639   7.519  1.00  0.00     0.183 C
HETATM   32  C18 UNL     1      -7.105  10.633   7.873  1.00  0.00     0.033 C
HETATM   33  C19 UNL     1      -6.806   9.544   8.904  1.00  0.00     0.007 C
BRANCH  31  34
HETATM   34  N3  UNL     1      -8.762  11.416   6.304  1.00  0.00    -0.075 N
ATOM     35  H33 UNL     1      -9.055  10.846   5.511  1.00  0.00     0.274 HD
ATOM     36  H32 UNL     1      -9.590  12.012   6.350  1.00  0.00     0.274 HD
ATOM     37  H31 UNL     1      -7.903  11.937   6.128  1.00  0.00     0.274 HD
ENDBRANCH  31  34
ENDBRANCH  27  28
ENDBRANCH   4  27
TORSDOF 11
ENDMDL