MODEL 1
REMARK VINA RESULT: -7.139468406      0.000      0.000
REMARK  12 active torsions:
REMARK  status: ('A' for Active; 'I' for Inactive)
REMARK    1  A    between atoms: C2_2  and  O1_3
REMARK    2  A    between atoms: O1_3  and  C3_4
REMARK    3  A    between atoms: C3_4  and  C4_6
REMARK    4  A    between atoms: C4_6  and  C5_7
REMARK    5  A    between atoms: C5_7  and  N1_8
REMARK    6  A    between atoms: C6_9  and  O3_10
REMARK    7  A    between atoms: C9_14  and  O4_15
REMARK    8  A    between atoms: C10_17  and  C11_18
REMARK    9  A    between atoms: C11_18  and  C12_19
REMARK   10  A    between atoms: C12_19  and  S1_20
REMARK   11  A    between atoms: N2_22  and  N3_23
REMARK       I    between atoms: N3_23  and  C14_25
REMARK   12  A    between atoms: C14_25  and  C15_27
ROOT
HETATM    1  N1  UNL     1      -3.214   5.447  11.188  1.00  0.00    -0.307 N
HETATM    2  C6  UNL     1      -3.039   5.720  12.491  1.00  0.00     0.152 A
HETATM    3  C7  UNL     1      -3.439   4.619  13.261  1.00  0.00     0.020 A
HETATM    4  C8  UNL     1      -3.862   3.668  12.374  1.00  0.00     0.024 A
HETATM    5  C9  UNL     1      -3.707   4.218  11.104  1.00  0.00     0.153 A
HETATM    6  C10 UNL     1      -4.305   2.454  13.111  1.00  0.00     0.118 C
HETATM    7  N2  UNL     1      -3.957   2.724  14.463  1.00  0.00    -0.215 NA
HETATM    8  C19 UNL     1      -3.582   4.099  14.619  1.00  0.00     0.158 C
ENDROOT
BRANCH   7   9
HETATM    9  N3  UNL     1      -5.022   2.484  15.334  1.00  0.00    -0.288 N
HETATM   10  C14 UNL     1      -4.887   1.579  16.407  1.00  0.00     0.239 C
HETATM   11  O5  UNL     1      -3.792   0.990  16.574  1.00  0.00    -0.271 OA
ATOM     12  H3  UNL     1      -5.908   2.969  15.191  1.00  0.00     0.184 HD
BRANCH  10  13
HETATM   13  C15 UNL     1      -5.988   1.286  17.359  1.00  0.00     0.031 C
HETATM   14  C16 UNL     1      -5.883  -0.176  17.728  1.00  0.00     0.025 C
HETATM   15  C17 UNL     1      -5.901   2.129  18.605  1.00  0.00     0.025 C
HETATM   16  C18 UNL     1      -7.336   1.549  16.699  1.00  0.00     0.025 C
ENDBRANCH  10  13
ENDBRANCH   7   9
BRANCH   6  17
HETATM   17  C11 UNL     1      -3.523   1.294  12.520  1.00  0.00     0.036 C
BRANCH  17  18
HETATM   18  C12 UNL     1      -4.461   0.554  11.596  1.00  0.00     0.075 C
BRANCH  18  19
HETATM   19  S1  UNL     1      -3.575  -0.524  10.452  1.00  0.00    -0.173 SA
HETATM   20  C13 UNL     1      -2.978  -1.977  11.363  1.00  0.00     0.089 C
ENDBRANCH  18  19
ENDBRANCH  17  18
ENDBRANCH   6  17
BRANCH   5  21
HETATM   21  O4  UNL     1      -4.022   3.579   9.918  1.00  0.00    -0.345 OA
ATOM     22  H4  UNL     1      -4.308   2.675   9.853  1.00  0.00     0.219 HD
ENDBRANCH   5  21
BRANCH   2  23
HETATM   23  O3  UNL     1      -2.543   6.896  13.029  1.00  0.00    -0.345 OA
ATOM     24  H3  UNL     1      -2.632   7.189  13.929  1.00  0.00     0.219 HD
ENDBRANCH   2  23
BRANCH   1  25
HETATM   25  C5  UNL     1      -2.908   6.349  10.074  1.00  0.00     0.143 C
BRANCH  25  26
HETATM   26  C4  UNL     1      -4.100   7.269   9.917  1.00  0.00     0.131 C
BRANCH  26  27
HETATM   27  C3  UNL     1      -5.209   6.635   9.187  1.00  0.00     0.260 C
HETATM   28  O2  UNL     1      -4.926   6.011   8.133  1.00  0.00    -0.265 OA
BRANCH  27  29
HETATM   29  O1  UNL     1      -6.536   6.668   9.565  1.00  0.00    -0.322 OA
BRANCH  29  30
HETATM   30  C2  UNL     1      -7.167   7.768  10.176  1.00  0.00     0.174 C
HETATM   31  C1  UNL     1      -7.215   7.695  11.665  1.00  0.00     0.034 C
ENDBRANCH  29  30
ENDBRANCH  27  29
ENDBRANCH  26  27
ENDBRANCH  25  26
ENDBRANCH   1  25
TORSDOF 12
ENDMDL