MODEL 3
REMARK VINA RESULT: -7.003410688      2.281      4.041
REMARK  10 active torsions:
REMARK  status: ('A' for Active; 'I' for Inactive)
REMARK    1  A    between atoms: C2_2  and  O2_4
REMARK    2  A    between atoms: O2_4  and  N1_5
REMARK    3  A    between atoms: C3_7  and  O3_8
REMARK    4  A    between atoms: C3_7  and  C4_10
REMARK    5  A    between atoms: C4_10  and  C5_11
REMARK    6  A    between atoms: C5_11  and  C6_12
REMARK    7  A    between atoms: C6_12  and  C7_13
REMARK    8  A    between atoms: C7_13  and  C8_14
REMARK    9  A    between atoms: C9_15  and  C10_16
REMARK   10  A    between atoms: N3_25  and  C15_26
ROOT
HETATM    1  C10 UNL     1      -3.201   3.132  10.840  1.00  0.00     0.050 A
HETATM    2  C11 UNL     1      -3.499   1.852  11.172  1.00  0.00     0.033 A
HETATM    3  C12 UNL     1      -4.816   1.461  11.712  1.00  0.00     0.056 C
HETATM    4  C13 UNL     1      -2.539   0.847  11.109  1.00  0.00     0.257 A
HETATM    5  O4  UNL     1      -2.812  -0.327  11.409  1.00  0.00    -0.267 OA
HETATM    6  N2  UNL     1      -1.315   1.209  10.711  1.00  0.00    -0.275 N
ATOM      7  H2  UNL     1      -0.588   0.495  10.655  1.00  0.00     0.173 HD
HETATM    8  C14 UNL     1      -1.003   2.464  10.385  1.00  0.00     0.330 A
HETATM    9  O5  UNL     1       0.182   2.661  10.027  1.00  0.00    -0.246 OA
HETATM   10  N3  UNL     1      -1.947   3.470  10.441  1.00  0.00    -0.292 N
ENDROOT
BRANCH   1  11
HETATM   11  C9  UNL     1      -4.232   4.125  10.754  1.00  0.00     0.026 C
HETATM   12  C8  UNL     1      -4.554   5.127  11.511  1.00  0.00    -0.024 C
BRANCH  12  13
HETATM   13  C7  UNL     1      -4.001   5.645  12.759  1.00  0.00     0.027 C
BRANCH  13  14
HETATM   14  C6  UNL     1      -5.018   5.599  13.871  1.00  0.00     0.004 C
BRANCH  14  15
HETATM   15  C5  UNL     1      -5.120   4.225  14.436  1.00  0.00     0.008 C
BRANCH  15  16
HETATM   16  C4  UNL     1      -3.813   3.681  14.902  1.00  0.00     0.086 C
BRANCH  16  17
HETATM   17  C3  UNL     1      -4.070   2.336  15.527  1.00  0.00     0.136 C
HETATM   18  N1  UNL     1      -5.100   1.640  15.225  1.00  0.00    -0.239 N
ATOM     19  H1  UNL     1      -5.763   2.010  14.544  1.00  0.00     0.197 HD
BRANCH  18  20
HETATM   20  O2  UNL     1      -5.339   0.430  15.782  1.00  0.00    -0.198 OA
BRANCH  20  21
HETATM   21  C2  UNL     1      -6.097   0.349  16.951  1.00  0.00     0.277 C
HETATM   22  C1  UNL     1      -7.107   1.366  17.328  1.00  0.00     0.128 C
HETATM   23  O1  UNL     1      -5.906  -0.629  17.706  1.00  0.00    -0.264 OA
ENDBRANCH  20  21
ENDBRANCH  18  20
BRANCH  17  24
HETATM   24  O3  UNL     1      -3.136   1.889  16.444  1.00  0.00    -0.348 OA
ATOM     25  H3  UNL     1      -3.360   1.754  17.357  1.00  0.00     0.219 HD
ENDBRANCH  17  24
ENDBRANCH  16  17
ENDBRANCH  15  16
ENDBRANCH  14  15
ENDBRANCH  13  14
ENDBRANCH  12  13
ENDBRANCH   1  11
BRANCH  10  26
HETATM   26  C15 UNL     1      -1.487   4.727  10.032  1.00  0.00     0.122 C
HETATM   27  C16 UNL     1      -0.089   5.191  10.111  1.00  0.00     0.102 C
HETATM   28  S1  UNL     1      -0.669   6.712   9.192  1.00  0.00    -0.155 SA
HETATM   29  C17 UNL     1      -1.520   5.156   8.613  1.00  0.00     0.022 C
HETATM   30  C18 UNL     1      -2.827   5.622   8.011  1.00  0.00     0.029 C
HETATM   31  C19 UNL     1      -0.698   4.455   7.594  1.00  0.00     0.029 C
ENDBRANCH  10  26
TORSDOF 10
ENDMDL