MODEL 5
REMARK VINA RESULT: -6.879555730      2.577      3.669
REMARK  7 active torsions:
REMARK  status: ('A' for Active; 'I' for Inactive)
REMARK    1  A    between atoms: C2_2  and  O1_4
REMARK    2  A    between atoms: C2_2  and  C4_6
REMARK    3  A    between atoms: C4_6  and  N1_7
REMARK    4  A    between atoms: N1_7  and  C5_9
REMARK    5  A    between atoms: C6_14  and  C7_15
REMARK    6  A    between atoms: C8_18  and  C9_19
REMARK    7  A    between atoms: C14_25  and  C15_26
ROOT
HETATM    1  C5  UNL     1      -3.769   2.917  15.393  1.00  0.00     0.161 A
HETATM    2  N2  UNL     1      -2.613   3.561  15.212  1.00  0.00    -0.279 N
ATOM      3  H2  UNL     1      -1.734   3.359  15.690  1.00  0.00     0.189 HD
HETATM    4  N3  UNL     1      -2.793   4.457  14.351  1.00  0.00    -0.288 N
ATOM      5  H3  UNL     1      -1.881   4.906  14.279  1.00  0.00     0.188 HD
HETATM    6  C6  UNL     1      -3.416   5.016  13.632  1.00  0.00     0.144 A
HETATM    7  S1  UNL     1      -4.822   3.714  14.328  1.00  0.00    -0.029 SA
ENDROOT
BRANCH   6   8
HETATM    8  C7  UNL     1      -4.289   5.773  12.648  1.00  0.00     0.184 A
HETATM    9  N4  UNL     1      -3.829   5.770  11.338  1.00  0.00    -0.335 N
HETATM   10  C8  UNL     1      -4.713   6.534  10.624  1.00  0.00     0.048 A
ATOM     11  H4  UNL     1      -3.001   5.295  10.979  1.00  0.00     0.168 HD
HETATM   12  C14 UNL     1      -5.681   6.942  11.537  1.00  0.00     0.106 A
HETATM   13  O3  UNL     1      -5.320   6.436  12.685  1.00  0.00    -0.291 OA
BRANCH  10  14
HETATM   14  C9  UNL     1      -4.426   7.067   9.321  1.00  0.00     0.042 C
HETATM   15  C10 UNL     1      -5.326   6.727   8.186  1.00  0.00     0.037 C
HETATM   16  C11 UNL     1      -4.660   6.914   6.828  1.00  0.00     0.168 C
HETATM   17  O2  UNL     1      -3.652   5.995   6.636  1.00  0.00    -0.391 OA
HETATM   18  C12 UNL     1      -3.330   5.349   7.835  1.00  0.00     0.168 C
HETATM   19  C13 UNL     1      -3.052   6.380   8.866  1.00  0.00     0.037 C
ENDBRANCH  10  14
BRANCH  12  20
HETATM   20  C15 UNL     1      -6.848   7.754  11.230  1.00  0.00     0.289 C
HETATM   21  F1  UNL     1      -7.831   7.790  12.179  1.00  0.00    -0.248 F
ENDBRANCH  12  20
ENDBRANCH   6   8
BRANCH   1  22
HETATM   22  N1  UNL     1      -4.058   1.942  16.253  1.00  0.00    -0.366 N
ATOM     23  H1  UNL     1      -3.469   1.745  17.062  1.00  0.00     0.161 HD
BRANCH  22  24
HETATM   24  C4  UNL     1      -5.229   1.197  15.982  1.00  0.00     0.158 C
BRANCH  24  25
HETATM   25  C2  UNL     1      -6.137   0.818  17.069  1.00  0.00     0.066 C
HETATM   26  C1  UNL     1      -7.617   1.097  16.844  1.00  0.00     0.047 C
HETATM   27  C3  UNL     1      -5.789   1.652  18.328  1.00  0.00     0.047 C
BRANCH  25  28
HETATM   28  O1  UNL     1      -5.966  -0.473  17.516  1.00  0.00    -0.389 OA
ATOM     29  H1  UNL     1      -5.051  -0.719  17.452  1.00  0.00     0.210 HD
ENDBRANCH  25  28
ENDBRANCH  24  25
ENDBRANCH  22  24
ENDBRANCH   1  22
TORSDOF 7
ENDMDL