MODEL 1
REMARK VINA RESULT: -7.115427271      0.000      0.000
REMARK  8 active torsions:
REMARK  status: ('A' for Active; 'I' for Inactive)
REMARK    1  A    between atoms: N1_1  and  N2_4
REMARK    2  A    between atoms: N3_6  and  C1_8
REMARK    3  A    between atoms: C1_8  and  C2_9
REMARK    4  A    between atoms: C6_14  and  O2_15
REMARK    5  A    between atoms: O2_15  and  C7_16
REMARK    6  A    between atoms: C7_16  and  C8_17
REMARK    7  A    between atoms: C8_17  and  O3_18
REMARK    8  A    between atoms: N4_20  and  O4_22
ROOT
HETATM    1  C2  UNL     1       0.078   4.070  10.021  1.00  0.00     0.172 C
HETATM    2  C3  UNL     1      -0.668   5.191  10.668  1.00  0.00     0.210 C
HETATM    3  O1  UNL     1      -1.354   4.757  11.854  1.00  0.00    -0.346 OA
HETATM    4  C4  UNL     1      -1.980   3.525  11.919  1.00  0.00     0.104 A
HETATM    5  C5  UNL     1      -3.018   3.226  12.784  1.00  0.00     0.077 A
HETATM    6  C6  UNL     1      -3.647   1.999  12.855  1.00  0.00     0.089 A
HETATM    7  C9  UNL     1      -3.199   0.985  11.984  1.00  0.00     0.047 A
HETATM    8 BR1  UNL     1      -4.009  -0.751  12.007  1.00  0.00    -0.048 Br
HETATM    9  C10 UNL     1      -2.175   1.284  11.132  1.00  0.00     0.061 A
HETATM   10  C11 UNL     1      -1.548   2.533  11.074  1.00  0.00     0.104 A
HETATM   11  O5  UNL     1      -0.521   2.801  10.205  1.00  0.00    -0.339 OA
ENDROOT
BRANCH   6  12
HETATM   12  O2  UNL     1      -4.661   1.651  13.678  1.00  0.00    -0.342 OA
BRANCH  12  13
HETATM   13  C7  UNL     1      -4.861   2.070  14.976  1.00  0.00     0.261 C
BRANCH  13  14
HETATM   14  C8  UNL     1      -4.888   1.018  16.005  1.00  0.00     0.160 C
HETATM   15  N4  UNL     1      -5.951   0.604  16.554  1.00  0.00    -0.249 N
ATOM     16  H4  UNL     1      -6.845   1.011  16.281  1.00  0.00     0.196 HD
BRANCH  14  17
HETATM   17  O3  UNL     1      -3.660   0.472  16.374  1.00  0.00    -0.346 OA
ATOM     18  H3  UNL     1      -3.677  -0.398  16.755  1.00  0.00     0.219 HD
ENDBRANCH  14  17
BRANCH  15  19
HETATM   19  O4  UNL     1      -5.927  -0.367  17.496  1.00  0.00    -0.288 OA
ATOM     20  H4  UNL     1      -6.716  -0.832  17.750  1.00  0.00     0.244 HD
ENDBRANCH  15  19
ENDBRANCH  13  14
ENDBRANCH  12  13
ENDBRANCH   6  12
BRANCH   1  21
HETATM   21  C1  UNL     1       1.525   4.004  10.448  1.00  0.00     0.175 C
BRANCH  21  22
HETATM   22  N3  UNL     1       1.624   4.392  11.853  1.00  0.00    -0.320 N
HETATM   23  N2  UNL     1       2.706   4.894  12.188  1.00  0.00    -0.254 N
ATOM     24  H2  UNL     1       2.989   5.366  11.329  1.00  0.00     0.207 HD
ATOM     25  H3  UNL     1       0.857   4.259  12.512  1.00  0.00     0.181 HD
BRANCH  23  26
HETATM   26  N1  UNL     1       3.650   5.165  12.945  1.00  0.00    -0.331 N
ATOM     27  H12 UNL     1       3.772   4.250  13.377  1.00  0.00     0.178 HD
ATOM     28  H11 UNL     1       4.361   5.750  13.383  1.00  0.00     0.178 HD
ENDBRANCH  23  26
ENDBRANCH  21  22
ENDBRANCH   1  21
TORSDOF 8
ENDMDL