MODEL 5
REMARK VINA RESULT: -7.032763393      1.583      2.653
REMARK  6 active torsions:
REMARK  status: ('A' for Active; 'I' for Inactive)
REMARK    1  A    between atoms: C3_3  and  O1_4
REMARK    2  A    between atoms: O1_4  and  C4_5
REMARK    3  A    between atoms: C4_5  and  C5_6
REMARK    4  A    between atoms: C7_8  and  O2_9
REMARK    5  A    between atoms: N1_11  and  C8_12
REMARK    6  A    between atoms: C11_16  and  N2_17
ROOT
HETATM    1  C1  UNL     1      -6.306   2.224  18.610  1.00  0.00     0.014 C
HETATM    2  C2  UNL     1      -5.980   1.340  17.865  1.00  0.00    -0.091 C
HETATM    3  C3  UNL     1      -5.556   0.251  16.950  1.00  0.00     0.260 C
ENDROOT
BRANCH   3   4
HETATM    4  O1  UNL     1      -4.283   0.547  16.541  1.00  0.00    -0.375 OA
BRANCH   4   5
HETATM    5  C4  UNL     1      -4.130   0.698  15.193  1.00  0.00     0.210 C
BRANCH   5   6
HETATM    6  C5  UNL     1      -4.068   2.123  14.783  1.00  0.00     0.008 A
HETATM    7  C6  UNL     1      -3.682   3.247  15.472  1.00  0.00     0.069 A
HETATM    8  C7  UNL     1      -3.755   4.346  14.621  1.00  0.00     0.150 A
HETATM    9  N1  UNL     1      -4.174   3.925  13.421  1.00  0.00    -0.262 N
HETATM   10  C16 UNL     1      -4.367   2.602  13.495  1.00  0.00     0.133 A
HETATM   11  C17 UNL     1      -4.815   1.746  12.437  1.00  0.00     0.119 C
HETATM   12  N4  UNL     1      -5.181   1.069  11.569  1.00  0.00    -0.190 NA
BRANCH   8  13
HETATM   13  O2  UNL     1      -3.442   5.661  14.961  1.00  0.00    -0.346 OA
ATOM     14  H2  UNL     1      -3.248   6.361  14.348  1.00  0.00     0.219 HD
ENDBRANCH   8  13
BRANCH   9  15
HETATM   15  C8  UNL     1      -4.388   4.732  12.242  1.00  0.00     0.161 A
HETATM   16  C9  UNL     1      -3.548   4.719  11.163  1.00  0.00     0.085 A
HETATM   17  C10 UNL     1      -4.102   5.614  10.270  1.00  0.00     0.089 A
HETATM   18 CL1  UNL     1      -3.416   5.986   8.712  1.00  0.00    -0.080 Cl
HETATM   19  C11 UNL     1      -5.245   6.137  10.821  1.00  0.00     0.170 A
HETATM   20  O3  UNL     1      -5.368   5.559  12.028  1.00  0.00    -0.275 OA
BRANCH  19  21
HETATM   21  N2  UNL     1      -6.180   7.081  10.338  1.00  0.00    -0.357 N
HETATM   22  C12 UNL     1      -6.413   8.324  11.116  1.00  0.00     0.152 C
HETATM   23  C13 UNL     1      -6.277   9.509  10.202  1.00  0.00     0.252 C
HETATM   24  N3  UNL     1      -6.937   9.358   8.932  1.00  0.00    -0.072 N
HETATM   25  C14 UNL     1      -6.492   8.151   8.252  1.00  0.00     0.252 C
ATOM     26  H32 UNL     1      -7.953   9.381   9.031  1.00  0.00     0.277 HD
ATOM     27  H31 UNL     1      -6.820  10.186   8.346  1.00  0.00     0.277 HD
HETATM   28  C15 UNL     1      -6.962   6.989   9.147  1.00  0.00     0.152 C
ENDBRANCH  19  21
ENDBRANCH   9  15
ENDBRANCH   5   6
ENDBRANCH   4   5
ENDBRANCH   3   4
TORSDOF 6
ENDMDL