MODEL 1
REMARK VINA RESULT: -7.606200718      0.000      0.000
REMARK  6 active torsions:
REMARK  status: ('A' for Active; 'I' for Inactive)
REMARK    1  A    between atoms: C2_2  and  C3_4
REMARK    2  A    between atoms: C3_4  and  C4_5
REMARK    3  A    between atoms: C3_4  and  C14_21
REMARK    4  A    between atoms: N2_11  and  C8_12
REMARK    5  A    between atoms: C10_14  and  O2_15
REMARK    6  A    between atoms: C14_21  and  C16_24
ROOT
HETATM    1  C14 UNL     1      -4.705   1.594  14.217  1.00  0.00     0.210 C
HETATM    2  C15 UNL     1      -3.676   1.458  13.168  1.00  0.00     0.076 C
HETATM    3  N3  UNL     1      -2.875   1.335  12.338  1.00  0.00    -0.196 NA
ENDROOT
BRANCH   1   4
HETATM    4  C3  UNL     1      -4.570   2.973  14.781  1.00  0.00     0.130 C
BRANCH   4   5
HETATM    5  C2  UNL     1      -5.901   3.463  15.192  1.00  0.00     0.134 C
HETATM    6  C1  UNL     1      -6.535   3.190  16.506  1.00  0.00     0.091 C
HETATM    7  O1  UNL     1      -6.588   4.158  14.426  1.00  0.00    -0.298 OA
ENDBRANCH   4   5
BRANCH   4   8
HETATM    8  C4  UNL     1      -3.965   3.927  13.808  1.00  0.00     0.015 C
HETATM    9  N1  UNL     1      -4.419   4.265  12.660  1.00  0.00    -0.369 N
HETATM   10  C5  UNL     1      -3.547   5.220  12.005  1.00  0.00     0.099 C
ATOM     11  H1  UNL     1      -5.285   3.908  12.258  1.00  0.00     0.161 HD
HETATM   12  C6  UNL     1      -3.439   4.789  10.562  1.00  0.00     0.062 C
HETATM   13  C7  UNL     1      -4.060   6.615  12.164  1.00  0.00     0.062 C
HETATM   14  N2  UNL     1      -2.318   5.080  12.725  1.00  0.00    -0.344 N
HETATM   15  C13 UNL     1      -2.702   4.658  14.049  1.00  0.00     0.179 C
BRANCH  14  16
HETATM   16  C8  UNL     1      -0.974   5.298  12.276  1.00  0.00     0.077 A
HETATM   17  C9  UNL     1      -0.074   4.376  11.801  1.00  0.00     0.074 A
HETATM   18  C10 UNL     1       1.136   4.832  11.439  1.00  0.00     0.081 A
HETATM   19  C11 UNL     1       1.372   6.174  11.573  1.00  0.00     0.014 A
HETATM   20  C12 UNL     1       2.620   6.936  11.247  1.00  0.00     0.059 C
HETATM   21  S1  UNL     1      -0.098   6.757  12.198  1.00  0.00    -0.075 SA
BRANCH  18  22
HETATM   22  O2  UNL     1       2.169   3.994  10.930  1.00  0.00    -0.360 OA
ATOM     23  H2  UNL     1       2.990   3.844  11.383  1.00  0.00     0.217 HD
ENDBRANCH  18  22
ENDBRANCH  14  16
ENDBRANCH   4   8
ENDBRANCH   1   4
BRANCH   1  24
HETATM   24  C16 UNL     1      -4.329   0.630  15.312  1.00  0.00     0.192 C
HETATM   25  O3  UNL     1      -4.837  -0.493  15.444  1.00  0.00    -0.647 OA
HETATM   26  O4  UNL     1      -3.342   1.078  16.205  1.00  0.00    -0.647 OA
ENDBRANCH   1  24
TORSDOF 6
ENDMDL