MODEL 1
REMARK VINA RESULT: -6.653447106      0.000      0.000
REMARK  6 active torsions:
REMARK  status: ('A' for Active; 'I' for Inactive)
REMARK    1  A    between atoms: C2_2  and  C3_3
REMARK    2  A    between atoms: C2_2  and  C12_22
REMARK    3  A    between atoms: C3_3  and  C4_4
REMARK    4  A    between atoms: C4_4  and  O1_5
REMARK    5  A    between atoms: C4_4  and  C5_7
REMARK    6  A    between atoms: C7_11  and  N2_12
ROOT
HETATM    1  N2  UNL     1       0.114   3.663  10.514  1.00  0.00    -0.301 N
HETATM    2  C8  UNL     1       1.078   4.101  11.499  1.00  0.00     0.162 C
HETATM    3  C9  UNL     1       2.361   4.491  10.810  1.00  0.00     0.221 C
HETATM    4  O2  UNL     1       2.495   3.681   9.657  1.00  0.00    -0.277 OA
HETATM    5  N3  UNL     1       1.546   3.919   8.662  1.00  0.00    -0.241 N
ATOM      6  H3  UNL     1       1.786   4.083   7.685  1.00  0.00     0.196 HD
HETATM    7  C10 UNL     1       0.324   3.908   9.107  1.00  0.00     0.212 C
HETATM    8  C11 UNL     1      -0.819   4.129   8.274  1.00  0.00     0.139 C
HETATM    9  N4  UNL     1      -1.739   4.326   7.590  1.00  0.00    -0.188 NA
ENDROOT
BRANCH   1  10
HETATM   10  C7  UNL     1      -1.062   2.979  10.933  1.00  0.00     0.153 A
HETATM   11  N1  UNL     1      -1.203   1.666  10.960  1.00  0.00    -0.345 N
HETATM   12  C6  UNL     1      -2.316   1.142  11.358  1.00  0.00     0.107 A
ATOM     13  H1  UNL     1      -0.433   1.065  10.666  1.00  0.00     0.167 HD
HETATM   14  C5  UNL     1      -3.329   1.975  11.745  1.00  0.00     0.030 A
HETATM   15  S1  UNL     1      -2.577   3.517  11.498  1.00  0.00    -0.054 SA
BRANCH  14  16
HETATM   16  C4  UNL     1      -4.706   1.698  12.256  1.00  0.00     0.160 C
BRANCH  16  17
HETATM   17  C3  UNL     1      -5.059   2.405  13.504  1.00  0.00     0.048 C
BRANCH  17  18
HETATM   18  C2  UNL     1      -4.067   2.112  14.604  1.00  0.00     0.041 C
HETATM   19  C1  UNL     1      -3.636   3.404  15.235  1.00  0.00     0.017 C
BRANCH  18  20
HETATM   20  C12 UNL     1      -4.744   1.179  15.541  1.00  0.00     0.054 C
HETATM   21  N5  UNL     1      -4.382  -0.015  15.650  1.00  0.00    -0.396 N
ATOM     22  H52 UNL     1      -3.615  -0.357  15.071  1.00  0.00     0.156 HD
ATOM     23  H51 UNL     1      -4.847  -0.655  16.293  1.00  0.00     0.156 HD
HETATM   24 BR1  UNL     1      -6.180   1.818  16.623  1.00  0.00    -0.036 Br
ENDBRANCH  18  20
ENDBRANCH  17  18
ENDBRANCH  16  17
BRANCH  16  25
HETATM   25  O1  UNL     1      -5.591   1.834  11.212  1.00  0.00    -0.390 OA
ATOM     26  H1  UNL     1      -5.993   1.033  10.897  1.00  0.00     0.210 HD
ENDBRANCH  16  25
ENDBRANCH  14  16
ENDBRANCH   1  10
TORSDOF 6
ENDMDL