MODEL 4
REMARK VINA RESULT: -7.541757726      1.178      1.410
REMARK  7 active torsions:
REMARK  status: ('A' for Active; 'I' for Inactive)
REMARK    1  A    between atoms: C2_3  and  C3_4
REMARK    2  A    between atoms: C4_6  and  O1_7
REMARK    3  A    between atoms: C4_6  and  C5_9
REMARK    4  A    between atoms: C5_9  and  O3_11
REMARK    5  A    between atoms: O3_11  and  C6_12
REMARK    6  A    between atoms: C6_12  and  C7_13
REMARK    7  A    between atoms: N2_22  and  O5_23
ROOT
HETATM    1  C3  UNL     1      -3.891   3.721  13.764  1.00  0.00     0.100 C
HETATM    2 CL1  UNL     1      -2.630   4.748  14.461  1.00  0.00    -0.079 Cl
HETATM    3  C4  UNL     1      -4.114   3.833  12.490  1.00  0.00     0.166 C
ENDROOT
BRANCH   1   4
HETATM    4  C2  UNL     1      -4.573   2.837  14.681  1.00  0.00     0.068 A
HETATM    5  N1  UNL     1      -5.584   3.192  15.442  1.00  0.00    -0.300 N
HETATM    6  C1  UNL     1      -6.043   4.554  15.501  1.00  0.00     0.161 C
HETATM    7  C15 UNL     1      -6.225   2.284  16.259  1.00  0.00     0.356 A
HETATM    8  N2  UNL     1      -5.811   1.007  16.285  1.00  0.00    -0.134 N
HETATM    9  O6  UNL     1      -7.192   2.661  16.972  1.00  0.00    -0.244 OA
HETATM   10  C14 UNL     1      -4.788   0.619  15.527  1.00  0.00     0.277 A
HETATM   11  C13 UNL     1      -4.147   1.524  14.709  1.00  0.00     0.108 A
HETATM   12  O4  UNL     1      -4.410  -0.570  15.557  1.00  0.00    -0.266 OA
BRANCH   8  13
HETATM   13  O5  UNL     1      -6.433   0.077  17.093  1.00  0.00    -0.276 OA
ATOM     14  H5  UNL     1      -6.989   0.382  17.800  1.00  0.00     0.245 HD
ENDBRANCH   8  13
ENDBRANCH   1   4
BRANCH   3  15
HETATM   15  O1  UNL     1      -5.081   3.062  11.871  1.00  0.00    -0.354 OA
ATOM     16  H1  UNL     1      -5.891   2.848  12.318  1.00  0.00     0.218 HD
ENDBRANCH   3  15
BRANCH   3  17
HETATM   17  C5  UNL     1      -3.377   4.756  11.660  1.00  0.00     0.318 C
HETATM   18  O2  UNL     1      -2.259   4.523  11.159  1.00  0.00    -0.257 OA
BRANCH  17  19
HETATM   19  O3  UNL     1      -3.846   6.026  11.327  1.00  0.00    -0.316 OA
BRANCH  19  20
HETATM   20  C6  UNL     1      -4.875   6.699  11.934  1.00  0.00     0.183 C
BRANCH  20  21
HETATM   21  C7  UNL     1      -6.223   6.636  11.318  1.00  0.00     0.010 C
HETATM   22  C8  UNL     1      -6.052   6.615   9.808  1.00  0.00     0.007 C
HETATM   23  C9  UNL     1      -7.073   7.509   9.120  1.00  0.00     0.000 C
HETATM   24  C10 UNL     1      -6.586   8.941   9.368  1.00  0.00     0.000 C
HETATM   25  C11 UNL     1      -6.410   9.092  10.846  1.00  0.00     0.000 C
HETATM   26  C12 UNL     1      -6.959   7.926  11.636  1.00  0.00     0.007 C
ENDBRANCH  20  21
ENDBRANCH  19  20
ENDBRANCH  17  19
ENDBRANCH   3  17
TORSDOF 7
ENDMDL