MODEL 4
REMARK VINA RESULT: -5.826708055      1.950      2.199
REMARK  7 active torsions:
REMARK  status: ('A' for Active; 'I' for Inactive)
REMARK    1  A    between atoms: C2_2  and  O1_3
REMARK    2  A    between atoms: O1_3  and  C3_4
REMARK    3  A    between atoms: C4_5  and  O2_6
REMARK    4  A    between atoms: C5_8  and  O3_9
REMARK    5  A    between atoms: C7_11  and  O4_12
REMARK    6  A    between atoms: C12_23  and  C13_24
REMARK    7  A    between atoms: C12_23  and  C14_26
ROOT
HETATM    1  C3  UNL     1      -3.310   3.034  11.767  1.00  0.00     0.205 C
HETATM    2  C4  UNL     1      -4.227   1.898  12.037  1.00  0.00     0.183 C
HETATM    3  C5  UNL     1      -4.057   1.310  13.428  1.00  0.00     0.183 C
HETATM    4  C7  UNL     1      -4.861   2.119  14.382  1.00  0.00     0.174 C
HETATM    5  C9  UNL     1      -4.280   3.506  14.642  1.00  0.00     0.106 C
HETATM    6  C10 UNL     1      -2.930   3.495  15.240  1.00  0.00     0.034 C
HETATM    7  N1  UNL     1      -4.512   4.306  13.510  1.00  0.00    -0.385 N
ATOM      8  H1  UNL     1      -5.344   4.896  13.493  1.00  0.00     0.156 HD
HETATM    9  C11 UNL     1      -3.658   4.330  12.409  1.00  0.00     0.171 A
HETATM   10  N2  UNL     1      -2.471   5.122  12.475  1.00  0.00    -0.306 N
ATOM     11  H2  UNL     1      -1.618   4.956  13.009  1.00  0.00     0.183 HD
HETATM   12  N3  UNL     1      -2.740   6.044  11.730  1.00  0.00    -0.322 N
ATOM     13  H3  UNL     1      -2.254   6.885  11.416  1.00  0.00     0.181 HD
HETATM   14  C12 UNL     1      -4.001   5.469  11.483  1.00  0.00     0.109 A
ENDROOT
BRANCH   1  15
HETATM   15  O1  UNL     1      -2.042   2.662  12.215  1.00  0.00    -0.379 OA
BRANCH  15  16
HETATM   16  C2  UNL     1      -1.326   1.968  11.228  1.00  0.00     0.164 C
HETATM   17  C1  UNL     1      -0.683   2.875  10.240  1.00  0.00     0.033 C
ENDBRANCH  15  16
ENDBRANCH   1  15
BRANCH  14  18
HETATM   18  C13 UNL     1      -5.159   6.329  11.996  1.00  0.00     0.152 C
HETATM   19 CL1  UNL     1      -5.025   8.004  11.490  1.00  0.00    -0.128 Cl
ENDBRANCH  14  18
BRANCH  14  20
HETATM   20  C14 UNL     1      -4.291   5.085  10.060  1.00  0.00     0.021 A
HETATM   21  C15 UNL     1      -4.434   6.205   9.043  1.00  0.00     0.008 A
HETATM   22  C16 UNL     1      -3.180   5.375   9.085  1.00  0.00     0.008 A
ENDBRANCH  14  20
BRANCH   2  23
HETATM   23  O2  UNL     1      -5.556   2.114  11.801  1.00  0.00    -0.390 OA
ATOM     24  H2  UNL     1      -6.162   1.484  12.171  1.00  0.00     0.210 HD
ENDBRANCH   2  23
BRANCH   3  25
HETATM   25  O3  UNL     1      -4.593   0.029  13.391  1.00  0.00    -0.385 OA
HETATM   26  C6  UNL     1      -4.056  -0.718  12.329  1.00  0.00     0.202 C
ENDBRANCH   3  25
BRANCH   4  27
HETATM   27  O4  UNL     1      -5.260   1.472  15.511  1.00  0.00    -0.386 OA
HETATM   28  C8  UNL     1      -6.175   2.118  16.299  1.00  0.00     0.202 C
ENDBRANCH   4  27
TORSDOF 7
ENDMDL