MODEL 5
REMARK VINA RESULT: -6.679444488      4.804      6.691
REMARK  8 active torsions:
REMARK  status: ('A' for Active; 'I' for Inactive)
REMARK    1  A    between atoms: C2_2  and  C3_3
REMARK    2  A    between atoms: C3_3  and  C4_4
REMARK    3  A    between atoms: C5_7  and  C6_8
REMARK    4  A    between atoms: C6_8  and  N2_9
REMARK    5  A    between atoms: C9_12  and  N3_13
REMARK       I    between atoms: N3_13  and  C10_15
REMARK    6  A    between atoms: C10_15  and  O2_17
REMARK    7  A    between atoms: O2_17  and  C11_18
REMARK    8  A    between atoms: C15_22  and  N4_23
ROOT
HETATM    1  N2  UNL     1      -0.979   4.611  11.599  1.00  0.00    -0.404 N
HETATM    2  C7  UNL     1      -2.308   5.078  11.518  1.00  0.00     0.119 C
HETATM    3  C8  UNL     1      -3.401   4.124  11.312  1.00  0.00     0.047 C
HETATM    4  C9  UNL     1      -3.116   2.678  11.448  1.00  0.00     0.120 C
HETATM    5  C15 UNL     1      -1.718   2.393  10.946  1.00  0.00     0.223 C
HETATM    6  C16 UNL     1      -0.782   3.217  11.797  1.00  0.00     0.152 C
ENDROOT
BRANCH   1   7
HETATM    7  C6  UNL     1      -0.079   5.196  10.633  1.00  0.00     0.195 C
BRANCH   7   8
HETATM    8  C5  UNL     1       1.339   5.042  11.065  1.00  0.00     0.121 A
HETATM    9  N1  UNL     1       1.903   5.550  12.165  1.00  0.00    -0.326 N
HETATM   10  C4  UNL     1       3.209   5.203  12.226  1.00  0.00     0.148 A
ATOM     11  H1  UNL     1       1.418   6.119  12.859  1.00  0.00     0.169 HD
HETATM   12  O3  UNL     1       3.438   4.480  11.158  1.00  0.00    -0.223 OA
HETATM   13  N5  UNL     1       2.343   4.363  10.440  1.00  0.00    -0.245 N
ATOM     14  H5  UNL     1       2.257   3.851   9.563  1.00  0.00     0.196 HD
BRANCH  10  15
HETATM   15  C3  UNL     1       4.186   5.571  13.295  1.00  0.00     0.086 C
BRANCH  15  16
HETATM   16  C2  UNL     1       4.935   6.835  12.942  1.00  0.00     0.004 C
HETATM   17  C1  UNL     1       4.737   7.816  14.076  1.00  0.00     0.005 C
ENDBRANCH  15  16
ENDBRANCH  10  15
ENDBRANCH   7   8
ENDBRANCH   1   7
BRANCH   5  18
HETATM   18  N4  UNL     1      -1.419   0.998  11.000  1.00  0.00    -0.071 N
ATOM     19  H43 UNL     1      -0.510   0.795  10.584  1.00  0.00     0.274 HD
ATOM     20  H42 UNL     1      -1.228   0.694  11.955  1.00  0.00     0.274 HD
ATOM     21  H41 UNL     1      -2.159   0.442  10.571  1.00  0.00     0.274 HD
ENDBRANCH   5  18
BRANCH   4  22
HETATM   22  N3  UNL     1      -3.303   2.176  12.798  1.00  0.00    -0.330 N
HETATM   23  C10 UNL     1      -4.373   1.306  13.114  1.00  0.00     0.361 C
HETATM   24  O1  UNL     1      -5.205   0.927  12.250  1.00  0.00    -0.238 OA
ATOM     25  H3  UNL     1      -2.651   2.456  13.531  1.00  0.00     0.165 HD
BRANCH  23  26
HETATM   26  O2  UNL     1      -4.529   0.848  14.386  1.00  0.00    -0.294 OA
BRANCH  26  27
HETATM   27  C11 UNL     1      -4.879   1.590  15.506  1.00  0.00     0.061 C
HETATM   28  C12 UNL     1      -5.592   0.643  16.473  1.00  0.00     0.046 C
HETATM   29  C13 UNL     1      -5.765   2.755  15.270  1.00  0.00     0.046 C
HETATM   30  C14 UNL     1      -3.613   2.067  16.188  1.00  0.00     0.046 C
ENDBRANCH  26  27
ENDBRANCH  23  26
ENDBRANCH   4  22
TORSDOF 8
ENDMDL