MODEL 1
REMARK VINA RESULT: -6.198603988      0.000      0.000
REMARK  7 active torsions:
REMARK  status: ('A' for Active; 'I' for Inactive)
REMARK    1  A    between atoms: N1_2  and  C2_4
REMARK    2  A    between atoms: N3_8  and  C4_9
REMARK    3  A    between atoms: C4_9  and  N4_10
REMARK    4  A    between atoms: N5_13  and  C7_14
REMARK    5  A    between atoms: C7_14  and  C8_15
REMARK    6  A    between atoms: N6_17  and  O1_19
REMARK    7  A    between atoms: C12_23  and  C13_24
ROOT
HETATM    1  C4  UNL     1      -3.895   3.475  11.486  1.00  0.00     0.420 C
ENDROOT
BRANCH   1   2
HETATM    2  N3  UNL     1      -2.546   3.203  11.025  1.00  0.00    -0.263 N
HETATM    3  N2  UNL     1      -1.826   2.154  11.465  1.00  0.00    -0.306 N
HETATM    4  C3  UNL     1      -0.637   2.178  10.901  1.00  0.00     0.138 A
ATOM      5  H2  UNL     1      -2.151   1.451  12.129  1.00  0.00     0.186 HD
HETATM    6  C2  UNL     1      -0.579   3.274  10.072  1.00  0.00     0.072 A
HETATM    7  C12 UNL     1      -1.815   3.906  10.174  1.00  0.00     0.096 A
BRANCH   6   8
HETATM    8  N1  UNL     1       0.565   3.643   9.298  1.00  0.00    -0.391 N
HETATM    9  C1  UNL     1       1.808   3.997   9.950  1.00  0.00     0.146 C
ATOM     10  H1  UNL     1       0.505   3.658   8.280  1.00  0.00     0.159 HD
ENDBRANCH   6   8
BRANCH   7  11
HETATM   11  C13 UNL     1      -2.097   5.117   9.378  1.00  0.00     0.155 C
HETATM   12  C14 UNL     1      -1.253   6.292   9.824  1.00  0.00     0.057 C
HETATM   13 CL1  UNL     1      -3.754   5.642   9.302  1.00  0.00    -0.095 Cl
HETATM   14 CL2  UNL     1      -1.572   4.750   7.691  1.00  0.00    -0.095 Cl
ENDBRANCH   7  11
ENDBRANCH   1   2
BRANCH   1  15
HETATM   15  N4  UNL     1      -3.927   3.329  12.917  1.00  0.00     0.111 N
HETATM   16  C5  UNL     1      -4.849   2.314  13.366  1.00  0.00     0.305 C
HETATM   17  C6  UNL     1      -5.717   2.891  14.448  1.00  0.00     0.303 C
HETATM   18  N5  UNL     1      -4.956   3.302  15.629  1.00  0.00     0.097 N
HETATM   19  C10 UNL     1      -3.926   4.191  15.141  1.00  0.00     0.303 C
HETATM   20  C11 UNL     1      -4.088   4.536  13.657  1.00  0.00     0.305 C
BRANCH  18  21
HETATM   21  C7  UNL     1      -4.457   2.106  16.246  1.00  0.00     0.326 C
BRANCH  21  22
HETATM   22  C8  UNL     1      -5.406   1.332  17.031  1.00  0.00     0.034 C
HETATM   23  C9  UNL     1      -6.174   1.931  18.136  1.00  0.00     0.067 C
HETATM   24  N6  UNL     1      -5.601   0.087  16.776  1.00  0.00    -0.276 N
ATOM     25  H6  UNL     1      -6.267  -0.454  17.328  1.00  0.00     0.193 HD
BRANCH  24  26
HETATM   26  O1  UNL     1      -4.904  -0.505  15.753  1.00  0.00    -0.290 OA
ATOM     27  H1  UNL     1      -4.795  -0.037  14.934  1.00  0.00     0.244 HD
ENDBRANCH  24  26
ENDBRANCH  21  22
ENDBRANCH  18  21
ENDBRANCH   1  15
TORSDOF 7
ENDMDL