MODEL 3
REMARK VINA RESULT: -7.072726633      3.210      5.077
REMARK  5 active torsions:
REMARK  status: ('A' for Active; 'I' for Inactive)
REMARK    1  A    between atoms: N1_4  and  C4_5
REMARK    2  A    between atoms: C4_5  and  C5_6
REMARK    3  A    between atoms: C5_6  and  O1_7
REMARK    4  A    between atoms: O1_7  and  N2_8
REMARK    5  A    between atoms: C12_22  and  C14_24
ROOT
HETATM    1  C5  UNL     1      -3.914   4.246  10.929  1.00  0.00     0.221 C
ENDROOT
BRANCH   1   2
HETATM    2  C4  UNL     1      -3.945   5.488  10.101  1.00  0.00     0.148 C
BRANCH   2   3
HETATM    3  N1  UNL     1      -5.081   6.326  10.228  1.00  0.00    -0.381 N
HETATM    4  C3  UNL     1      -6.108   6.195   9.264  1.00  0.00     0.124 C
HETATM    5  C2  UNL     1      -5.969   7.339   8.274  1.00  0.00     0.000 C
HETATM    6  C1  UNL     1      -6.910   7.181   7.094  1.00  0.00     0.011 C
HETATM    7  C17 UNL     1      -6.363   8.597   9.026  1.00  0.00     0.020 C
HETATM    8  C12 UNL     1      -5.795   8.677  10.398  1.00  0.00     0.008 C
HETATM    9  C11 UNL     1      -4.705   7.664  10.547  1.00  0.00     0.275 C
HETATM   10  C13 UNL     1      -6.845   8.367  11.474  1.00  0.00     0.020 C
HETATM   11  F1  UNL     1      -4.263   7.727  11.860  1.00  0.00    -0.226 F
BRANCH   8  12
HETATM   12  C14 UNL     1      -5.254  10.046  10.741  1.00  0.00    -0.010 C
HETATM   13  C15 UNL     1      -6.258  11.103  10.343  1.00  0.00     0.010 C
HETATM   14  C16 UNL     1      -3.946  10.365  10.101  1.00  0.00     0.010 C
ENDBRANCH   8  12
ENDBRANCH   2   3
ENDBRANCH   1   2
BRANCH   1  15
HETATM   15  O1  UNL     1      -4.796   4.372  11.996  1.00  0.00    -0.272 OA
BRANCH  15  16
HETATM   16  N2  UNL     1      -4.431   3.623  13.083  1.00  0.00    -0.200 N
HETATM   17  C6  UNL     1      -4.757   2.248  13.021  1.00  0.00     0.219 A
HETATM   18  N3  UNL     1      -5.443   1.746  11.858  1.00  0.00    -0.061 NA
HETATM   19  N4  UNL     1      -4.459   1.439  13.984  1.00  0.00    -0.303 N
HETATM   20  C7  UNL     1      -3.793   1.983  15.113  1.00  0.00     0.192 A
ATOM     21  H4  UNL     1      -4.694   0.448  13.935  1.00  0.00     0.171 HD
HETATM   22  N5  UNL     1      -3.423   1.161  16.232  1.00  0.00    -0.063 NA
HETATM   23  N6  UNL     1      -3.484   3.217  15.213  1.00  0.00    -0.336 N
HETATM   24  C8  UNL     1      -3.772   4.178  14.208  1.00  0.00     0.128 A
ATOM     25  H6  UNL     1      -3.005   3.529  16.058  1.00  0.00     0.164 HD
HETATM   26  C9  UNL     1      -2.546   5.003  13.834  1.00  0.00     0.065 C
HETATM   27  C10 UNL     1      -4.718   5.197  14.903  1.00  0.00     0.065 C
ENDBRANCH  15  16
ENDBRANCH   1  15
TORSDOF 5
ENDMDL