MODEL 5
REMARK VINA RESULT: -4.572111632      3.569      4.381
REMARK  2 active torsions:
REMARK  status: ('A' for Active; 'I' for Inactive)
REMARK    1  A    between atoms: C2_2  and  N2_9
REMARK    2  A    between atoms: N1_3  and  C3_5
ROOT
HETATM    1  C1  UNL     1     -28.197 -14.948  12.524  1.00  0.00     0.095 C
HETATM    2  C2  UNL     1     -28.811 -14.493  11.255  1.00  0.00     0.143 C
HETATM    3  N1  UNL     1     -29.108 -15.272  10.288  1.00  0.00    -0.367 N
ATOM      4  H1  UNL     1     -29.527 -14.831   9.469  1.00  0.00     0.161 HD
ENDROOT
BRANCH   3   5
HETATM    5  C3  UNL     1     -28.927 -16.676  10.216  1.00  0.00     0.020 C
HETATM    6  C4  UNL     1     -29.607 -17.444  11.321  1.00  0.00     0.037 C
HETATM    7  C5  UNL     1     -29.565 -17.152   8.905  1.00  0.00     0.037 C
HETATM    8  C6  UNL     1     -27.484 -17.075  10.180  1.00  0.00     0.037 C
ENDBRANCH   3   5
BRANCH   2   9
HETATM    9  N2  UNL     1     -29.088 -13.115  11.098  1.00  0.00    -0.103 N
HETATM   10  O1  UNL     1     -28.583 -12.504  10.148  1.00  0.00    -0.531 OA
HETATM   11  O2  UNL     1     -29.898 -12.448  11.970  1.00  0.00    -0.531 OA
ENDBRANCH   2   9
TORSDOF 2
ENDMDL