MODEL 3
REMARK VINA RESULT: -5.770217440      1.981      3.127
REMARK  1 active torsions:
REMARK  status: ('A' for Active; 'I' for Inactive)
REMARK    1  A    between atoms: N1_9  and  O2_11
ROOT
HETATM    1  C1  UNL     1     -31.701 -19.705  11.125  1.00  0.00     0.046 C
HETATM    2  C2  UNL     1     -30.700 -18.804  10.481  1.00  0.00     0.164 C
HETATM    3  O1  UNL     1     -29.702 -19.479   9.787  1.00  0.00    -0.380 OA
HETATM    4  C3  UNL     1     -29.243 -18.680   8.761  1.00  0.00     0.168 C
HETATM    5  C4  UNL     1     -28.275 -17.621   9.200  1.00  0.00     0.027 C
HETATM    6  C5  UNL     1     -28.914 -16.444   9.857  1.00  0.00     0.008 C
HETATM    7  C6  UNL     1     -29.300 -16.680  11.293  1.00  0.00     0.057 C
HETATM    8  C7  UNL     1     -30.043 -17.943  11.481  1.00  0.00     0.038 C
HETATM    9  N1  UNL     1     -30.119 -18.335  12.692  1.00  0.00    -0.275 N
ATOM     10  H1  UNL     1     -30.623 -19.202  12.878  1.00  0.00     0.193 HD
ENDROOT
BRANCH   9  11
HETATM   11  O2  UNL     1     -29.577 -17.676  13.758  1.00  0.00    -0.290 OA
ATOM     12  H2  UNL     1     -29.138 -18.098  14.488  1.00  0.00     0.244 HD
ENDBRANCH   9  11
TORSDOF 1
ENDMDL