MODEL 1
REMARK VINA RESULT: -5.143593099      0.000      0.000
REMARK  1 active torsions:
REMARK  status: ('A' for Active; 'I' for Inactive)
REMARK    1  A    between atoms: N1_5  and  O1_7
ROOT
HETATM    1  C1  UNL     1     -31.515 -19.276  10.670  1.00  0.00     0.021 C
HETATM    2  C2  UNL     1     -30.388 -18.298  10.566  1.00  0.00     0.048 C
HETATM    3  C3  UNL     1     -29.576 -18.511   9.280  1.00  0.00     0.069 C
HETATM    4  C4  UNL     1     -28.279 -17.799   9.370  1.00  0.00     0.011 C
HETATM    5  N1  UNL     1     -27.381 -18.084   8.497  1.00  0.00    -0.277 N
ATOM      6  H1  UNL     1     -27.609 -18.782   7.790  1.00  0.00     0.193 HD
HETATM    7  C5  UNL     1     -28.047 -16.806  10.430  1.00  0.00     0.064 C
HETATM    8  C6  UNL     1     -27.936 -17.403  11.797  1.00  0.00     0.080 C
HETATM    9  S1  UNL     1     -29.236 -18.669  11.950  1.00  0.00    -0.164 SA
ENDROOT
BRANCH   5  10
HETATM   10  O1  UNL     1     -26.138 -17.513   8.450  1.00  0.00    -0.290 OA
ATOM     11  H1  UNL     1     -25.725 -17.188   7.659  1.00  0.00     0.244 HD
ENDBRANCH   5  10
TORSDOF 1
ENDMDL