MODEL 1
REMARK VINA RESULT: -5.804558480      0.000      0.000
REMARK  1 active torsions:
REMARK  status: ('A' for Active; 'I' for Inactive)
REMARK    1  A    between atoms: C8_12  and  O1_13
ROOT
HETATM    1  C1  UNL     1     -29.318 -18.910   9.222  1.00  0.00     0.036 C
HETATM    2  C2  UNL     1     -29.733 -17.547   9.715  1.00  0.00     0.126 A
HETATM    3  N1  UNL     1     -29.367 -16.500   8.829  1.00  0.00    -0.333 N
ATOM      4  H1  UNL     1     -29.660 -16.471   7.852  1.00  0.00     0.180 HD
HETATM    5  N2  UNL     1     -28.671 -15.641   9.339  1.00  0.00    -0.328 N
ATOM      6  H2  UNL     1     -28.318 -14.818   8.851  1.00  0.00     0.180 HD
HETATM    7  C3  UNL     1     -28.421 -15.933  10.687  1.00  0.00     0.073 A
HETATM    8  C4  UNL     1     -28.870 -14.850  11.640  1.00  0.00     0.035 C
HETATM    9  C5  UNL     1     -27.849 -13.781  11.414  1.00  0.00     0.003 C
HETATM   10  C6  UNL     1     -26.606 -14.477  10.880  1.00  0.00     0.003 C
HETATM   11  C7  UNL     1     -26.933 -15.974  10.975  1.00  0.00     0.035 C
HETATM   12  C8  UNL     1     -29.114 -17.201  11.029  1.00  0.00     0.171 A
ENDROOT
BRANCH  12  13
HETATM   13  O1  UNL     1     -30.098 -16.991  12.015  1.00  0.00    -0.391 OA
ATOM     14  H1  UNL     1     -30.634 -16.233  11.809  1.00  0.00     0.210 HD
ENDBRANCH  12  13
TORSDOF 1
ENDMDL