MODEL 1
REMARK VINA RESULT: -4.852951340      0.000      0.000
REMARK  1 active torsions:
REMARK  status: ('A' for Active; 'I' for Inactive)
REMARK    1  A    between atoms: C6_8  and  O3_10
ROOT
HETATM    1  C1  UNL     1     -27.392 -16.691  11.081  1.00  0.00     0.019 C
HETATM    2  C2  UNL     1     -28.404 -17.775  11.205  1.00  0.00     0.083 C
HETATM    3  C3  UNL     1     -29.415 -17.804  10.098  1.00  0.00     0.097 C
HETATM    4  C4  UNL     1     -29.399 -16.545   9.255  1.00  0.00     0.049 C
HETATM    5  C5  UNL     1     -29.219 -19.009   9.229  1.00  0.00     0.049 C
HETATM    6  O1  UNL     1     -30.636 -17.867  10.730  1.00  0.00    -0.227 OA
HETATM    7  O2  UNL     1     -30.456 -18.171  11.975  1.00  0.00    -0.200 OA
HETATM    8  C6  UNL     1     -29.340 -17.437  12.377  1.00  0.00     0.197 C
HETATM    9  C7  UNL     1     -28.781 -17.854  13.687  1.00  0.00     0.082 C
ENDROOT
BRANCH   8  10
HETATM   10  O3  UNL     1     -29.638 -16.100  12.265  1.00  0.00    -0.363 OA
ATOM     11  H3  UNL     1     -29.224 -15.669  13.004  1.00  0.00     0.213 HD
ENDBRANCH   8  10
TORSDOF 1
ENDMDL