MODEL 1
REMARK VINA RESULT: -4.383686311      0.000      0.000
REMARK  0 active torsions:
REMARK  status: ('A' for Active; 'I' for Inactive)
ROOT
HETATM    1  C1  UNL     1     -30.524 -18.325   9.269  1.00  0.00     0.088 C
HETATM    2  C2  UNL     1     -29.035 -18.456   9.043  1.00  0.00     0.045 C
HETATM    3  C3  UNL     1     -28.238 -17.335   9.594  1.00  0.00     0.202 A
HETATM    4  N1  UNL     1     -28.896 -16.062   9.401  1.00  0.00    -0.069 N
ATOM      5  H11 UNL     1     -29.742 -16.006   8.834  1.00  0.00     0.277 HD
ATOM      6  H12 UNL     1     -28.460 -15.345   8.821  1.00  0.00     0.277 HD
HETATM    7  C4  UNL     1     -28.973 -15.884  10.850  1.00  0.00     0.251 A
HETATM    8  C5  UNL     1     -28.211 -17.168  11.045  1.00  0.00     0.115 A
HETATM    9  S1  UNL     1     -29.047 -18.413  12.022  1.00  0.00    -0.089 SA
HETATM   10  S2  UNL     1     -30.816 -18.997  10.953  1.00  0.00    -0.097 SA
ENDROOT
TORSDOF 0
ENDMDL