MODEL 2
REMARK VINA RESULT: -4.640204277      1.771      3.507
REMARK  1 active torsions:
REMARK  status: ('A' for Active; 'I' for Inactive)
REMARK    1  A    between atoms: N1_9  and  O1_10
ROOT
HETATM    1  C1  UNL     1     -29.660 -13.763  12.120  1.00  0.00     0.034 C
HETATM    2  C2  UNL     1     -28.762 -14.951  11.764  1.00  0.00     0.032 C
HETATM    3  C3  UNL     1     -27.347 -14.513  12.068  1.00  0.00     0.034 C
HETATM    4  C4  UNL     1     -29.172 -16.179  12.523  1.00  0.00     0.029 C
HETATM    5  C5  UNL     1     -29.365 -17.249  11.480  1.00  0.00     0.029 C
HETATM    6  C6  UNL     1     -28.791 -16.672  10.199  1.00  0.00     0.032 C
HETATM    7  C7  UNL     1     -27.382 -17.147  10.045  1.00  0.00     0.034 C
HETATM    8  C8  UNL     1     -29.573 -17.159   8.985  1.00  0.00     0.034 C
HETATM    9  N1  UNL     1     -28.940 -15.272  10.380  1.00  0.00    -0.182 NA
ENDROOT
BRANCH   9  10
HETATM   10  O1  UNL     1     -28.230 -14.508   9.545  1.00  0.00    -0.312 OA
ATOM     11  H1  UNL     1     -28.003 -14.933   8.727  1.00  0.00     0.237 HD
ENDBRANCH   9  10
TORSDOF 1
ENDMDL