MODEL 2
REMARK VINA RESULT: -5.658710928      1.281      2.057
REMARK  1 active torsions:
REMARK  status: ('A' for Active; 'I' for Inactive)
REMARK    1  A    between atoms: N1_7  and  O1_9
ROOT
HETATM    1  C1  UNL     1     -29.244 -15.910  10.059  1.00  0.00     0.017 C
HETATM    2  C2  UNL     1     -28.516 -17.208  10.359  1.00  0.00    -0.025 C
HETATM    3  C3  UNL     1     -27.026 -17.009  10.050  1.00  0.00     0.017 C
HETATM    4  C4  UNL     1     -28.992 -18.299   9.423  1.00  0.00     0.019 C
HETATM    5  C5  UNL     1     -30.412 -18.704   9.843  1.00  0.00     0.087 C
HETATM    6  C6  UNL     1     -30.245 -19.372  11.161  1.00  0.00     0.137 C
HETATM    7  N1  UNL     1     -31.052 -20.286  11.546  1.00  0.00    -0.251 N
ATOM      8  H1  UNL     1     -30.905 -20.721  12.457  1.00  0.00     0.196 HD
HETATM    9  O2  UNL     1     -29.175 -18.945  11.931  1.00  0.00    -0.337 OA
HETATM   10  C7  UNL     1     -28.661 -17.629  11.784  1.00  0.00     0.185 C
ENDROOT
BRANCH   7  11
HETATM   11  O1  UNL     1     -32.109 -20.705  10.777  1.00  0.00    -0.288 OA
ATOM     12  H1  UNL     1     -31.988 -21.141   9.942  1.00  0.00     0.244 HD
ENDBRANCH   7  11
TORSDOF 1
ENDMDL