MODEL 5
REMARK VINA RESULT: -3.942684118      2.621      3.513
REMARK  1 active torsions:
REMARK  status: ('A' for Active; 'I' for Inactive)
REMARK    1  A    between atoms: C5_7  and  O1_8
ROOT
HETATM    1  C1  UNL     1     -31.383 -19.551  11.237  1.00  0.00     0.025 C
HETATM    2  C2  UNL     1     -30.005 -19.015  11.063  1.00  0.00     0.083 C
HETATM    3  S1  UNL     1     -29.815 -18.602   9.286  1.00  0.00    -0.091 SA
HETATM    4  S2  UNL     1     -28.848 -16.705   9.237  1.00  0.00    -0.097 SA
HETATM    5  C3  UNL     1     -27.803 -16.591  10.717  1.00  0.00     0.088 C
HETATM    6  C4  UNL     1     -28.171 -17.593  11.764  1.00  0.00     0.044 C
HETATM    7  C5  UNL     1     -29.688 -17.800  11.857  1.00  0.00     0.133 C
ENDROOT
BRANCH   7   8
HETATM    8  O1  UNL     1     -29.933 -18.080  13.220  1.00  0.00    -0.394 OA
ATOM      9  H1  UNL     1     -30.794 -17.747  13.445  1.00  0.00     0.210 HD
ENDBRANCH   7   8
TORSDOF 1
ENDMDL