MODEL 5
REMARK VINA RESULT: -3.938643853      2.330      3.945
REMARK  1 active torsions:
REMARK  status: ('A' for Active; 'I' for Inactive)
REMARK    1  A    between atoms: N1_8  and  O1_9
ROOT
HETATM    1  C1  UNL     1     -29.252 -16.899   9.521  1.00  0.00     0.052 C
HETATM    2  C2  UNL     1     -28.586 -16.505  10.829  1.00  0.00     0.099 C
HETATM    3  C3  UNL     1     -28.319 -17.662  11.750  1.00  0.00     0.052 C
HETATM    4  S1  UNL     1     -27.041 -15.552  10.600  1.00  0.00    -0.104 SA
HETATM    5  C4  UNL     1     -28.115 -14.404  11.476  1.00  0.00     0.099 C
HETATM    6  C5  UNL     1     -27.751 -14.126  12.906  1.00  0.00     0.052 C
HETATM    7  C6  UNL     1     -28.315 -13.153  10.667  1.00  0.00     0.052 C
HETATM    8  N1  UNL     1     -29.179 -15.346  11.374  1.00  0.00    -0.258 N
ENDROOT
BRANCH   8   9
HETATM    9  O1  UNL     1     -30.063 -15.433  12.339  1.00  0.00    -0.289 OA
ATOM     10  H1  UNL     1     -29.828 -15.798  13.184  1.00  0.00     0.244 HD
ENDBRANCH   8   9
TORSDOF 1
ENDMDL