MODEL 2
REMARK VINA RESULT: -7.491518782      2.210      7.973
REMARK  9 active torsions:
REMARK  status: ('A' for Active; 'I' for Inactive)
REMARK    1  A    between atoms: N1_1  and  C1_4
REMARK    2  A    between atoms: C2_9  and  S1_10
REMARK    3  A    between atoms: S1_10  and  C3_11
REMARK    4  A    between atoms: C3_11  and  C4_12
REMARK    5  A    between atoms: C4_12  and  C5_13
REMARK    6  A    between atoms: C5_13  and  N4_14
REMARK    7  A    between atoms: C7_19  and  N6_20
REMARK    8  A    between atoms: C10_30  and  N10_31
REMARK    9  A    between atoms: N11_34  and  N12_35
ROOT
HETATM    1  N4  UNL     1      22.849  -8.837  16.117  1.00  0.00    -0.224 N
ATOM      2  H4  UNL     1      22.320  -9.709  16.114  1.00  0.00     0.177 HD
HETATM    3  C6  UNL     1      22.528  -8.021  15.211  1.00  0.00     0.702 C
HETATM    4  N5  UNL     1      21.520  -8.495  14.410  1.00  0.00    -0.173 N
ATOM      5  H5  UNL     1      21.400  -9.508  14.394  1.00  0.00     0.186 HD
HETATM    6  C7  UNL     1      20.673  -7.788  13.644  1.00  0.00     0.145 C
HETATM    7  C8  UNL     1      20.501  -6.413  13.567  1.00  0.00     0.122 A
HETATM    8  N7  UNL     1      19.485  -5.779  13.002  1.00  0.00    -0.278 N
ATOM      9  H7  UNL     1      18.689  -6.225  12.547  1.00  0.00     0.184 HD
HETATM   10  N8  UNL     1      19.671  -4.455  13.126  1.00  0.00    -0.021 NA
HETATM   11  N9  UNL     1      20.810  -4.266  13.770  1.00  0.00    -0.278 N
ATOM     12  H9  UNL     1      21.209  -3.358  14.008  1.00  0.00     0.184 HD
HETATM   13  C9  UNL     1      21.359  -5.456  14.063  1.00  0.00     0.123 A
HETATM   14  C10 UNL     1      22.562  -5.673  14.738  1.00  0.00     0.169 C
HETATM   15  N11 UNL     1      23.151  -6.826  15.094  1.00  0.00    -0.074 N
ENDROOT
BRANCH   1  16
HETATM   16  C5  UNL     1      23.823  -8.739  17.136  1.00  0.00     0.139 C
BRANCH  16  17
HETATM   17  C4  UNL     1      24.421 -10.151  17.326  1.00  0.00     0.031 C
BRANCH  17  18
HETATM   18  C3  UNL     1      25.281 -10.478  16.125  1.00  0.00     0.084 C
BRANCH  18  19
HETATM   19  S1  UNL     1      25.303 -12.262  15.803  1.00  0.00    -0.092 SA
BRANCH  19  20
HETATM   20  C2  UNL     1      26.416 -12.576  14.434  1.00  0.00     0.174 A
HETATM   21  N3  UNL     1      26.626 -11.798  13.348  1.00  0.00    -0.265 N
HETATM   22  N2  UNL     1      27.528 -12.375  12.554  1.00  0.00    -0.130 N
ATOM     23  H3  UNL     1      26.165 -10.907  13.164  1.00  0.00     0.189 HD
HETATM   24  C1  UNL     1      27.916 -13.535  13.112  1.00  0.00     0.692 A
ATOM     25  H2  UNL     1      27.867 -11.998  11.669  1.00  0.00     0.205 HD
HETATM   26  N13 UNL     1      27.225 -13.641  14.260  1.00  0.00    -0.168 N
ATOM     27  H13 UNL     1      27.302 -14.422  14.912  1.00  0.00     0.186 HD
BRANCH  24  28
HETATM   28  N1  UNL     1      28.789 -14.351  12.598  1.00  0.00    -0.233 N
ATOM     29  H12 UNL     1      29.322 -14.265  11.731  1.00  0.00     0.174 HD
ATOM     30  H11 UNL     1      29.076 -15.236  13.015  1.00  0.00     0.174 HD
ENDBRANCH  24  28
ENDBRANCH  19  20
ENDBRANCH  18  19
ENDBRANCH  17  18
ENDBRANCH  16  17
ENDBRANCH   1  16
BRANCH  15  31
HETATM   31  N12 UNL     1      24.512  -6.848  15.370  1.00  0.00    -0.322 N
ATOM     32 2H12 UNL     1      24.994  -5.982  15.611  1.00  0.00     0.178 HD
ATOM     33 1H12 UNL     1      24.947  -7.768  15.303  1.00  0.00     0.178 HD
ENDBRANCH  15  31
BRANCH   6  34
HETATM   34  N6  UNL     1      19.902  -8.463  12.867  1.00  0.00    -0.383 N
ATOM     35  H62 UNL     1      18.946  -8.562  13.206  1.00  0.00     0.157 HD
ATOM     36  H61 UNL     1      20.323  -8.824  12.011  1.00  0.00     0.157 HD
ENDBRANCH   6  34
BRANCH  14  37
HETATM   37  N10 UNL     1      23.194  -4.624  15.062  1.00  0.00    -0.382 N
ATOM     38 2H10 UNL     1      22.713  -3.748  14.856  1.00  0.00     0.157 HD
ATOM     39 1H10 UNL     1      24.106  -4.782  15.491  1.00  0.00     0.157 HD
ENDBRANCH  14  37
TORSDOF 9
ENDMDL