MODEL 1
REMARK VINA RESULT: -9.015369700      0.000      0.000
REMARK  9 active torsions:
REMARK  status: ('A' for Active; 'I' for Inactive)
REMARK    1  A    between atoms: C2_2  and  N1_3
REMARK    2  A    between atoms: C2_2  and  N8_29
REMARK    3  A    between atoms: N1_3  and  C3_6
REMARK    4  A    between atoms: C3_6  and  C4_7
REMARK    5  A    between atoms: C3_6  and  C5_9
REMARK    6  A    between atoms: C7_13  and  N3_14
REMARK    7  A    between atoms: N3_14  and  N4_16
REMARK    8  A    between atoms: C8_21  and  N6_22
REMARK    9  A    between atoms: C10_32  and  N10_33
ROOT
HETATM    1  C5  UNL     1      23.733  -9.215  15.859  1.00  0.00     0.164 A
HETATM    2  N2  UNL     1      24.108  -7.929  15.778  1.00  0.00    -0.331 N
ATOM      3  H2  UNL     1      24.978  -7.546  16.149  1.00  0.00     0.168 HD
HETATM    4  C6  UNL     1      23.158  -7.216  15.128  1.00  0.00     0.133 A
HETATM    5  C7  UNL     1      22.978  -5.912  14.755  1.00  0.00     0.166 A
HETATM    6  N5  UNL     1      21.888  -5.475  14.091  1.00  0.00    -0.173 N
ATOM      7  H5  UNL     1      21.783  -4.496  13.826  1.00  0.00     0.186 HD
HETATM    8  C8  UNL     1      20.946  -6.390  13.795  1.00  0.00     0.679 A
HETATM    9  N7  UNL     1      21.094  -7.677  14.149  1.00  0.00    -0.168 N
ATOM     10  H7  UNL     1      20.355  -8.336  13.905  1.00  0.00     0.186 HD
HETATM   11  C9  UNL     1      22.179  -8.140  14.816  1.00  0.00     0.195 A
HETATM   12  O2  UNL     1      22.567  -9.304  15.269  1.00  0.00    -0.275 OA
ENDROOT
BRANCH   1  13
HETATM   13  C3  UNL     1      24.528 -10.324  16.516  1.00  0.00     0.323 C
BRANCH  13  14
HETATM   14  N1  UNL     1      25.786 -10.502  15.894  1.00  0.00    -0.035 N
ATOM     15  H12 UNL     1      26.378 -11.144  16.421  1.00  0.00     0.281 HD
ATOM     16  H11 UNL     1      26.363  -9.664  15.967  1.00  0.00     0.281 HD
BRANCH  14  17
HETATM   17  C2  UNL     1      25.632 -10.922  14.532  1.00  0.00     0.309 C
HETATM   18  C1  UNL     1      26.198  -9.888  13.565  1.00  0.00     0.065 C
BRANCH  17  19
HETATM   19  N8  UNL     1      26.410 -12.153  14.298  1.00  0.00    -0.196 N
HETATM   20  N9  UNL     1      27.273 -12.377  13.321  1.00  0.00    -0.124 N
HETATM   21  C10 UNL     1      27.767 -13.630  13.477  1.00  0.00     0.694 A
ATOM     22  H9  UNL     1      27.523 -11.722  12.580  1.00  0.00     0.206 HD
HETATM   23  N11 UNL     1      27.204 -14.186  14.563  1.00  0.00    -0.139 N
HETATM   24  C11 UNL     1      26.366 -13.240  15.051  1.00  0.00     0.357 A
ATOM     25  H11 UNL     1      27.372 -15.119  14.939  1.00  0.00     0.189 HD
HETATM   26  O3  UNL     1      25.642 -13.378  16.079  1.00  0.00    -0.244 OA
BRANCH  21  27
HETATM   27  N10 UNL     1      28.632 -14.157  12.690  1.00  0.00    -0.233 N
ATOM     28 2H10 UNL     1      29.644 -14.197  12.816  1.00  0.00     0.174 HD
ATOM     29 1H10 UNL     1      28.392 -14.616  11.810  1.00  0.00     0.174 HD
ENDBRANCH  21  27
ENDBRANCH  17  19
ENDBRANCH  14  17
ENDBRANCH  13  14
BRANCH  13  30
HETATM   30  C4  UNL     1      24.529 -10.160  17.975  1.00  0.00     0.272 C
HETATM   31  O1  UNL     1      23.964  -9.262  18.522  1.00  0.00    -0.304 OA
ENDBRANCH  13  30
ENDBRANCH   1  13
BRANCH   5  32
HETATM   32  N3  UNL     1      23.913  -5.073  15.061  1.00  0.00    -0.290 N
ATOM     33  H3  UNL     1      24.834  -5.433  15.309  1.00  0.00     0.188 HD
BRANCH  32  34
HETATM   34  N4  UNL     1      23.707  -3.701  15.063  1.00  0.00    -0.344 N
ATOM     35  H42 UNL     1      23.479  -3.253  14.175  1.00  0.00     0.176 HD
ATOM     36  H41 UNL     1      23.777  -3.140  15.912  1.00  0.00     0.176 HD
ENDBRANCH  32  34
ENDBRANCH   5  32
BRANCH   8  37
HETATM   37  N6  UNL     1      19.878  -5.989  13.153  1.00  0.00    -0.234 N
ATOM     38  H62 UNL     1      19.910  -5.801  12.151  1.00  0.00     0.174 HD
ATOM     39  H61 UNL     1      19.016  -5.871  13.684  1.00  0.00     0.174 HD
ENDBRANCH   8  37
TORSDOF 9
ENDMDL