MODEL 3
REMARK VINA RESULT: -9.048518253      1.297      7.486
REMARK  10 active torsions:
REMARK  status: ('A' for Active; 'I' for Inactive)
REMARK    1  A    between atoms: C4_8  and  N4_9
REMARK    2  A    between atoms: C5_14  and  N6_15
REMARK    3  A    between atoms: N6_15  and  C6_17
REMARK    4  A    between atoms: C6_17  and  C7_18
REMARK    5  A    between atoms: C7_18  and  O1_19
REMARK    6  A    between atoms: C7_18  and  C8_21
REMARK    7  A    between atoms: C8_21  and  O2_22
REMARK    8  A    between atoms: C8_21  and  C9_24
REMARK    9  A    between atoms: C9_24  and  N7_25
REMARK   10  A    between atoms: C11_29  and  N9_30
ROOT
HETATM    1  N1  UNL     1      26.937 -11.725  12.126  1.00  0.00    -0.191 NA
HETATM    2  C1  UNL     1      26.786 -11.974  13.235  1.00  0.00     0.107 C
HETATM    3  C2  UNL     1      26.598 -12.266  14.625  1.00  0.00     0.130 A
HETATM    4  C3  UNL     1      26.980 -13.501  15.090  1.00  0.00     0.156 A
HETATM    5  N2  UNL     1      27.553 -14.491  14.239  1.00  0.00    -0.080 NA
HETATM    6  N3  UNL     1      26.798 -13.762  16.400  1.00  0.00    -0.177 N
ATOM      7  H3  UNL     1      27.071 -14.671  16.774  1.00  0.00     0.185 HD
HETATM    8  C4  UNL     1      26.261 -12.845  17.220  1.00  0.00     0.678 A
HETATM    9  N5  UNL     1      25.887 -11.625  16.743  1.00  0.00    -0.176 N
ATOM     10  H5  UNL     1      25.482 -10.944  17.384  1.00  0.00     0.186 HD
HETATM   11  C5  UNL     1      26.038 -11.300  15.461  1.00  0.00     0.141 A
ENDROOT
BRANCH  11  12
HETATM   12  N6  UNL     1      25.716 -10.189  14.944  1.00  0.00    -0.372 N
ATOM     13  H6  UNL     1      25.668 -10.170  13.926  1.00  0.00     0.161 HD
BRANCH  12  14
HETATM   14  C6  UNL     1      25.412  -8.959  15.607  1.00  0.00     0.155 C
BRANCH  14  15
HETATM   15  C7  UNL     1      24.367  -9.125  16.689  1.00  0.00     0.166 C
BRANCH  15  16
HETATM   16  O1  UNL     1      24.997  -9.028  17.916  1.00  0.00    -0.391 OA
ATOM     17  H1  UNL     1      24.330  -8.932  18.585  1.00  0.00     0.210 HD
ENDBRANCH  15  16
BRANCH  15  18
HETATM   18  C8  UNL     1      23.224  -8.183  16.505  1.00  0.00     0.166 C
BRANCH  18  19
HETATM   19  O2  UNL     1      22.924  -7.612  17.746  1.00  0.00    -0.391 OA
ATOM     20  H2  UNL     1      21.981  -7.628  17.860  1.00  0.00     0.210 HD
ENDBRANCH  18  19
BRANCH  18  21
HETATM   21  C9  UNL     1      23.607  -7.037  15.589  1.00  0.00     0.165 C
BRANCH  21  22
HETATM   22  N7  UNL     1      22.469  -6.629  14.768  1.00  0.00    -0.329 N
HETATM   23  C10 UNL     1      21.585  -7.533  14.337  1.00  0.00     0.185 A
HETATM   24  N8  UNL     1      20.549  -7.159  13.589  1.00  0.00    -0.339 N
HETATM   25  C11 UNL     1      20.312  -5.897  13.217  1.00  0.00     0.102 A
ATOM     26  H8  UNL     1      19.895  -7.880  13.282  1.00  0.00     0.168 HD
HETATM   27  C12 UNL     1      21.240  -4.953  13.670  1.00  0.00     0.093 A
HETATM   28  C13 UNL     1      22.308  -5.347  14.442  1.00  0.00     0.122 A
HETATM   29  N10 UNL     1      23.225  -4.360  14.881  1.00  0.00    -0.082 NA
BRANCH  25  30
HETATM   30  N9  UNL     1      19.304  -5.550  12.492  1.00  0.00    -0.385 N
ATOM     31  H92 UNL     1      18.965  -6.146  11.736  1.00  0.00     0.157 HD
ATOM     32  H91 UNL     1      18.793  -4.677  12.624  1.00  0.00     0.157 HD
ENDBRANCH  25  30
ENDBRANCH  21  22
ENDBRANCH  18  21
ENDBRANCH  15  18
ENDBRANCH  14  15
ENDBRANCH  12  14
ENDBRANCH  11  12
BRANCH   8  33
HETATM   33  N4  UNL     1      26.091 -13.102  18.463  1.00  0.00    -0.234 N
ATOM     34  H42 UNL     1      26.292 -14.042  18.804  1.00  0.00     0.174 HD
ATOM     35  H41 UNL     1      25.761 -12.378  19.102  1.00  0.00     0.174 HD
ENDBRANCH   8  33
TORSDOF 10
ENDMDL