MODEL 3
REMARK VINA RESULT: -6.675987835      0.839      1.070
REMARK  5 active torsions:
REMARK  status: ('A' for Active; 'I' for Inactive)
REMARK    1  A    between atoms: N1_1  and  C1_4
REMARK       I    between atoms: N3_11  and  C5_13
REMARK       I    between atoms: C5_13  and  N4_14
REMARK       I    between atoms: C5_13  and  N5_18
REMARK    2  A    between atoms: C7_24  and  N7_25
REMARK    3  A    between atoms: N7_25  and  C8_27
REMARK    4  A    between atoms: N9_34  and  C12_35
REMARK    5  A    between atoms: C12_35  and  O2_36
ROOT
HETATM    1  C1  UNL     1      24.901 -12.641  18.803  1.00  0.00     0.680 A
HETATM    2  N2  UNL     1      25.588 -13.446  18.011  1.00  0.00    -0.155 N
ATOM      3  H2  UNL     1      25.847 -14.383  18.319  1.00  0.00     0.187 HD
HETATM    4  C2  UNL     1      25.940 -13.000  16.784  1.00  0.00     0.276 A
HETATM    5  O1  UNL     1      26.594 -13.831  16.087  1.00  0.00    -0.267 OA
HETATM    6  C3  UNL     1      25.617 -11.745  16.324  1.00  0.00     0.106 A
HETATM    7  C4  UNL     1      25.985 -11.341  15.057  1.00  0.00     0.079 A
HETATM    8  N3  UNL     1      26.630 -12.117  14.351  1.00  0.00    -0.338 N
ATOM      9  H3  UNL     1      26.792 -12.988  14.857  1.00  0.00     0.163 HD
HETATM   10  C5  UNL     1      27.207 -12.192  13.091  1.00  0.00     0.480 C
HETATM   11  N4  UNL     1      28.330 -13.166  13.127  1.00  0.00    -0.033 N
ATOM     12  H41 UNL     1      28.755 -13.222  12.201  1.00  0.00     0.278 HD
ATOM     13  H42 UNL     1      28.040 -14.080  13.474  1.00  0.00     0.278 HD
ATOM     14  H43 UNL     1      29.012 -12.946  13.853  1.00  0.00     0.278 HD
HETATM   15  N5  UNL     1      26.350 -12.689  12.035  1.00  0.00    -0.033 N
ATOM     16  H51 UNL     1      26.775 -12.745  11.109  1.00  0.00     0.278 HD
ATOM     17  H52 UNL     1      25.495 -12.136  11.992  1.00  0.00     0.278 HD
ATOM     18  H53 UNL     1      25.967 -13.598  12.297  1.00  0.00     0.278 HD
HETATM   19  C6  UNL     1      25.585 -10.056  14.694  1.00  0.00     0.117 A
HETATM   20  N6  UNL     1      25.999  -9.613  13.421  1.00  0.00    -0.096 NA
HETATM   21  C7  UNL     1      24.866  -9.213  15.522  1.00  0.00     0.134 A
HETATM   22  N9  UNL     1      24.531  -9.678  16.780  1.00  0.00    -0.294 N
HETATM   23  C13 UNL     1      24.898 -10.918  17.168  1.00  0.00     0.144 A
HETATM   24  N10 UNL     1      24.555 -11.389  18.396  1.00  0.00    -0.175 N
ATOM     25  H10 UNL     1      24.025 -10.790  19.029  1.00  0.00     0.186 HD
ENDROOT
BRANCH  21  26
HETATM   26  N7  UNL     1      24.394  -7.952  15.119  1.00  0.00    -0.368 N
ATOM     27  H7  UNL     1      24.947  -7.176  15.482  1.00  0.00     0.161 HD
BRANCH  26  28
HETATM   28  C8  UNL     1      23.308  -7.540  14.312  1.00  0.00     0.110 C
HETATM   29  C9  UNL     1      21.968  -8.130  14.652  1.00  0.00     0.054 C
HETATM   30  C10 UNL     1      21.042  -7.156  13.900  1.00  0.00     0.234 C
HETATM   31  N8  UNL     1      21.576  -5.893  14.319  1.00  0.00    -0.073 N
HETATM   32  C11 UNL     1      22.968  -6.041  14.584  1.00  0.00     0.257 C
ATOM     33  H82 UNL     1      21.386  -5.148  13.648  1.00  0.00     0.277 HD
ATOM     34  H81 UNL     1      21.070  -5.501  15.113  1.00  0.00     0.277 HD
ENDBRANCH  26  28
ENDBRANCH  21  26
BRANCH  22  35
HETATM   35  C12 UNL     1      23.834  -8.851  17.725  1.00  0.00     0.298 C
BRANCH  35  36
HETATM   36  O2  UNL     1      22.602  -9.375  18.096  1.00  0.00    -0.382 OA
ATOM     37  H2  UNL     1      22.183  -9.862  17.396  1.00  0.00     0.211 HD
ENDBRANCH  35  36
ENDBRANCH  22  35
BRANCH   1  38
HETATM   38  N1  UNL     1      24.565 -13.074  19.981  1.00  0.00    -0.234 N
ATOM     39  H12 UNL     1      24.843 -12.569  20.822  1.00  0.00     0.174 HD
ATOM     40  H11 UNL     1      24.017 -13.932  20.042  1.00  0.00     0.174 HD
ENDBRANCH   1  38
TORSDOF 5
ENDMDL