MODEL 2
REMARK VINA RESULT: -5.979104369      1.305      3.371
REMARK  9 active torsions:
REMARK  status: ('A' for Active; 'I' for Inactive)
REMARK    1  A    between atoms: C5_11  and  N4_12
REMARK    2  A    between atoms: C5_11  and  C6_16
REMARK    3  A    between atoms: C6_16  and  N5_17
REMARK    4  A    between atoms: C7_24  and  C8_25
REMARK    5  A    between atoms: C8_25  and  S1_26
REMARK    6  A    between atoms: S1_26  and  C9_27
REMARK    7  A    between atoms: C10_32  and  C11_33
REMARK    8  A    between atoms: C11_33  and  N9_34
REMARK    9  A    between atoms: C11_33  and  N10_38
ROOT
HETATM    1  C1  UNL     1      24.557 -10.671  17.970  1.00  0.00     0.175 C
HETATM    2  N1  UNL     1      25.295 -11.494  17.043  1.00  0.00    -0.187 N
HETATM    3  C2  UNL     1      25.480 -11.236  15.737  1.00  0.00     0.087 A
HETATM    4  C3  UNL     1      26.236 -12.249  15.183  1.00  0.00     0.117 A
HETATM    5  N2  UNL     1      26.500 -13.114  16.178  1.00  0.00    -0.189 N
ATOM      6  H2  UNL     1      27.041 -13.975  16.099  1.00  0.00     0.184 HD
HETATM    7  C4  UNL     1      25.916 -12.636  17.307  1.00  0.00     0.678 A
HETATM    8  N3  UNL     1      25.985 -13.241  18.444  1.00  0.00    -0.234 N
ATOM      9  H31 UNL     1      26.462 -14.119  18.648  1.00  0.00     0.174 HD
ATOM     10  H32 UNL     1      25.546 -12.882  19.292  1.00  0.00     0.174 HD
HETATM   11  C5  UNL     1      26.424 -11.939  13.745  1.00  0.00     0.352 C
HETATM   12  N6  UNL     1      26.339 -10.470  13.772  1.00  0.00    -0.023 N
ATOM     13  H61 UNL     1      26.278 -10.014  12.862  1.00  0.00     0.281 HD
ATOM     14  H62 UNL     1      27.190  -9.984  14.055  1.00  0.00     0.281 HD
HETATM   15  C7  UNL     1      25.192 -10.290  14.644  1.00  0.00     0.251 C
ENDROOT
BRANCH  15  16
HETATM   16  C8  UNL     1      25.056  -8.865  15.110  1.00  0.00     0.122 C
BRANCH  16  17
HETATM   17  S1  UNL     1      23.409  -8.698  15.855  1.00  0.00    -0.090 SA
BRANCH  17  18
HETATM   18  C9  UNL     1      22.179  -8.255  14.642  1.00  0.00     0.160 A
HETATM   19  N7  UNL     1      21.715  -9.093  13.698  1.00  0.00    -0.278 N
HETATM   20  N8  UNL     1      20.812  -8.441  12.965  1.00  0.00    -0.284 N
ATOM     21  H7  UNL     1      22.004 -10.062  13.566  1.00  0.00     0.189 HD
HETATM   22  C10 UNL     1      20.676  -7.181  13.417  1.00  0.00     0.156 A
ATOM     23  H8  UNL     1      20.299  -8.838  12.177  1.00  0.00     0.188 HD
HETATM   24  N11 UNL     1      21.535  -7.094  14.456  1.00  0.00    -0.321 N
ATOM     25  H11 UNL     1      21.675  -6.258  15.023  1.00  0.00     0.169 HD
BRANCH  22  26
HETATM   26  C11 UNL     1      19.780  -6.159  12.871  1.00  0.00     0.446 C
BRANCH  26  27
HETATM   27  N9  UNL     1      20.000  -5.909  11.460  1.00  0.00    -0.043 N
ATOM     28  H93 UNL     1      20.992  -5.771  11.264  1.00  0.00     0.277 HD
ATOM     29  H92 UNL     1      19.838  -6.753  10.911  1.00  0.00     0.277 HD
ATOM     30  H91 UNL     1      19.446  -5.131  11.102  1.00  0.00     0.277 HD
ENDBRANCH  26  27
BRANCH  26  31
HETATM   31  N10 UNL     1      19.980  -4.918  13.568  1.00  0.00    -0.043 N
ATOM     32 3H10 UNL     1      20.932  -4.824  13.919  1.00  0.00     0.277 HD
ATOM     33 2H10 UNL     1      19.977  -4.117  12.935  1.00  0.00     0.277 HD
ATOM     34 1H10 UNL     1      19.285  -4.824  14.309  1.00  0.00     0.277 HD
ENDBRANCH  26  31
ENDBRANCH  22  26
ENDBRANCH  17  18
ENDBRANCH  16  17
ENDBRANCH  15  16
BRANCH  11  35
HETATM   35  N4  UNL     1      25.305 -12.444  13.013  1.00  0.00    -0.037 N
ATOM     36  H43 UNL     1      24.436 -12.389  13.544  1.00  0.00     0.277 HD
ATOM     37  H42 UNL     1      25.037 -11.835  12.240  1.00  0.00     0.277 HD
ATOM     38  H41 UNL     1      25.514 -13.394  12.707  1.00  0.00     0.277 HD
ENDBRANCH  11  35
BRANCH  11  39
HETATM   39  C6  UNL     1      27.753 -12.382  13.222  1.00  0.00     0.305 C
BRANCH  39  40
HETATM   40  N5  UNL     1      27.908 -11.835  11.886  1.00  0.00    -0.075 N
ATOM     41  H53 UNL     1      27.541 -10.886  11.801  1.00  0.00     0.274 HD
ATOM     42  H52 UNL     1      28.879 -11.625  11.656  1.00  0.00     0.274 HD
ATOM     43  H51 UNL     1      27.477 -12.487  11.231  1.00  0.00     0.274 HD
ENDBRANCH  39  40
ENDBRANCH  11  39
TORSDOF 9
ENDMDL