MODEL 5
REMARK VINA RESULT: -6.360501027      1.081      1.909
REMARK  8 active torsions:
REMARK  status: ('A' for Active; 'I' for Inactive)
REMARK    1  A    between atoms: N1_1  and  C1_4
REMARK    2  A    between atoms: C2_7  and  C3_8
REMARK    3  A    between atoms: C3_8  and  N3_9
REMARK    4  A    between atoms: C4_11  and  C5_12
REMARK    5  A    between atoms: C5_12  and  O1_13
REMARK    6  A    between atoms: O1_13  and  C6_14
REMARK    7  A    between atoms: C7_17  and  N5_18
REMARK    8  A    between atoms: C8_23  and  N7_24
ROOT
HETATM    1  N3  UNL     1      24.138 -10.238  16.093  1.00  0.00    -0.354 N
ATOM      2  H3  UNL     1      23.188 -10.480  15.813  1.00  0.00     0.162 HD
HETATM    3  C4  UNL     1      24.436  -9.044  16.439  1.00  0.00     0.085 C
ENDROOT
BRANCH   1   4
HETATM    4  C3  UNL     1      25.159 -11.213  16.111  1.00  0.00     0.307 C
HETATM    5  N9  UNL     1      25.049 -12.191  15.059  1.00  0.00    -0.031 N
HETATM    6  C9  UNL     1      25.506 -11.611  13.841  1.00  0.00     0.247 C
ATOM      7  H92 UNL     1      25.534 -13.060  15.282  1.00  0.00     0.281 HD
ATOM      8  H91 UNL     1      24.106 -12.572  14.978  1.00  0.00     0.281 HD
HETATM    9  C10 UNL     1      26.978 -11.221  14.052  1.00  0.00     0.106 C
HETATM   10  S1  UNL     1      26.804 -10.486  15.731  1.00  0.00    -0.099 SA
BRANCH   4  11
HETATM   11  C2  UNL     1      25.283 -11.924  17.393  1.00  0.00     0.180 A
HETATM   12  N2  UNL     1      26.210 -12.836  17.690  1.00  0.00    -0.173 N
HETATM   13  C1  UNL     1      26.025 -13.278  18.946  1.00  0.00     0.692 A
ATOM     14  H2  UNL     1      26.947 -13.151  17.060  1.00  0.00     0.185 HD
HETATM   15  N11 UNL     1      24.951 -12.595  19.392  1.00  0.00    -0.131 N
HETATM   16  N10 UNL     1      24.502 -11.781  18.460  1.00  0.00    -0.270 N
ATOM     17  H11 UNL     1      24.543 -12.696  20.321  1.00  0.00     0.205 HD
ATOM     18  H10 UNL     1      23.701 -11.154  18.542  1.00  0.00     0.189 HD
BRANCH  13  19
HETATM   19  N1  UNL     1      26.721 -14.165  19.595  1.00  0.00    -0.233 N
ATOM     20  H12 UNL     1      27.184 -14.989  19.211  1.00  0.00     0.174 HD
ATOM     21  H11 UNL     1      26.926 -14.195  20.594  1.00  0.00     0.174 HD
ENDBRANCH  13  19
ENDBRANCH   4  11
ENDBRANCH   1   4
BRANCH   3  22
HETATM   22  C5  UNL     1      23.354  -8.024  16.419  1.00  0.00     0.223 C
BRANCH  22  23
HETATM   23  O1  UNL     1      23.452  -7.277  15.202  1.00  0.00    -0.316 OA
BRANCH  23  24
HETATM   24  C6  UNL     1      22.281  -6.953  14.542  1.00  0.00     0.252 A
HETATM   25  N4  UNL     1      21.859  -5.682  14.426  1.00  0.00    -0.154 N
HETATM   26  C7  UNL     1      20.725  -5.369  13.785  1.00  0.00     0.693 A
ATOM     27  H4  UNL     1      22.418  -4.935  14.839  1.00  0.00     0.188 HD
HETATM   28  N6  UNL     1      19.982  -6.332  13.239  1.00  0.00    -0.023 N
HETATM   29  C8  UNL     1      20.373  -7.618  13.335  1.00  0.00     0.693 A
ATOM     30  H6  UNL     1      19.118  -6.095  12.750  1.00  0.00     0.203 HD
HETATM   31  N8  UNL     1      21.515  -7.908  13.983  1.00  0.00    -0.154 N
ATOM     32  H8  UNL     1      21.810  -8.881  14.054  1.00  0.00     0.188 HD
BRANCH  26  33
HETATM   33  N5  UNL     1      20.363  -4.135  13.702  1.00  0.00    -0.234 N
ATOM     34  H52 UNL     1      21.051  -3.404  13.516  1.00  0.00     0.174 HD
ATOM     35  H51 UNL     1      19.381  -3.890  13.823  1.00  0.00     0.174 HD
ENDBRANCH  26  33
BRANCH  29  36
HETATM   36  N7  UNL     1      19.626  -8.523  12.793  1.00  0.00    -0.234 N
ATOM     37  H72 UNL     1      19.548  -9.471  13.163  1.00  0.00     0.174 HD
ATOM     38  H71 UNL     1      19.094  -8.270  11.961  1.00  0.00     0.174 HD
ENDBRANCH  29  36
ENDBRANCH  23  24
ENDBRANCH  22  23
ENDBRANCH   3  22
TORSDOF 8
ENDMDL