MODEL 2
REMARK VINA RESULT: -7.194569212      1.560      1.848
REMARK  10 active torsions:
REMARK  status: ('A' for Active; 'I' for Inactive)
REMARK    1  A    between atoms: C2_2  and  C3_3
REMARK    2  A    between atoms: C2_2  and  N1_6
REMARK    3  A    between atoms: C3_3  and  O1_4
REMARK    4  A    between atoms: N1_6  and  C4_9
REMARK    5  A    between atoms: C4_9  and  C5_10
REMARK    6  A    between atoms: C7_16  and  N4_17
REMARK    7  A    between atoms: C8_20  and  N5_21
REMARK    8  A    between atoms: N8_29  and  C12_31
REMARK    9  A    between atoms: C12_31  and  N9_32
REMARK   10  A    between atoms: C12_31  and  O2_36
ROOT
HETATM    1  C5  UNL     1      24.198  -8.956  15.612  1.00  0.00     0.110 A
HETATM    2  N2  UNL     1      24.060  -9.341  16.888  1.00  0.00    -0.329 N
ATOM      3  H2  UNL     1      23.547  -8.754  17.547  1.00  0.00     0.168 HD
HETATM    4  C6  UNL     1      24.598 -10.503  17.298  1.00  0.00     0.140 A
HETATM    5  N3  UNL     1      24.450 -10.874  18.587  1.00  0.00    -0.324 N
ATOM      6  H3  UNL     1      23.933 -10.266  19.222  1.00  0.00     0.169 HD
HETATM    7  C7  UNL     1      24.958 -12.006  19.048  1.00  0.00     0.146 A
HETATM    8  C8  UNL     1      25.643 -12.784  18.144  1.00  0.00     0.160 A
HETATM    9  N6  UNL     1      25.815 -12.444  16.835  1.00  0.00    -0.223 N
HETATM   10  C9  UNL     1      26.544 -13.323  16.009  1.00  0.00     0.191 C
HETATM   11  N7  UNL     1      27.167 -14.080  15.374  1.00  0.00    -0.171 NA
HETATM   12  C10 UNL     1      25.304 -11.313  16.385  1.00  0.00     0.139 A
HETATM   13  C11 UNL     1      25.445 -10.911  15.073  1.00  0.00     0.138 A
HETATM   14  N8  UNL     1      26.014 -11.591  14.209  1.00  0.00    -0.326 N
ATOM     15  H8  UNL     1      26.353 -12.470  14.600  1.00  0.00     0.165 HD
HETATM   16  N10 UNL     1      24.874  -9.719  14.734  1.00  0.00    -0.329 N
ATOM     17  H10 UNL     1      24.964  -9.393  13.772  1.00  0.00     0.168 HD
ENDROOT
BRANCH   8  18
HETATM   18  N5  UNL     1      26.150 -13.903  18.537  1.00  0.00    -0.381 N
ATOM     19  H52 UNL     1      25.535 -14.546  19.037  1.00  0.00     0.157 HD
ATOM     20  H51 UNL     1      27.131 -14.100  18.341  1.00  0.00     0.157 HD
ENDBRANCH   8  18
BRANCH   7  21
HETATM   21  N4  UNL     1      24.806 -12.326  20.283  1.00  0.00    -0.382 N
ATOM     22  H42 UNL     1      25.557 -12.276  20.971  1.00  0.00     0.157 HD
ATOM     23  H41 UNL     1      23.898 -12.644  20.621  1.00  0.00     0.157 HD
ENDBRANCH   7  21
BRANCH  14  24
HETATM   24  C12 UNL     1      26.323 -11.494  12.854  1.00  0.00     0.425 C
BRANCH  24  25
HETATM   25  N9  UNL     1      27.464 -12.161  12.322  1.00  0.00    -0.035 N
ATOM     26  H93 UNL     1      27.346 -13.163  12.468  1.00  0.00     0.279 HD
ATOM     27  H92 UNL     1      27.427 -12.094  11.304  1.00  0.00     0.279 HD
ATOM     28  H91 UNL     1      28.404 -11.903  12.624  1.00  0.00     0.279 HD
ENDBRANCH  24  25
BRANCH  24  29
HETATM   29  O2  UNL     1      26.587 -10.112  12.572  1.00  0.00    -0.355 OA
ATOM     30  H2  UNL     1      27.531 -10.002  12.556  1.00  0.00     0.213 HD
ENDBRANCH  24  29
ENDBRANCH  14  24
BRANCH   1  31
HETATM   31  C4  UNL     1      23.487  -7.696  15.210  1.00  0.00     0.309 C
BRANCH  31  32
HETATM   32  N1  UNL     1      22.118  -7.732  15.646  1.00  0.00    -0.063 N
ATOM     33  H12 UNL     1      21.979  -7.098  16.434  1.00  0.00     0.278 HD
ATOM     34  H11 UNL     1      21.913  -8.622  16.100  1.00  0.00     0.278 HD
BRANCH  32  35
HETATM   35  C2  UNL     1      21.170  -7.467  14.626  1.00  0.00     0.205 C
HETATM   36  C1  UNL     1      21.530  -6.070  14.079  1.00  0.00     0.042 C
BRANCH  35  37
HETATM   37  C3  UNL     1      21.179  -8.449  13.496  1.00  0.00     0.196 C
BRANCH  37  38
HETATM   38  O1  UNL     1      20.209  -8.080  12.544  1.00  0.00    -0.399 OA
ATOM     39  H1  UNL     1      19.729  -8.851  12.266  1.00  0.00     0.209 HD
ENDBRANCH  37  38
ENDBRANCH  35  37
ENDBRANCH  32  35
ENDBRANCH  31  32
ENDBRANCH   1  31
TORSDOF 10
ENDMDL