MODEL 2
REMARK VINA RESULT: -8.587910571      1.403      1.920
REMARK  9 active torsions:
REMARK  status: ('A' for Active; 'I' for Inactive)
REMARK    1  A    between atoms: N1_1  and  C1_4
REMARK    2  A    between atoms: C4_12  and  C5_13
REMARK    3  A    between atoms: C5_13  and  O2_14
REMARK    4  A    between atoms: C5_13  and  N4_16
REMARK    5  A    between atoms: N4_16  and  C6_19
REMARK    6  A    between atoms: C6_19  and  N5_20
REMARK    7  A    between atoms: C6_19  and  C7_24
REMARK    8  A    between atoms: C7_24  and  N6_25
REMARK    9  A    between atoms: C10_32  and  N9_33
ROOT
HETATM    1  C1  UNL     1      27.607 -13.682  13.611  1.00  0.00     0.680 A
HETATM    2  N2  UNL     1      27.451 -12.590  12.838  1.00  0.00    -0.154 N
ATOM      3  H2  UNL     1      27.871 -12.585  11.909  1.00  0.00     0.187 HD
HETATM    4  C2  UNL     1      26.762 -11.506  13.242  1.00  0.00     0.290 A
HETATM    5  O1  UNL     1      26.622 -10.493  12.513  1.00  0.00    -0.265 OA
HETATM    6  C3  UNL     1      26.177 -11.476  14.497  1.00  0.00     0.147 A
HETATM    7  N3  UNL     1      25.482 -10.407  14.934  1.00  0.00    -0.345 N
ATOM      8  H3  UNL     1      25.384  -9.597  14.321  1.00  0.00     0.166 HD
HETATM    9  C4  UNL     1      24.907 -10.376  16.165  1.00  0.00     0.110 A
HETATM   10  C10 UNL     1      25.071 -11.492  16.949  1.00  0.00     0.128 A
HETATM   11  N10 UNL     1      25.777 -12.571  16.499  1.00  0.00    -0.325 N
ATOM     12  H10 UNL     1      25.879 -13.383  17.108  1.00  0.00     0.169 HD
HETATM   13  C11 UNL     1      26.340 -12.596  15.284  1.00  0.00     0.155 A
HETATM   14  N11 UNL     1      27.040 -13.659  14.833  1.00  0.00    -0.174 N
ATOM     15  H11 UNL     1      27.144 -14.473  15.439  1.00  0.00     0.186 HD
ENDROOT
BRANCH   9  16
HETATM   16  C5  UNL     1      24.139  -9.172  16.592  1.00  0.00     0.376 C
BRANCH  16  17
HETATM   17  O2  UNL     1      24.476  -8.782  17.879  1.00  0.00    -0.365 OA
ATOM     18  H2  UNL     1      23.707  -8.702  18.432  1.00  0.00     0.212 HD
ENDBRANCH  16  17
BRANCH  16  19
HETATM   19  N4  UNL     1      22.745  -9.224  16.312  1.00  0.00    -0.013 N
ATOM     20  H42 UNL     1      22.437 -10.157  16.037  1.00  0.00     0.283 HD
ATOM     21  H41 UNL     1      22.175  -9.130  17.153  1.00  0.00     0.283 HD
BRANCH  19  22
HETATM   22  C6  UNL     1      22.428  -8.210  15.305  1.00  0.00     0.403 C
BRANCH  22  23
HETATM   23  N5  UNL     1      23.291  -7.044  15.485  1.00  0.00    -0.048 N
ATOM     24  H53 UNL     1      22.918  -6.395  16.178  1.00  0.00     0.276 HD
ATOM     25  H52 UNL     1      24.162  -7.283  15.959  1.00  0.00     0.276 HD
ATOM     26  H51 UNL     1      23.455  -6.592  14.587  1.00  0.00     0.276 HD
ENDBRANCH  22  23
BRANCH  22  27
HETATM   27  C7  UNL     1      21.000  -7.726  15.398  1.00  0.00     0.212 C
BRANCH  27  28
HETATM   28  N6  UNL     1      20.619  -7.273  14.078  1.00  0.00    -0.283 N
HETATM   29  C8  UNL     1      20.362  -6.031  13.704  1.00  0.00     0.201 A
HETATM   30  N7  UNL     1      20.041  -6.016  12.382  1.00  0.00    -0.346 N
HETATM   31  C9  UNL     1      20.114  -7.294  11.982  1.00  0.00     0.198 A
ATOM     32  H7  UNL     1      19.795  -5.204  11.816  1.00  0.00     0.167 HD
HETATM   33  N8  UNL     1      20.470  -8.054  13.033  1.00  0.00    -0.293 N
ATOM     34  H8  UNL     1      20.602  -9.066  13.020  1.00  0.00     0.188 HD
ENDBRANCH  27  28
ENDBRANCH  22  27
ENDBRANCH  19  22
ENDBRANCH  16  19
ENDBRANCH   9  16
BRANCH  10  35
HETATM   35  N9  UNL     1      24.570 -11.549  18.135  1.00  0.00    -0.384 N
ATOM     36  H92 UNL     1      24.152 -10.701  18.519  1.00  0.00     0.157 HD
ATOM     37  H91 UNL     1      24.585 -12.418  18.669  1.00  0.00     0.157 HD
ENDBRANCH  10  35
BRANCH   1  38
HETATM   38  N1  UNL     1      28.268 -14.721  13.222  1.00  0.00    -0.234 N
ATOM     39  H12 UNL     1      28.614 -14.778  12.264  1.00  0.00     0.174 HD
ATOM     40  H11 UNL     1      28.468 -15.509  13.839  1.00  0.00     0.174 HD
ENDBRANCH   1  38
TORSDOF 9
ENDMDL