MODEL 4
REMARK VINA RESULT: -7.238374449      1.129      1.498
REMARK  9 active torsions:
REMARK  status: ('A' for Active; 'I' for Inactive)
REMARK    1  A    between atoms: N1_1  and  C1_5
REMARK    2  A    between atoms: C1_5  and  O1_6
REMARK    3  A    between atoms: C2_13  and  N5_14
REMARK    4  A    between atoms: N5_14  and  C3_16
REMARK    5  A    between atoms: C3_16  and  C4_17
REMARK    6  A    between atoms: C6_23  and  N8_24
REMARK    7  A    between atoms: C7_26  and  C8_27
REMARK    8  A    between atoms: C12_31  and  C13_32
REMARK    9  A    between atoms: C13_32  and  O2_33
ROOT
HETATM    1  C4  UNL     1      24.768  -9.043  16.753  1.00  0.00     0.072 A
HETATM    2  N6  UNL     1      25.059  -9.746  17.837  1.00  0.00    -0.351 N
ATOM      3  H6  UNL     1      25.966 -10.157  18.056  1.00  0.00     0.166 HD
HETATM    4  C5  UNL     1      23.948  -9.825  18.603  1.00  0.00     0.182 A
HETATM    5  N7  UNL     1      22.942  -9.172  18.011  1.00  0.00    -0.337 N
ATOM      6  H7  UNL     1      21.990  -9.067  18.362  1.00  0.00     0.168 HD
HETATM    7  C6  UNL     1      23.441  -8.676  16.851  1.00  0.00     0.130 A
ENDROOT
BRANCH   1   8
HETATM    8  C3  UNL     1      25.612  -8.651  15.584  1.00  0.00     0.184 C
BRANCH   8   9
HETATM    9  N5  UNL     1      26.770  -9.468  15.437  1.00  0.00    -0.349 N
ATOM     10  H5  UNL     1      27.679  -9.052  15.638  1.00  0.00     0.163 HD
BRANCH   9  11
HETATM   11  C2  UNL     1      26.735 -10.830  15.027  1.00  0.00     0.240 C
HETATM   12  N4  UNL     1      26.685 -11.816  15.879  1.00  0.00    -0.253 N
HETATM   13  N3  UNL     1      26.652 -13.132  15.424  1.00  0.00    -0.237 N
ATOM     14  H4  UNL     1      26.671 -11.623  16.881  1.00  0.00     0.191 HD
HETATM   15  N2  UNL     1      26.093 -13.396  14.178  1.00  0.00    -0.029 NA
ATOM     16  H3  UNL     1      27.032 -13.888  15.994  1.00  0.00     0.204 HD
HETATM   17  C1  UNL     1      26.677 -12.502  13.220  1.00  0.00     0.443 C
HETATM   18  O3  UNL     1      26.751 -11.162  13.689  1.00  0.00    -0.242 OA
BRANCH  17  19
HETATM   19  N1  UNL     1      28.012 -12.937  12.937  1.00  0.00    -0.003 N
ATOM     20  H13 UNL     1      28.296 -13.691  13.564  1.00  0.00     0.282 HD
ATOM     21  H12 UNL     1      28.056 -13.439  12.050  1.00  0.00     0.282 HD
ATOM     22  H11 UNL     1      28.680 -12.167  12.960  1.00  0.00     0.282 HD
ENDBRANCH  17  19
BRANCH  17  23
HETATM   23  O1  UNL     1      25.859 -12.525  12.079  1.00  0.00    -0.328 OA
ATOM     24  H1  UNL     1      25.209 -11.833  12.091  1.00  0.00     0.216 HD
ENDBRANCH  17  23
ENDBRANCH   9  11
ENDBRANCH   8   9
ENDBRANCH   1   8
BRANCH   7  25
HETATM   25  N8  UNL     1      22.669  -7.914  15.934  1.00  0.00    -0.348 N
HETATM   26  C7  UNL     1      21.953  -8.456  15.005  1.00  0.00     0.119 C
ATOM     27  H8  UNL     1      22.681  -6.897  16.012  1.00  0.00     0.167 HD
BRANCH  26  28
HETATM   28  C8  UNL     1      21.194  -7.593  14.112  1.00  0.00     0.048 A
HETATM   29  C9  UNL     1      20.513  -8.104  13.035  1.00  0.00     0.031 A
HETATM   30  C10 UNL     1      19.817  -7.206  12.237  1.00  0.00     0.004 A
HETATM   31  C11 UNL     1      19.813  -5.854  12.521  1.00  0.00     0.027 A
HETATM   32  C12 UNL     1      20.515  -5.390  13.619  1.00  0.00     0.033 A
HETATM   33  N9  UNL     1      21.170  -6.273  14.361  1.00  0.00    -0.357 N
ATOM     34  H9  UNL     1      21.687  -5.930  15.170  1.00  0.00     0.166 HD
BRANCH  32  35
HETATM   35  C13 UNL     1      20.540  -3.938  13.966  1.00  0.00     0.221 C
BRANCH  35  36
HETATM   36  O2  UNL     1      21.647  -3.638  14.765  1.00  0.00    -0.395 OA
ATOM     37  H2  UNL     1      21.545  -2.788  15.176  1.00  0.00     0.209 HD
ENDBRANCH  35  36
ENDBRANCH  32  35
ENDBRANCH  26  28
ENDBRANCH   7  25
TORSDOF 9
ENDMDL