MODEL 2
REMARK VINA RESULT: -8.860016850      0.762      1.693
REMARK  11 active torsions:
REMARK  status: ('A' for Active; 'I' for Inactive)
REMARK    1  A    between atoms: C2_2  and  O1_3
REMARK    2  A    between atoms: C2_2  and  C3_5
REMARK    3  A    between atoms: C5_7  and  N1_8
REMARK    4  A    between atoms: N1_8  and  C6_10
REMARK    5  A    between atoms: C6_10  and  O2_11
REMARK    6  A    between atoms: C6_10  and  C7_13
REMARK    7  A    between atoms: C7_13  and  O3_14
REMARK    8  A    between atoms: C7_13  and  C8_16
REMARK    9  A    between atoms: C8_16  and  O4_17
REMARK   10  A    between atoms: C8_16  and  C9_19
REMARK   11  A    between atoms: N6_30  and  N7_31
ROOT
HETATM    1  C6  UNL     1      24.293  -9.745  17.383  1.00  0.00     0.251 C
ENDROOT
BRANCH   1   2
HETATM    2  N1  UNL     1      25.076 -10.310  16.431  1.00  0.00    -0.346 N
ATOM      3  H1  UNL     1      25.412  -9.494  15.918  1.00  0.00     0.163 HD
BRANCH   2   4
HETATM    4  C5  UNL     1      25.619 -11.240  15.826  1.00  0.00     0.133 A
HETATM    5  C4  UNL     1      26.049 -11.248  14.546  1.00  0.00     0.069 A
HETATM    6  C3  UNL     1      26.644 -12.401  14.087  1.00  0.00     0.033 A
HETATM    7  S1  UNL     1      26.587 -13.413  15.461  1.00  0.00     0.009 SA
HETATM    8  N6  UNL     1      25.836 -12.402  16.526  1.00  0.00    -0.214 N
BRANCH   6   9
HETATM    9  C2  UNL     1      27.214 -12.779  12.754  1.00  0.00     0.155 C
HETATM   10  C1  UNL     1      28.320 -13.800  12.985  1.00  0.00     0.045 C
BRANCH   9  11
HETATM   11  O1  UNL     1      27.823 -11.722  12.093  1.00  0.00    -0.391 OA
ATOM     12  H1  UNL     1      27.139 -11.075  11.968  1.00  0.00     0.210 HD
ENDBRANCH   9  11
ENDBRANCH   6   9
BRANCH   8  13
HETATM   13  N7  UNL     1      25.472 -12.604  17.888  1.00  0.00    -0.331 N
ATOM     14  H72 UNL     1      25.444 -13.458  18.445  1.00  0.00     0.178 HD
ATOM     15  H71 UNL     1      25.185 -11.861  18.525  1.00  0.00     0.178 HD
ENDBRANCH   8  13
ENDBRANCH   2   4
ENDBRANCH   1   2
BRANCH   1  16
HETATM   16  O2  UNL     1      25.182  -8.887  18.190  1.00  0.00    -0.374 OA
ATOM     17  H2  UNL     1      26.041  -9.291  18.157  1.00  0.00     0.212 HD
ENDBRANCH   1  16
BRANCH   1  18
HETATM   18  C7  UNL     1      23.253  -8.823  16.855  1.00  0.00     0.201 C
BRANCH  18  19
HETATM   19  O3  UNL     1      23.099  -7.630  17.537  1.00  0.00    -0.388 OA
ATOM     20  H3  UNL     1      23.900  -7.162  17.743  1.00  0.00     0.210 HD
ENDBRANCH  18  19
BRANCH  18  21
HETATM   21  C8  UNL     1      23.349  -8.461  15.389  1.00  0.00     0.205 C
BRANCH  21  22
HETATM   22  O4  UNL     1      22.660  -9.703  14.795  1.00  0.00    -0.387 OA
ATOM     23  H4  UNL     1      21.908  -9.277  14.402  1.00  0.00     0.210 HD
ENDBRANCH  21  22
BRANCH  21  24
HETATM   24  C9  UNL     1      22.438  -7.421  14.889  1.00  0.00     0.099 A
HETATM   25  N2  UNL     1      21.174  -7.496  14.408  1.00  0.00    -0.190 N
HETATM   26  C10 UNL     1      20.848  -6.318  13.866  1.00  0.00     0.677 A
ATOM     27  H2  UNL     1      20.569  -8.316  14.453  1.00  0.00     0.184 HD
HETATM   28  N3  UNL     1      19.720  -6.001  13.265  1.00  0.00    -0.234 N
HETATM   29  N4  UNL     1      21.879  -5.465  13.992  1.00  0.00    -0.177 N
ATOM     30  H32 UNL     1      18.938  -6.649  13.169  1.00  0.00     0.174 HD
ATOM     31  H31 UNL     1      19.472  -5.102  12.851  1.00  0.00     0.174 HD
HETATM   32  C11 UNL     1      22.871  -6.108  14.612  1.00  0.00     0.157 A
ATOM     33  H4  UNL     1      21.900  -4.497  13.671  1.00  0.00     0.185 HD
HETATM   34  N5  UNL     1      24.099  -5.568  15.022  1.00  0.00    -0.080 NA
ENDBRANCH  21  24
ENDBRANCH  18  21
ENDBRANCH   1  18
TORSDOF 11
ENDMDL