MODEL 1
REMARK VINA RESULT: -6.856403497      0.000      0.000
REMARK  8 active torsions:
REMARK  status: ('A' for Active; 'I' for Inactive)
REMARK       I    between atoms: C1_2  and  N5_19
REMARK    1  A    between atoms: N2_3  and  C2_5
REMARK    2  A    between atoms: C2_5  and  C3_6
REMARK    3  A    between atoms: C3_6  and  C4_7
REMARK    4  A    between atoms: C4_7  and  N3_8
REMARK       I    between atoms: N3_8  and  C5_10
REMARK    5  A    between atoms: C5_10  and  C6_12
REMARK    6  A    between atoms: C6_12  and  N4_13
REMARK       I    between atoms: N4_13  and  C7_15
REMARK    7  A    between atoms: C7_15  and  C8_17
REMARK    8  A    between atoms: N5_19  and  C9_21
ROOT
HETATM    1  N1  UNL     1       1.814  -7.772   0.021  1.00  0.00    -0.064 NA
HETATM    2  C1  UNL     1       1.705  -8.711   1.073  1.00  0.00     0.184 C
HETATM    3  N2  UNL     1       1.785  -8.300   2.282  1.00  0.00    -0.365 N
ATOM      4  H2  UNL     1       1.926  -7.304   2.447  1.00  0.00     0.162 HD
HETATM    5  N5  UNL     1       1.511 -10.087   0.818  1.00  0.00    -0.360 N
ATOM      6  H5  UNL     1       1.147 -10.678   1.566  1.00  0.00     0.162 HD
ENDROOT
BRANCH   3   7
HETATM    7  C2  UNL     1       1.687  -9.180   3.432  1.00  0.00     0.123 C
BRANCH   7   8
HETATM    8  C3  UNL     1       2.987  -9.136   4.246  1.00  0.00     0.039 C
BRANCH   8   9
HETATM    9  C4  UNL     1       3.468 -10.545   4.445  1.00  0.00     0.124 C
BRANCH   9  10
HETATM   10  N3  UNL     1       3.932 -11.108   3.210  1.00  0.00    -0.360 N
HETATM   11  C5  UNL     1       5.305 -11.270   2.928  1.00  0.00     0.235 C
HETATM   12  O1  UNL     1       6.193 -10.895   3.770  1.00  0.00    -0.272 OA
ATOM     13  H3  UNL     1       3.247 -11.401   2.514  1.00  0.00     0.162 HD
BRANCH  11  14
HETATM   14  C6  UNL     1       5.847 -11.854   1.689  1.00  0.00     0.225 C
BRANCH  14  15
HETATM   15  N4  UNL     1       7.269 -11.889   1.643  1.00  0.00    -0.352 N
HETATM   16  C7  UNL     1       8.006 -11.609   0.463  1.00  0.00     0.227 C
HETATM   17  O2  UNL     1       7.454 -11.320  -0.622  1.00  0.00    -0.273 OA
ATOM     18  H4  UNL     1       7.780 -12.126   2.493  1.00  0.00     0.162 HD
BRANCH  16  19
HETATM   19  C8  UNL     1       9.508 -11.645   0.454  1.00  0.00     0.187 C
HETATM   20 BR1  UNL     1      10.070 -12.020  -1.344  1.00  0.00    -0.087 Br
ENDBRANCH  16  19
ENDBRANCH  14  15
ENDBRANCH  11  14
ENDBRANCH   9  10
ENDBRANCH   8   9
ENDBRANCH   7   8
ENDBRANCH   3   7
BRANCH   5  21
HETATM   21  C9  UNL     1       1.811 -10.693  -0.474  1.00  0.00     0.084 C
HETATM   22  C10 UNL     1       2.930 -11.645  -0.299  1.00  0.00     0.025 C
HETATM   23  C11 UNL     1       3.961 -11.645  -1.375  1.00  0.00     0.002 C
HETATM   24  C12 UNL     1       3.579 -10.997  -2.654  1.00  0.00     0.000 C
HETATM   25  C13 UNL     1       2.331 -11.482  -3.301  1.00  0.00     0.000 C
HETATM   26  C14 UNL     1       1.758 -12.738  -2.768  1.00  0.00     0.000 C
HETATM   27  C15 UNL     1       0.694 -12.580  -1.733  1.00  0.00     0.002 C
HETATM   28  C16 UNL     1       0.582 -11.238  -1.110  1.00  0.00     0.025 C
ENDBRANCH   5  21
TORSDOF 8
ENDMDL