MODEL 5
REMARK VINA RESULT: -7.378745074      0.987      1.489
REMARK  7 active torsions:
REMARK  status: ('A' for Active; 'I' for Inactive)
REMARK       I    between atoms: C1_4  and  N3_6
REMARK       I    between atoms: C2_8  and  N5_10
REMARK    1  A    between atoms: N5_10  and  C3_12
REMARK    2  A    between atoms: C3_12  and  C4_13
REMARK    3  A    between atoms: N6_16  and  C7_17
REMARK    4  A    between atoms: C7_17  and  C8_18
REMARK    5  A    between atoms: C11_21  and  C12_22
REMARK    6  A    between atoms: C12_22  and  C13_23
REMARK    7  A    between atoms: C13_23  and  C14_24
ROOT
HETATM    1  C4  UNL     1      12.616 -11.481   0.764  1.00  0.00     0.007 C
HETATM    2  C5  UNL     1      12.777 -10.969  -0.637  1.00  0.00     0.036 C
HETATM    3  C6  UNL     1      11.455 -10.570  -1.240  1.00  0.00     0.273 C
HETATM    4  N6  UNL     1      10.444 -11.587  -1.167  1.00  0.00     0.092 N
HETATM    5  C17 UNL     1      11.013 -12.798  -0.606  1.00  0.00     0.273 C
HETATM    6  C18 UNL     1      11.469 -12.477   0.789  1.00  0.00     0.036 C
ENDROOT
BRANCH   1   7
HETATM    7  C3  UNL     1      12.303 -10.397   1.743  1.00  0.00     0.127 C
BRANCH   7   8
HETATM    8  N5  UNL     1      12.963  -9.150   1.511  1.00  0.00    -0.364 N
HETATM    9  C2  UNL     1      13.217  -8.233   2.535  1.00  0.00     0.190 C
HETATM   10  N3  UNL     1      13.663  -7.063   2.203  1.00  0.00    -0.305 N
HETATM   11  N4  UNL     1      12.985  -8.577   3.884  1.00  0.00    -0.063 NA
HETATM   12  C1  UNL     1      13.902  -6.699   0.872  1.00  0.00     0.188 C
ATOM     13  H3  UNL     1      13.846  -6.381   2.939  1.00  0.00     0.171 HD
HETATM   14  N1  UNL     1      12.943  -6.337   0.100  1.00  0.00    -0.373 N
HETATM   15  N2  UNL     1      15.225  -6.730   0.338  1.00  0.00    -0.064 NA
ATOM     16  H12 UNL     1      13.117  -6.072  -0.869  1.00  0.00     0.158 HD
ATOM     17  H11 UNL     1      11.996  -6.315   0.481  1.00  0.00     0.158 HD
ATOM     18  H5  UNL     1      13.261  -8.922   0.562  1.00  0.00     0.162 HD
ENDBRANCH   7   8
ENDBRANCH   1   7
BRANCH   4  19
HETATM   19  C7  UNL     1       9.769 -11.806  -2.424  1.00  0.00     0.311 C
BRANCH  19  20
HETATM   20  C8  UNL     1       8.292 -11.758  -2.261  1.00  0.00    -0.030 A
HETATM   21  C9  UNL     1       7.733 -11.503  -1.006  1.00  0.00     0.009 A
HETATM   22  C10 UNL     1       6.368 -11.458  -0.825  1.00  0.00     0.007 A
HETATM   23  C11 UNL     1       5.478 -11.660  -1.859  1.00  0.00    -0.058 A
HETATM   24  C15 UNL     1       6.026 -11.911  -3.097  1.00  0.00     0.007 A
HETATM   25  C16 UNL     1       7.401 -11.958  -3.294  1.00  0.00     0.009 A
BRANCH  23  26
HETATM   26  C12 UNL     1       4.025 -11.621  -1.650  1.00  0.00     0.039 C
BRANCH  26  27
HETATM   27  C13 UNL     1       3.586 -11.281  -0.264  1.00  0.00     0.015 C
BRANCH  27  28
HETATM   28  C14 UNL     1       2.052 -11.348  -0.285  1.00  0.00     0.085 C
HETATM   29 BR1  UNL     1       1.417 -12.518  -1.667  1.00  0.00    -0.097 Br
ENDBRANCH  27  28
ENDBRANCH  26  27
ENDBRANCH  23  26
ENDBRANCH  19  20
ENDBRANCH   4  19
TORSDOF 7
ENDMDL