MODEL 2
REMARK VINA RESULT: -6.900437339      0.721      1.376
REMARK  9 active torsions:
REMARK  status: ('A' for Active; 'I' for Inactive)
REMARK    1  A    between atoms: C3_3  and  O1_4
REMARK    2  A    between atoms: C4_6  and  C5_7
REMARK    3  A    between atoms: C5_7  and  C6_8
REMARK    4  A    between atoms: C8_12  and  C9_13
REMARK    5  A    between atoms: C9_13  and  C10_14
REMARK    6  A    between atoms: C10_14  and  C11_15
REMARK    7  A    between atoms: C11_15  and  C12_16
REMARK    8  A    between atoms: C12_16  and  C13_17
REMARK    9  A    between atoms: C18_24  and  O2_26
ROOT
HETATM    1  C1  UNL     1       2.834 -11.301  -4.426  1.00  0.00     0.015 C
HETATM    2  C2  UNL     1       2.548 -11.533  -3.298  1.00  0.00    -0.075 C
HETATM    3  C3  UNL     1       2.203 -11.839  -1.932  1.00  0.00     0.155 C
HETATM    4  C4  UNL     1       3.412 -11.764  -1.015  1.00  0.00     0.042 C
HETATM    5  C16 UNL     1       2.775 -11.659   0.334  1.00  0.00     0.028 C
HETATM    6  C17 UNL     1       1.359 -11.167   0.152  1.00  0.00     0.096 C
HETATM    7 BR1  UNL     1       1.138  -9.501   1.089  1.00  0.00    -0.088 Br
HETATM    8  C18 UNL     1       1.198 -10.896  -1.331  1.00  0.00     0.110 C
HETATM    9  C19 UNL     1      -0.177 -11.358  -1.819  1.00  0.00     0.051 C
ENDROOT
BRANCH   3  10
HETATM   10  O1  UNL     1       1.685 -13.139  -1.783  1.00  0.00    -0.374 OA
ATOM     11  H1  UNL     1       2.347 -13.810  -1.898  1.00  0.00     0.212 HD
ENDBRANCH   3  10
BRANCH   4  12
HETATM   12  C5  UNL     1       4.349 -10.685  -1.407  1.00  0.00     0.067 C
BRANCH  12  13
HETATM   13  C6  UNL     1       5.789 -10.985  -1.318  1.00  0.00     0.028 A
HETATM   14  C7  UNL     1       6.488 -10.913  -0.109  1.00  0.00     0.114 A
HETATM   15  N1  UNL     1       7.740 -11.281  -0.372  1.00  0.00    -0.354 N
HETATM   16  C8  UNL     1       7.890 -11.582  -1.658  1.00  0.00     0.083 A
ATOM     17  H1  UNL     1       8.486 -11.326   0.322  1.00  0.00     0.166 HD
HETATM   18  N2  UNL     1       6.685 -11.396  -2.225  1.00  0.00    -0.343 N
HETATM   19  C15 UNL     1       6.447 -11.661  -3.632  1.00  0.00     0.157 C
BRANCH  16  20
HETATM   20  C9  UNL     1       9.143 -12.042  -2.372  1.00  0.00     0.076 C
BRANCH  20  21
HETATM   21  C10 UNL     1      10.363 -11.642  -1.609  1.00  0.00     0.008 C
BRANCH  21  22
HETATM   22  C11 UNL     1      11.062 -12.847  -1.046  1.00  0.00     0.004 C
BRANCH  22  23
HETATM   23  C12 UNL     1      11.109 -13.945  -2.079  1.00  0.00     0.026 C
BRANCH  23  24
HETATM   24  C13 UNL     1      12.499 -14.489  -2.218  1.00  0.00    -0.037 C
HETATM   25  C14 UNL     1      12.675 -15.773  -2.308  1.00  0.00     0.007 C
ENDBRANCH  23  24
ENDBRANCH  22  23
ENDBRANCH  21  22
ENDBRANCH  20  21
ENDBRANCH  16  20
ENDBRANCH  12  13
ENDBRANCH   4  12
BRANCH   8  26
HETATM   26  O2  UNL     1       1.354  -9.579  -1.680  1.00  0.00    -0.385 OA
ATOM     27  H2  UNL     1       1.652  -9.010  -0.981  1.00  0.00     0.210 HD
ENDBRANCH   8  26
TORSDOF 9
ENDMDL