MODEL 4
REMARK VINA RESULT: -7.099383512      1.594      2.594
REMARK  7 active torsions:
REMARK  status: ('A' for Active; 'I' for Inactive)
REMARK       I    between atoms: C2_4  and  N2_5
REMARK       I    between atoms: C2_4  and  N3_16
REMARK    1  A    between atoms: N2_5  and  C3_7
REMARK    2  A    between atoms: C3_7  and  C4_8
REMARK    3  A    between atoms: C5_9  and  C6_10
REMARK    4  A    between atoms: C6_10  and  C7_11
REMARK       I    between atoms: N3_16  and  C12_18
REMARK    5  A    between atoms: C12_18  and  C13_20
REMARK    6  A    between atoms: C13_20  and  C14_21
REMARK    7  A    between atoms: C13_20  and  N4_23
ROOT
HETATM    1  C1  UNL     1       6.309 -11.652  -3.893  1.00  0.00     0.165 C
HETATM    2  N1  UNL     1       5.908 -11.800  -2.518  1.00  0.00    -0.231 N
ATOM      3  H1  UNL     1       4.916 -11.910  -2.307  1.00  0.00     0.177 HD
HETATM    4  C2  UNL     1       6.750 -11.800  -1.544  1.00  0.00     0.676 C
HETATM    5  N2  UNL     1       6.185 -11.960  -0.219  1.00  0.00    -0.223 N
ATOM      6  H2  UNL     1       6.316 -12.821   0.312  1.00  0.00     0.178 HD
HETATM    7  N3  UNL     1       8.150 -11.652  -1.739  1.00  0.00    -0.158 N
ATOM      8  H3  UNL     1       8.504 -11.541  -2.689  1.00  0.00     0.187 HD
HETATM    9  C12 UNL     1       9.063 -11.651  -0.676  1.00  0.00     0.259 C
HETATM   10  O1  UNL     1       8.575 -11.783   0.490  1.00  0.00    -0.270 OA
ENDROOT
BRANCH   5  11
HETATM   11  C3  UNL     1       5.446 -10.878   0.309  1.00  0.00     0.165 C
BRANCH  11  12
HETATM   12  C4  UNL     1       4.022 -11.174   0.525  1.00  0.00    -0.011 C
HETATM   13  C5  UNL     1       3.130 -11.231  -0.423  1.00  0.00    -0.029 C
BRANCH  13  14
HETATM   14  C6  UNL     1       1.698 -11.528  -0.195  1.00  0.00     0.031 C
BRANCH  14  15
HETATM   15  C7  UNL     1       1.049 -12.294  -1.305  1.00  0.00    -0.011 C
HETATM   16  C8  UNL     1       2.160 -12.599  -2.315  1.00  0.00     0.005 C
HETATM   17  C9  UNL     1       2.215 -11.390  -3.193  1.00  0.00     0.000 C
HETATM   18  C10 UNL     1       0.767 -10.984  -3.356  1.00  0.00     0.000 C
HETATM   19  C11 UNL     1       0.116 -11.356  -2.068  1.00  0.00     0.005 C
ENDBRANCH  14  15
ENDBRANCH  13  14
ENDBRANCH  11  12
ENDBRANCH   5  11
BRANCH   9  20
HETATM   20  C13 UNL     1      10.530 -11.512  -0.736  1.00  0.00     0.186 C
BRANCH  20  21
HETATM   21  C14 UNL     1      11.290 -12.779  -0.449  1.00  0.00     0.120 C
HETATM   22 BR1  UNL     1      11.601 -13.843  -2.025  1.00  0.00    -0.094 Br
ENDBRANCH  20  21
BRANCH  20  23
HETATM   23  N4  UNL     1      11.007 -10.395   0.002  1.00  0.00    -0.353 N
HETATM   24  C15 UNL     1      11.916  -9.573  -0.140  1.00  0.00     0.197 C
HETATM   25  N5  UNL     1      12.075  -8.559   0.866  1.00  0.00    -0.067 NA
HETATM   26  N6  UNL     1      12.837  -9.520  -1.206  1.00  0.00    -0.067 NA
ATOM     27  H4  UNL     1      10.467 -10.233   0.853  1.00  0.00     0.162 HD
ENDBRANCH  20  23
ENDBRANCH   9  20
TORSDOF 7
ENDMDL