MODEL 4
REMARK VINA RESULT: -7.100960305      4.608      8.881
REMARK  8 active torsions:
REMARK  status: ('A' for Active; 'I' for Inactive)
REMARK    1  A    between atoms: N3_4  and  C2_6
REMARK    2  A    between atoms: C2_6  and  C3_7
REMARK    3  A    between atoms: C2_6  and  C11_18
REMARK    4  A    between atoms: C3_7  and  C4_8
REMARK       I    between atoms: C4_8  and  N4_10
REMARK    5  A    between atoms: N4_10  and  C5_12
REMARK    6  A    between atoms: C11_18  and  N5_19
REMARK    7  A    between atoms: C11_18  and  C12_23
REMARK    8  A    between atoms: C12_23  and  C13_24
ROOT
HETATM    1  C2  UNL     1       8.308 -11.973  -1.588  1.00  0.00     0.123 C
ENDROOT
BRANCH   1   2
HETATM    2  N3  UNL     1       8.550 -11.279  -0.308  1.00  0.00    -0.360 N
HETATM    3  C1  UNL     1       7.709 -11.387   0.676  1.00  0.00     0.197 C
HETATM    4  N1  UNL     1       6.520 -12.148   0.642  1.00  0.00    -0.067 NA
HETATM    5  N2  UNL     1       8.016 -10.686   1.873  1.00  0.00    -0.067 NA
ATOM      6  H3  UNL     1       9.386 -10.706  -0.196  1.00  0.00     0.162 HD
ENDBRANCH   1   2
BRANCH   1   7
HETATM    7  C3  UNL     1       7.571 -10.994  -2.481  1.00  0.00     0.130 C
BRANCH   7   8
HETATM    8  C4  UNL     1       6.300 -11.508  -3.020  1.00  0.00     0.220 C
HETATM    9  O1  UNL     1       6.284 -12.021  -4.170  1.00  0.00    -0.274 OA
HETATM   10  N4  UNL     1       5.077 -11.447  -2.281  1.00  0.00    -0.356 N
ATOM     11  H4  UNL     1       5.082 -11.029  -1.350  1.00  0.00     0.162 HD
BRANCH  10  12
HETATM   12  C5  UNL     1       3.829 -11.960  -2.817  1.00  0.00     0.084 C
HETATM   13  C6  UNL     1       3.328 -11.143  -3.956  1.00  0.00     0.025 C
HETATM   14  C7  UNL     1       1.852 -11.156  -4.160  1.00  0.00     0.002 C
HETATM   15  C8  UNL     1       1.054 -11.092  -2.884  1.00  0.00     0.000 C
HETATM   16  C9  UNL     1       1.452 -12.350  -2.104  1.00  0.00     0.002 C
HETATM   17  C10 UNL     1       2.883 -12.163  -1.697  1.00  0.00     0.025 C
ENDBRANCH  10  12
ENDBRANCH   7   8
ENDBRANCH   1   7
BRANCH   1  18
HETATM   18  C11 UNL     1       9.610 -12.383  -2.163  1.00  0.00     0.210 C
BRANCH  18  19
HETATM   19  N5  UNL     1      10.058 -11.317  -3.092  1.00  0.00    -0.073 N
ATOM     20  H53 UNL     1       9.328 -11.029  -3.743  1.00  0.00     0.274 HD
ATOM     21  H52 UNL     1      10.188 -10.419  -2.627  1.00  0.00     0.274 HD
ATOM     22  H51 UNL     1      10.902 -11.643  -3.564  1.00  0.00     0.274 HD
ENDBRANCH  18  19
BRANCH  18  23
HETATM   23  C12 UNL     1      10.653 -12.757  -1.194  1.00  0.00     0.073 C
BRANCH  23  24
HETATM   24  C13 UNL     1      11.780 -13.580  -1.610  1.00  0.00    -0.056 A
HETATM   25  C14 UNL     1      13.063 -13.153  -1.352  1.00  0.00     0.008 A
HETATM   26  C15 UNL     1      14.116 -13.914  -1.798  1.00  0.00     0.019 A
HETATM   27  C16 UNL     1      13.943 -15.087  -2.492  1.00  0.00     0.011 A
HETATM   28 BR1  UNL     1      15.425 -16.132  -3.100  1.00  0.00    -0.051 Br
HETATM   29  C17 UNL     1      12.659 -15.520  -2.754  1.00  0.00     0.019 A
HETATM   30  C18 UNL     1      11.611 -14.757  -2.307  1.00  0.00     0.008 A
ENDBRANCH  23  24
ENDBRANCH  18  23
ENDBRANCH   1  18
TORSDOF 8
ENDMDL