MODEL 4
REMARK VINA RESULT: -6.499553573      1.749      1.861
REMARK  11 active torsions:
REMARK  status: ('A' for Active; 'I' for Inactive)
REMARK    1  A    between atoms: C1_4  and  O1_5
REMARK    2  A    between atoms: C1_4  and  N2_7
REMARK    3  A    between atoms: N2_7  and  C2_9
REMARK    4  A    between atoms: C2_9  and  C3_10
REMARK    5  A    between atoms: C6_13  and  C7_14
REMARK    6  A    between atoms: C7_14  and  N3_15
REMARK    7  A    between atoms: N3_15  and  C8_17
REMARK    8  A    between atoms: C8_17  and  N4_19
REMARK    9  A    between atoms: N4_19  and  C9_20
REMARK   10  A    between atoms: N4_19  and  C11_23
REMARK   11  A    between atoms: C9_20  and  C10_21
ROOT
HETATM    1  C3  UNL     1       1.980 -10.425  -0.523  1.00  0.00     0.073 C
HETATM    2  C4  UNL     1       2.027 -11.508  -1.556  1.00  0.00     0.014 C
HETATM    3  C5  UNL     1       3.547 -11.654  -1.760  1.00  0.00     0.014 C
HETATM    4  C6  UNL     1       4.087 -11.619  -0.346  1.00  0.00     0.073 C
HETATM    5  C15 UNL     1       3.059 -10.852   0.433  1.00  0.00     0.138 C
HETATM    6  O2  UNL     1       3.047 -10.593   1.602  1.00  0.00    -0.297 OA
ENDROOT
BRANCH   4   7
HETATM    7  C7  UNL     1       5.359 -10.839  -0.248  1.00  0.00     0.134 C
BRANCH   7   8
HETATM    8  N3  UNL     1       6.564 -11.654  -0.211  1.00  0.00    -0.366 N
ATOM      9  H3  UNL     1       6.676 -12.301   0.570  1.00  0.00     0.161 HD
BRANCH   8  10
HETATM   10  C8  UNL     1       7.578 -11.613  -1.173  1.00  0.00     0.170 C
HETATM   11  S1  UNL     1       7.072 -11.233  -2.728  1.00  0.00    -0.041 SA
BRANCH  10  12
HETATM   12  N4  UNL     1       8.961 -11.880  -0.967  1.00  0.00    -0.353 N
BRANCH  12  13
HETATM   13  C9  UNL     1       9.423 -11.744   0.376  1.00  0.00     0.136 C
BRANCH  13  14
HETATM   14  C10 UNL     1       9.550 -10.341   0.870  1.00  0.00     0.105 C
HETATM   15 BR1  UNL     1      11.306  -9.654   0.885  1.00  0.00    -0.095 Br
ENDBRANCH  13  14
ENDBRANCH  12  13
BRANCH  12  16
HETATM   16  C11 UNL     1       9.770 -12.306  -2.059  1.00  0.00     0.086 C
HETATM   17  C12 UNL     1      10.817 -11.307  -2.505  1.00  0.00     0.025 C
HETATM   18  C13 UNL     1      11.887 -12.235  -2.079  1.00  0.00     0.004 C
HETATM   19  C14 UNL     1      10.867 -13.295  -1.813  1.00  0.00     0.025 C
ENDBRANCH  12  16
ENDBRANCH  10  12
ENDBRANCH   8  10
ENDBRANCH   7   8
ENDBRANCH   4   7
BRANCH   1  20
HETATM   20  C2  UNL     1       0.658 -10.335   0.140  1.00  0.00     0.135 C
BRANCH  20  21
HETATM   21  N2  UNL     1       0.281  -9.016   0.472  1.00  0.00    -0.356 N
ATOM     22  H2  UNL     1      -0.673  -8.745   0.231  1.00  0.00     0.163 HD
BRANCH  21  23
HETATM   23  C1  UNL     1       1.070  -8.031   1.097  1.00  0.00     0.210 C
HETATM   24  N1  UNL     1       1.139  -7.983   2.411  1.00  0.00    -0.366 N
ATOM     25  H12 UNL     1       1.711  -7.270   2.863  1.00  0.00     0.159 HD
ATOM     26  H11 UNL     1       0.599  -8.688   2.912  1.00  0.00     0.159 HD
BRANCH  23  27
HETATM   27  O1  UNL     1       1.802  -7.078   0.418  1.00  0.00    -0.333 OA
ATOM     28  H1  UNL     1       1.305  -6.358   0.048  1.00  0.00     0.220 HD
ENDBRANCH  23  27
ENDBRANCH  21  23
ENDBRANCH  20  21
ENDBRANCH   1  20
TORSDOF 11
ENDMDL