MODEL 3
REMARK VINA RESULT: -7.648076361      5.733      8.750
REMARK  8 active torsions:
REMARK  status: ('A' for Active; 'I' for Inactive)
REMARK    1  A    between atoms: C2_2  and  N1_3
REMARK    2  A    between atoms: C2_2  and  C15_25
REMARK       I    between atoms: N1_3  and  C3_5
REMARK       I    between atoms: C3_5  and  N2_7
REMARK    3  A    between atoms: N2_7  and  C4_9
REMARK    4  A    between atoms: C4_9  and  C5_10
REMARK       I    between atoms: C5_10  and  N3_12
REMARK    5  A    between atoms: N3_12  and  C6_14
REMARK    6  A    between atoms: C6_14  and  C7_15
REMARK    7  A    between atoms: C6_14  and  C14_22
REMARK    8  A    between atoms: C7_15  and  C8_16
ROOT
HETATM    1  C4  UNL     1       8.138 -11.281   1.034  1.00  0.00     0.227 C
ENDROOT
BRANCH   1   2
HETATM    2  N2  UNL     1       6.984 -10.641   0.472  1.00  0.00    -0.334 N
HETATM    3  C3  UNL     1       5.716 -11.274   0.403  1.00  0.00     0.316 C
HETATM    4  N1  UNL     1       4.602 -10.611  -0.178  1.00  0.00    -0.338 N
HETATM    5  O1  UNL     1       5.614 -12.433   0.869  1.00  0.00    -0.247 OA
ATOM      6  H1  UNL     1       4.700  -9.668  -0.555  1.00  0.00     0.164 HD
ATOM      7  H2  UNL     1       7.079  -9.693   0.107  1.00  0.00     0.164 HD
BRANCH   4   8
HETATM    8  C2  UNL     1       3.343 -11.283  -0.227  1.00  0.00     0.087 C
HETATM    9  C1  UNL     1       2.480 -10.890   0.983  1.00  0.00     0.032 C
BRANCH   8  10
HETATM   10  C15 UNL     1       2.519 -10.986  -1.438  1.00  0.00     0.026 C
HETATM   11  C16 UNL     1       3.067 -11.515  -2.713  1.00  0.00     0.008 C
HETATM   12  C17 UNL     1       1.894 -11.388  -3.663  1.00  0.00     0.002 C
HETATM   13  C18 UNL     1       0.657 -11.174  -2.814  1.00  0.00     0.020 C
HETATM   14  C19 UNL     1       1.132 -11.560  -1.405  1.00  0.00     0.088 C
HETATM   15 CL1  UNL     1       1.160 -13.345  -1.318  1.00  0.00    -0.125 Cl
ENDBRANCH   8  10
ENDBRANCH   4   8
ENDBRANCH   1   2
BRANCH   1  16
HETATM   16  C5  UNL     1       9.242 -11.402   0.052  1.00  0.00     0.236 C
HETATM   17  O2  UNL     1       8.997 -11.655  -1.144  1.00  0.00    -0.272 OA
HETATM   18  N3  UNL     1      10.595 -11.230   0.454  1.00  0.00    -0.345 N
ATOM     19  H3  UNL     1      10.816 -11.022   1.428  1.00  0.00     0.163 HD
BRANCH  18  20
HETATM   20  C6  UNL     1      11.641 -11.349  -0.508  1.00  0.00     0.189 C
BRANCH  20  21
HETATM   21  C7  UNL     1      12.693 -12.339  -0.000  1.00  0.00     0.074 C
BRANCH  21  22
HETATM   22  C8  UNL     1      12.718 -13.580  -0.780  1.00  0.00    -0.056 A
HETATM   23  C9  UNL     1      13.691 -14.521  -0.540  1.00  0.00     0.007 A
HETATM   24  C10 UNL     1      13.721 -15.694  -1.269  1.00  0.00     0.001 A
HETATM   25  C11 UNL     1      12.759 -15.927  -2.258  1.00  0.00     0.000 A
HETATM   26  C12 UNL     1      11.784 -14.990  -2.503  1.00  0.00     0.001 A
HETATM   27  C13 UNL     1      11.776 -13.819  -1.754  1.00  0.00     0.007 A
ENDBRANCH  21  22
ENDBRANCH  20  21
BRANCH  20  28
HETATM   28  C14 UNL     1      12.323 -10.076  -0.798  1.00  0.00     0.197 C
HETATM   29  O3  UNL     1      12.030  -8.993  -0.232  1.00  0.00    -0.646 OA
HETATM   30  O4  UNL     1      13.342 -10.044  -1.737  1.00  0.00    -0.646 OA
ENDBRANCH  20  28
ENDBRANCH  18  20
ENDBRANCH   1  16
TORSDOF 8
ENDMDL