MODEL 2
REMARK VINA RESULT: -6.990414419      1.650      2.431
REMARK  9 active torsions:
REMARK  status: ('A' for Active; 'I' for Inactive)
REMARK       I    between atoms: C1_4  and  N3_6
REMARK    1  A    between atoms: N3_6  and  C2_8
REMARK    2  A    between atoms: C2_8  and  C3_9
REMARK    3  A    between atoms: C3_9  and  C4_10
REMARK    4  A    between atoms: C4_10  and  C5_11
REMARK    5  A    between atoms: C5_11  and  N5_15
REMARK    6  A    between atoms: N5_15  and  C6_17
REMARK    7  A    between atoms: C6_17  and  C7_18
REMARK    8  A    between atoms: C7_18  and  N6_19
REMARK    9  A    between atoms: C13_25  and  C14_26
ROOT
HETATM    1  C6  UNL     1       2.965  -8.821   5.393  1.00  0.00     0.149 C
ENDROOT
BRANCH   1   2
HETATM    2  N5  UNL     1       2.201  -8.915   6.610  1.00  0.00    -0.377 N
ATOM      3  H5  UNL     1       2.680  -8.698   7.484  1.00  0.00     0.160 HD
BRANCH   2   4
HETATM    4  C5  UNL     1       0.848  -9.282   6.683  1.00  0.00     0.087 C
HETATM    5  N4  UNL     1       0.394 -10.178   7.471  1.00  0.00    -0.288 N
HETATM    6 CL1  UNL     1      -1.252 -10.653   7.573  1.00  0.00     0.012 Cl
ATOM      7  H4  UNL     1       1.060 -10.648   8.085  1.00  0.00     0.181 HD
BRANCH   4   8
HETATM    8  C4  UNL     1      -0.151  -8.605   5.789  1.00  0.00     0.078 C
BRANCH   8   9
HETATM    9  C3  UNL     1      -0.649  -7.404   6.600  1.00  0.00     0.027 C
BRANCH   9  10
HETATM   10  C2  UNL     1      -2.140  -7.200   6.448  1.00  0.00     0.122 C
BRANCH  10  11
HETATM   11  N3  UNL     1      -2.529  -7.848   5.218  1.00  0.00    -0.365 N
HETATM   12  C1  UNL     1      -3.922  -7.955   4.932  1.00  0.00     0.181 C
HETATM   13  N1  UNL     1      -4.542  -6.863   4.606  1.00  0.00    -0.374 N
HETATM   14  N2  UNL     1      -4.608  -9.190   4.997  1.00  0.00    -0.064 NA
ATOM     15  H12 UNL     1      -5.538  -6.940   4.402  1.00  0.00     0.158 HD
ATOM     16  H11 UNL     1      -4.047  -5.972   4.560  1.00  0.00     0.158 HD
ATOM     17  H3  UNL     1      -1.830  -8.217   4.573  1.00  0.00     0.162 HD
ENDBRANCH  10  11
ENDBRANCH   9  10
ENDBRANCH   8   9
ENDBRANCH   4   8
ENDBRANCH   2   4
ENDBRANCH   1   2
BRANCH   1  18
HETATM   18  C7  UNL     1       3.139 -10.181   4.815  1.00  0.00     0.257 C
BRANCH  18  19
HETATM   19  N6  UNL     1       2.542 -10.318   3.495  1.00  0.00    -0.065 N
HETATM   20  C8  UNL     1       2.312  -8.972   3.021  1.00  0.00     0.238 C
HETATM   21  C9  UNL     1       1.002  -8.980   2.268  1.00  0.00     0.033 C
HETATM   22  C10 UNL     1       1.041 -10.230   1.377  1.00  0.00    -0.003 C
HETATM   23  C11 UNL     1       0.829 -11.402   2.247  1.00  0.00     0.033 C
HETATM   24  C13 UNL     1       2.315 -10.182   0.592  1.00  0.00     0.024 C
HETATM   25  C12 UNL     1       1.281 -11.046   3.660  1.00  0.00     0.238 C
HETATM   26  C20 UNL     1       3.498 -10.778   1.251  1.00  0.00     0.037 C
HETATM   27  C21 UNL     1       3.398 -11.113   2.685  1.00  0.00     0.238 C
BRANCH  24  28
HETATM   28  C14 UNL     1       2.149 -10.720  -0.785  1.00  0.00    -0.054 A
HETATM   29  C15 UNL     1       0.924 -10.726  -1.428  1.00  0.00     0.007 A
HETATM   30  C16 UNL     1       0.863 -11.230  -2.702  1.00  0.00     0.001 A
HETATM   31  C17 UNL     1       1.965 -11.735  -3.379  1.00  0.00     0.000 A
HETATM   32  C18 UNL     1       3.171 -11.714  -2.710  1.00  0.00     0.001 A
HETATM   33  C19 UNL     1       3.288 -11.218  -1.429  1.00  0.00     0.007 A
ENDBRANCH  24  28
ENDBRANCH  18  19
ENDBRANCH   1  18
TORSDOF 9
ENDMDL