MODEL 4
REMARK VINA RESULT: -7.632110449      3.274      9.060
REMARK  7 active torsions:
REMARK  status: ('A' for Active; 'I' for Inactive)
REMARK    1  A    between atoms: C1_2  and  C2_4
REMARK    2  A    between atoms: C2_4  and  N2_5
REMARK       I    between atoms: N2_5  and  C3_7
REMARK    3  A    between atoms: C3_7  and  C4_9
REMARK    4  A    between atoms: C4_9  and  C5_10
REMARK    5  A    between atoms: C4_9  and  N3_17
REMARK    6  A    between atoms: C5_10  and  C6_11
REMARK       I    between atoms: N3_17  and  C12_19
REMARK       I    between atoms: C12_19  and  N4_21
REMARK    7  A    between atoms: N4_21  and  C13_23
ROOT
HETATM    1  C4  UNL     1       5.937 -11.266  -1.992  1.00  0.00     0.182 C
ENDROOT
BRANCH   1   2
HETATM    2  C3  UNL     1       4.987 -11.298  -3.094  1.00  0.00     0.241 C
HETATM    3  N2  UNL     1       3.592 -11.344  -2.860  1.00  0.00    -0.351 N
ATOM      4  H2  UNL     1       3.280 -11.351  -1.888  1.00  0.00     0.163 HD
HETATM    5  O2  UNL     1       5.385 -11.279  -4.284  1.00  0.00    -0.271 OA
BRANCH   3   6
HETATM    6  C2  UNL     1       2.580 -11.380  -3.876  1.00  0.00     0.222 C
BRANCH   6   7
HETATM    7  C1  UNL     1       1.236 -11.273  -3.301  1.00  0.00     0.248 C
HETATM    8  N1  UNL     1       0.899 -12.183  -2.251  1.00  0.00    -0.061 NA
HETATM    9  O1  UNL     1       0.407 -10.428  -3.701  1.00  0.00    -0.275 OA
ENDBRANCH   6   7
ENDBRANCH   3   6
ENDBRANCH   1   2
BRANCH   1  10
HETATM   10  C5  UNL     1       5.745 -12.220  -0.871  1.00  0.00     0.073 C
BRANCH  10  11
HETATM   11  C6  UNL     1       5.069 -11.769   0.331  1.00  0.00    -0.056 A
HETATM   12  C7  UNL     1       3.826 -11.175   0.303  1.00  0.00     0.007 A
HETATM   13  C8  UNL     1       3.175 -10.739   1.437  1.00  0.00     0.001 A
HETATM   14  C9  UNL     1       3.760 -10.887   2.675  1.00  0.00     0.000 A
HETATM   15  C10 UNL     1       5.003 -11.478   2.729  1.00  0.00     0.001 A
HETATM   16  C11 UNL     1       5.654 -11.913   1.595  1.00  0.00     0.007 A
ENDBRANCH  10  11
ENDBRANCH   1  10
BRANCH   1  17
HETATM   17  N3  UNL     1       7.244 -11.660  -2.586  1.00  0.00    -0.330 N
HETATM   18  C12 UNL     1       8.423 -11.634  -1.825  1.00  0.00     0.317 C
HETATM   19  O3  UNL     1       8.326 -11.261  -0.614  1.00  0.00    -0.247 OA
HETATM   20  N4  UNL     1       9.664 -12.007  -2.393  1.00  0.00    -0.338 N
ATOM     21  H4  UNL     1       9.710 -12.300  -3.370  1.00  0.00     0.164 HD
ATOM     22  H3  UNL     1       7.284 -11.954  -3.562  1.00  0.00     0.165 HD
BRANCH  20  23
HETATM   23  C13 UNL     1      10.843 -11.975  -1.608  1.00  0.00     0.094 C
HETATM   24  C14 UNL     1      12.040 -11.410  -2.360  1.00  0.00     0.009 C
HETATM   25  C15 UNL     1      13.092 -11.118  -1.295  1.00  0.00     0.011 C
HETATM   26  C19 UNL     1      12.624 -12.375  -3.335  1.00  0.00     0.011 C
HETATM   27  C16 UNL     1      13.432 -12.358  -0.530  1.00  0.00    -0.013 C
HETATM   28  C17 UNL     1      14.034 -13.354  -1.520  1.00  0.00     0.009 C
HETATM   29  C22 UNL     1      12.226 -13.028   0.078  1.00  0.00     0.011 C
HETATM   30  C18 UNL     1      13.042 -13.635  -2.612  1.00  0.00    -0.013 C
HETATM   31  C20 UNL     1      11.809 -14.252  -2.017  1.00  0.00     0.011 C
HETATM   32  C21 UNL     1      11.216 -13.316  -1.014  1.00  0.00     0.009 C
ENDBRANCH  20  23
ENDBRANCH   1  17
TORSDOF 7
ENDMDL