MODEL 2
REMARK VINA RESULT: -5.993194146      4.225      7.666
REMARK  9 active torsions:
REMARK  status: ('A' for Active; 'I' for Inactive)
REMARK       I    between atoms: C1_4  and  N2_5
REMARK       I    between atoms: C1_4  and  N3_12
REMARK    1  A    between atoms: N2_5  and  C2_7
REMARK    2  A    between atoms: C2_7  and  C3_8
REMARK    3  A    between atoms: C3_8  and  C4_9
REMARK    4  A    between atoms: C4_9  and  C5_10
REMARK    5  A    between atoms: C9_16  and  C10_17
REMARK    6  A    between atoms: C10_17  and  N4_18
REMARK    7  A    between atoms: N4_18  and  C11_20
REMARK    8  A    between atoms: C11_20  and  N5_22
REMARK    9  A    between atoms: N5_22  and  C12_24
ROOT
HETATM    1  N1  UNL     1      -0.008  -9.716   0.127  1.00  0.00    -0.235 N
ATOM      2  H11 UNL     1      -0.682  -9.216   0.708  1.00  0.00     0.174 HD
ATOM      3  H12 UNL     1      -0.168  -9.742  -0.880  1.00  0.00     0.174 HD
HETATM    4  C1  UNL     1       0.959 -10.258   0.715  1.00  0.00     0.670 C
HETATM    5  N2  UNL     1       1.915 -10.965  -0.109  1.00  0.00    -0.227 N
ATOM      6  H2  UNL     1       2.612 -11.562   0.335  1.00  0.00     0.177 HD
HETATM    7  N3  UNL     1       1.180 -10.222   2.101  1.00  0.00    -0.209 N
HETATM    8  C6  UNL     1       1.820  -9.102   2.808  1.00  0.00     0.142 C
HETATM    9  C7  UNL     1       2.852  -9.925   3.596  1.00  0.00     0.023 C
HETATM   10  C8  UNL     1       2.041 -11.063   4.119  1.00  0.00     0.033 C
HETATM   11  C9  UNL     1       0.946 -11.262   3.029  1.00  0.00     0.140 C
ENDROOT
BRANCH  11  12
HETATM   12  C10 UNL     1      -0.340 -11.528   3.673  1.00  0.00     0.089 C
BRANCH  12  13
HETATM   13  N4  UNL     1      -1.184 -10.473   4.033  1.00  0.00    -0.345 N
ATOM     14  H4  UNL     1      -1.902 -10.303   3.329  1.00  0.00     0.167 HD
BRANCH  13  15
HETATM   15  C11 UNL     1      -1.294  -9.595   5.109  1.00  0.00     0.171 C
HETATM   16  S1  UNL     1      -0.696  -9.881   6.576  1.00  0.00    -0.041 SA
BRANCH  15  17
HETATM   17  N5  UNL     1      -1.927  -8.322   4.914  1.00  0.00    -0.362 N
ATOM     18  H5  UNL     1      -1.447  -7.578   4.409  1.00  0.00     0.162 HD
BRANCH  17  19
HETATM   19  C12 UNL     1      -3.234  -8.114   5.438  1.00  0.00     0.083 C
HETATM   20  C13 UNL     1      -4.188  -9.299   5.203  1.00  0.00     0.025 C
HETATM   21  C14 UNL     1      -5.293  -8.241   5.089  1.00  0.00     0.004 C
HETATM   22  C15 UNL     1      -4.192  -7.328   4.535  1.00  0.00     0.025 C
ENDBRANCH  17  19
ENDBRANCH  15  17
ENDBRANCH  13  15
ENDBRANCH  12  13
ENDBRANCH  11  12
BRANCH   5  23
HETATM   23  C2  UNL     1       1.903 -10.845  -1.543  1.00  0.00     0.138 C
BRANCH  23  24
HETATM   24  C3  UNL     1       3.146 -11.486  -2.108  1.00  0.00     0.021 C
BRANCH  24  25
HETATM   25  C4  UNL     1       4.272 -11.488  -1.074  1.00  0.00     0.012 C
BRANCH  25  26
HETATM   26  C5  UNL     1       5.563 -11.870  -1.724  1.00  0.00     0.085 C
HETATM   27 BR1  UNL     1       5.514 -11.215  -3.552  1.00  0.00    -0.097 Br
ENDBRANCH  25  26
ENDBRANCH  24  25
ENDBRANCH  23  24
ENDBRANCH   5  23
TORSDOF 9
ENDMDL