MODEL 3
REMARK VINA RESULT: -3.706180711      1.205      1.344
REMARK  0 active torsions:
REMARK  status: ('A' for Active; 'I' for Inactive)
REMARK       I    between atoms: C1_2  and  N1_4
ROOT
HETATM    1  O1  UNL     1      -0.771 -22.369  -6.534  1.00  0.00    -0.629 OA
HETATM    2  C1  UNL     1      -0.066 -23.011  -5.717  1.00  0.00     0.294 C
HETATM    3  O2  UNL     1       1.092 -22.458  -5.230  1.00  0.00    -0.629 OA
HETATM    4  N1  UNL     1      -0.503 -24.288  -5.333  1.00  0.00    -0.264 N
ATOM      5  H1  UNL     1       0.062 -24.818  -4.669  1.00  0.00     0.181 HD
HETATM    6  S1  UNL     1      -1.973 -25.014  -5.941  1.00  0.00     0.047 SA
ENDROOT
TORSDOF 0
ENDMDL