MODEL 4
REMARK VINA RESULT: -3.953674131      1.006      2.037
REMARK  1 active torsions:
REMARK  status: ('A' for Active; 'I' for Inactive)
REMARK    1  A    between atoms: N1_2  and  C2_4
ROOT
HETATM    1  C2  UNL     1      -1.235 -24.010  -5.295  1.00  0.00     0.177 C
HETATM    2  N2  UNL     1      -1.771 -24.583  -4.280  1.00  0.00    -0.377 N
ATOM      3  H21 UNL     1      -2.780 -24.492  -4.161  1.00  0.00     0.158 HD
ATOM      4  H22 UNL     1      -1.248 -25.121  -3.589  1.00  0.00     0.158 HD
HETATM    5  C3  UNL     1      -1.972 -23.252  -6.267  1.00  0.00     0.136 C
HETATM    6  N3  UNL     1      -2.570 -22.632  -7.037  1.00  0.00    -0.188 NA
ENDROOT
BRANCH   1   7
HETATM    7  N1  UNL     1       0.180 -24.137  -5.462  1.00  0.00    -0.372 N
HETATM    8  C1  UNL     1       0.930 -22.916  -5.624  1.00  0.00     0.148 C
ATOM      9  H1  UNL     1       0.637 -25.049  -5.466  1.00  0.00     0.161 HD
ENDBRANCH   1   7
TORSDOF 1
ENDMDL