MODEL 5
REMARK VINA RESULT: -3.310193944      2.650      3.334
REMARK  1 active torsions:
REMARK  status: ('A' for Active; 'I' for Inactive)
REMARK    1  A    between atoms: C2_2  and  O1_3
ROOT
HETATM    1  C1  UNL     1       0.587 -23.411  -5.614  1.00  0.00     0.081 C
HETATM    2  C2  UNL     1      -0.910 -23.417  -5.847  1.00  0.00     0.179 A
HETATM    3  C3  UNL     1      -1.786 -24.237  -5.053  1.00  0.00     0.239 A
HETATM    4  O2  UNL     1      -1.384 -24.723  -6.419  1.00  0.00    -0.348 OA
ENDROOT
BRANCH   2   5
HETATM    5  O1  UNL     1      -1.459 -22.408  -6.605  1.00  0.00    -0.364 OA
ATOM      6  H1  UNL     1      -1.508 -21.536  -6.230  1.00  0.00     0.213 HD
ENDBRANCH   2   5
TORSDOF 1
ENDMDL