MODEL 3
REMARK VINA RESULT: -3.141752171      1.716      1.716
REMARK  0 active torsions:
REMARK  status: ('A' for Active; 'I' for Inactive)
ROOT
HETATM    1  O1  UNL     1       0.416 -22.089  -5.936  1.00  0.00    -0.635 OA
HETATM    2  C1  UNL     1      -0.378 -23.211  -6.046  1.00  0.00     0.274 C
HETATM    3  O2  UNL     1       0.141 -24.427  -5.659  1.00  0.00    -0.635 OA
HETATM    4  S1  UNL     1      -1.889 -23.072  -6.622  1.00  0.00    -0.004 SA
ENDROOT
TORSDOF 0
ENDMDL