MODEL 4
REMARK VINA RESULT: -4.035492295      5.697      6.967
REMARK  2 active torsions:
REMARK  status: ('A' for Active; 'I' for Inactive)
REMARK    1  A    between atoms: N1_2  and  O1_3
REMARK    2  A    between atoms: O1_3  and  C2_4
ROOT
HETATM    1  C2  UNL     1      -1.635 -23.276  -6.335  1.00  0.00     0.131 C
HETATM    2  C3  UNL     1      -1.821 -24.178  -5.171  1.00  0.00     0.099 C
HETATM    3  N2  UNL     1      -2.654 -22.830  -6.985  1.00  0.00    -0.382 N
ATOM      4  H21 UNL     1      -3.577 -23.125  -6.666  1.00  0.00     0.158 HD
ATOM      5  H22 UNL     1      -2.525 -22.210  -7.785  1.00  0.00     0.158 HD
ENDROOT
BRANCH   1   6
HETATM    6  O1  UNL     1      -0.378 -22.876  -6.771  1.00  0.00    -0.232 OA
BRANCH   6   7
HETATM    7  N1  UNL     1       0.511 -22.198  -5.961  1.00  0.00    -0.098 NA
HETATM    8  C1  UNL     1       1.654 -22.970  -5.598  1.00  0.00     0.168 C
ENDBRANCH   6   7
ENDBRANCH   1   6
TORSDOF 2
ENDMDL