MODEL 3
REMARK VINA RESULT: -3.487364997      2.556      2.813
REMARK  1 active torsions:
REMARK  status: ('A' for Active; 'I' for Inactive)
REMARK    1  A    between atoms: C2_2  and  N2_6
ROOT
HETATM    1  C1  UNL     1       1.573 -22.641  -5.846  1.00  0.00     0.089 C
HETATM    2  C2  UNL     1       0.217 -23.273  -5.859  1.00  0.00     0.077 C
HETATM    3  N1  UNL     1       0.039 -24.400  -5.238  1.00  0.00    -0.389 N
ATOM      4  H11 UNL     1      -0.885 -24.830  -5.247  1.00  0.00     0.157 HD
ATOM      5  H12 UNL     1       0.811 -24.851  -4.746  1.00  0.00     0.157 HD
ENDROOT
BRANCH   2   6
HETATM    6  N2  UNL     1      -0.852 -22.649  -6.539  1.00  0.00    -0.310 N
HETATM    7  S1  UNL     1      -2.419 -23.419  -6.718  1.00  0.00     0.043 SA
ATOM      8  H2  UNL     1      -0.708 -21.722  -6.940  1.00  0.00     0.176 HD
ENDBRANCH   2   6
TORSDOF 1
ENDMDL