MODEL 2
REMARK VINA RESULT: -4.393792591      1.271      2.677
REMARK  2 active torsions:
REMARK  status: ('A' for Active; 'I' for Inactive)
REMARK    1  A    between atoms: C2_2  and  O1_3
REMARK    2  A    between atoms: C2_2  and  C3_5
ROOT
HETATM    1  C1  UNL     1      -1.270 -23.059  -6.461  1.00  0.00     0.058 C
HETATM    2  C2  UNL     1      -0.171 -23.499  -5.902  1.00  0.00     0.133 C
ENDROOT
BRANCH   2   3
HETATM    3  O1  UNL     1      -0.129 -24.818  -5.467  1.00  0.00    -0.355 OA
ATOM      4  H1  UNL     1      -0.931 -25.217  -5.151  1.00  0.00     0.218 HD
ENDBRANCH   2   3
BRANCH   2   5
HETATM    5  C3  UNL     1       0.982 -22.624  -5.740  1.00  0.00     0.232 C
HETATM    6  O2  UNL     1       1.325 -22.252  -4.599  1.00  0.00    -0.642 OA
HETATM    7  O3  UNL     1       1.691 -22.205  -6.834  1.00  0.00    -0.642 OA
ENDBRANCH   2   5
TORSDOF 2
ENDMDL