MODEL 2
REMARK VINA RESULT: -3.800101517      1.425      1.934
REMARK  2 active torsions:
REMARK  status: ('A' for Active; 'I' for Inactive)
REMARK    1  A    between atoms: O1_1  and  C1_3
REMARK    2  A    between atoms: C3_5  and  O2_6
ROOT
HETATM    1  C1  UNL     1       0.101 -23.822  -5.689  1.00  0.00     0.149 A
HETATM    2  C2  UNL     1       0.160 -22.567  -6.463  1.00  0.00     0.068 A
HETATM    3  C3  UNL     1       1.243 -22.837  -5.534  1.00  0.00     0.149 A
ENDROOT
BRANCH   1   4
HETATM    4  O1  UNL     1      -0.863 -23.900  -4.692  1.00  0.00    -0.393 OA
ATOM      5  H1  UNL     1      -0.673 -23.454  -3.875  1.00  0.00     0.210 HD
ENDBRANCH   1   4
BRANCH   3   6
HETATM    6  O2  UNL     1       1.299 -22.281  -4.249  1.00  0.00    -0.393 OA
ATOM      7  H2  UNL     1       1.786 -22.822  -3.639  1.00  0.00     0.210 HD
ENDBRANCH   3   6
TORSDOF 2
ENDMDL