MODEL 4
REMARK VINA RESULT: -4.943839539      1.847      3.128
REMARK  3 active torsions:
REMARK  status: ('A' for Active; 'I' for Inactive)
REMARK    1  A    between atoms: C1_4  and  O1_5
REMARK    2  A    between atoms: C1_4  and  N2_7
REMARK    3  A    between atoms: C2_9  and  O2_10
ROOT
HETATM    1  N1  UNL     1      -1.545 -24.151  -4.764  1.00  0.00    -0.365 N
ATOM      2  H11 UNL     1      -1.231 -24.732  -3.986  1.00  0.00     0.159 HD
ATOM      3  H12 UNL     1      -2.537 -23.956  -4.899  1.00  0.00     0.159 HD
HETATM    4  C1  UNL     1      -0.716 -23.628  -5.615  1.00  0.00     0.215 C
ENDROOT
BRANCH   4   5
HETATM    5  O1  UNL     1      -1.140 -22.842  -6.663  1.00  0.00    -0.333 OA
ATOM      6  H1  UNL     1      -0.540 -22.308  -7.170  1.00  0.00     0.220 HD
ENDBRANCH   4   5
BRANCH   4   7
HETATM    7  N2  UNL     1       0.667 -23.898  -5.427  1.00  0.00    -0.314 N
HETATM    8  C2  UNL     1       1.576 -22.991  -5.571  1.00  0.00     0.226 C
ATOM      9  H2  UNL     1       0.952 -24.843  -5.169  1.00  0.00     0.170 HD
BRANCH   8  10
HETATM   10  O2  UNL     1       1.214 -21.707  -5.922  1.00  0.00    -0.356 OA
ATOM     11  H2  UNL     1       1.748 -20.972  -5.642  1.00  0.00     0.218 HD
ENDBRANCH   8  10
ENDBRANCH   4   7
TORSDOF 3
ENDMDL