MODEL 5
REMARK VINA RESULT: -3.282507872      0.730      1.397
REMARK  1 active torsions:
REMARK  status: ('A' for Active; 'I' for Inactive)
REMARK    1  A    between atoms: O1_1  and  C1_3
ROOT
HETATM    1  C1  UNL     1      -2.821 -24.850  -3.562  1.00  0.00     0.118 C
HETATM    2  C2  UNL     1      -3.634 -25.859  -4.373  1.00  0.00     0.032 C
HETATM    3  C3  UNL     1      -4.544 -24.679  -4.727  1.00  0.00     0.005 C
HETATM    4  C4  UNL     1      -4.137 -24.085  -3.381  1.00  0.00     0.032 C
ENDROOT
BRANCH   1   5
HETATM    5  O1  UNL     1      -2.305 -25.334  -2.383  1.00  0.00    -0.396 OA
ATOM      6  H1  UNL     1      -2.107 -26.263  -2.382  1.00  0.00     0.210 HD
ENDBRANCH   1   5
TORSDOF 1
ENDMDL