MODEL 3
REMARK VINA RESULT: -7.018767835      1.453      5.763
REMARK  4 active torsions:
REMARK  status: ('A' for Active; 'I' for Inactive)
REMARK    1  A    between atoms: N1_1  and  C1_4
REMARK    2  A    between atoms: C2_7  and  S1_8
REMARK    3  A    between atoms: S1_8  and  C3_10
REMARK    4  A    between atoms: C4_15  and  N5_16
ROOT
HETATM    1  S1  UNL     1      25.074   5.645  33.683  1.00  0.00     0.146 S
HETATM    2  O1  UNL     1      24.766   5.913  32.055  1.00  0.00    -0.242 OA
ENDROOT
BRANCH   1   3
HETATM    3  C2  UNL     1      25.503   7.110  34.511  1.00  0.00     0.211 A
HETATM    4  N2  UNL     1      24.710   7.939  35.209  1.00  0.00    -0.165 N
HETATM    5  C1  UNL     1      25.469   8.943  35.674  1.00  0.00     0.692 A
ATOM      6  H2  UNL     1      23.707   7.825  35.359  1.00  0.00     0.186 HD
HETATM    7  N7  UNL     1      26.753   8.746  35.266  1.00  0.00    -0.130 N
HETATM    8  N6  UNL     1      26.754   7.614  34.554  1.00  0.00    -0.263 N
ATOM      9  H7  UNL     1      27.555   9.344  35.465  1.00  0.00     0.205 HD
ATOM     10  H6  UNL     1      27.572   7.197  34.112  1.00  0.00     0.189 HD
BRANCH   5  11
HETATM   11  N1  UNL     1      25.089   9.943  36.388  1.00  0.00    -0.233 N
ATOM     12  H12 UNL     1      24.549   9.854  37.249  1.00  0.00     0.174 HD
ATOM     13  H11 UNL     1      25.262  10.933  36.211  1.00  0.00     0.174 HD
ENDBRANCH   5  11
ENDBRANCH   1   3
BRANCH   1  14
HETATM   14  C3  UNL     1      26.366   4.440  33.790  1.00  0.00     0.168 A
HETATM   15  N3  UNL     1      27.622   4.517  33.439  1.00  0.00    -0.284 N
HETATM   16  N4  UNL     1      28.418   3.539  33.592  1.00  0.00    -0.279 N
ATOM     17  H3  UNL     1      27.971   5.384  33.032  1.00  0.00     0.188 HD
HETATM   18  C4  UNL     1      27.941   2.410  34.128  1.00  0.00     0.159 A
ATOM     19  H4  UNL     1      29.396   3.612  33.314  1.00  0.00     0.189 HD
HETATM   20  S2  UNL     1      26.306   2.823  34.398  1.00  0.00    -0.024 SA
BRANCH  18  21
HETATM   21  N5  UNL     1      28.575   1.292  34.374  1.00  0.00    -0.379 N
ATOM     22  H52 UNL     1      28.805   0.520  33.748  1.00  0.00     0.158 HD
ATOM     23  H51 UNL     1      28.970   0.966  35.255  1.00  0.00     0.158 HD
ENDBRANCH  18  21
ENDBRANCH   1  14
TORSDOF 4
ENDMDL