MODEL 4
REMARK VINA RESULT: -6.997268619      3.590      6.028
REMARK  4 active torsions:
REMARK  status: ('A' for Active; 'I' for Inactive)
REMARK    1  A    between atoms: C4_9  and  S1_10
REMARK    2  A    between atoms: S1_10  and  C5_11
REMARK    3  A    between atoms: C6_14  and  N4_15
REMARK    4  A    between atoms: C7_20  and  N6_21
ROOT
HETATM    1  C5  UNL     1      25.249   3.194  31.749  1.00  0.00     0.179 A
HETATM    2  N3  UNL     1      26.546   2.924  31.513  1.00  0.00    -0.169 N
ATOM      3  H3  UNL     1      26.996   3.315  30.685  1.00  0.00     0.186 HD
HETATM    4  C6  UNL     1      27.266   2.141  32.357  1.00  0.00     0.692 A
HETATM    5  N5  UNL     1      26.705   1.607  33.461  1.00  0.00    -0.023 N
ATOM      6  H5  UNL     1      27.247   1.019  34.094  1.00  0.00     0.203 HD
HETATM    7  C7  UNL     1      25.418   1.872  33.699  1.00  0.00     0.692 A
HETATM    8  N7  UNL     1      24.709   2.648  32.860  1.00  0.00    -0.169 N
ATOM      9  H7  UNL     1      23.728   2.831  33.070  1.00  0.00     0.186 HD
ENDROOT
BRANCH   1  10
HETATM   10  S1  UNL     1      24.290   4.225  30.643  1.00  0.00    -0.045 SA
BRANCH  10  11
HETATM   11  C4  UNL     1      22.755   4.734  31.392  1.00  0.00     0.101 A
HETATM   12  C2  UNL     1      21.485   4.325  31.025  1.00  0.00     0.044 A
HETATM   13  C1  UNL     1      21.167   3.388  29.937  1.00  0.00     0.071 C
HETATM   14  N1  UNL     1      20.620   4.937  31.834  1.00  0.00    -0.301 N
HETATM   15  N2  UNL     1      21.288   5.692  32.670  1.00  0.00    -0.265 N
ATOM     16  H1  UNL     1      19.606   4.834  31.807  1.00  0.00     0.186 HD
HETATM   17  C3  UNL     1      22.615   5.609  32.448  1.00  0.00     0.279 A
ATOM     18  H2  UNL     1      20.860   6.267  33.395  1.00  0.00     0.190 HD
HETATM   19  O1  UNL     1      23.558   6.187  33.048  1.00  0.00    -0.265 OA
ENDBRANCH  10  11
ENDBRANCH   1  10
BRANCH   4  20
HETATM   20  N4  UNL     1      28.507   1.923  32.070  1.00  0.00    -0.234 N
ATOM     21  H42 UNL     1      29.125   1.457  32.734  1.00  0.00     0.174 HD
ATOM     22  H41 UNL     1      28.848   2.232  31.160  1.00  0.00     0.174 HD
ENDBRANCH   4  20
BRANCH   7  23
HETATM   23  N6  UNL     1      24.844   1.388  34.732  1.00  0.00    -0.234 N
ATOM     24  H62 UNL     1      24.097   0.704  34.610  1.00  0.00     0.174 HD
ATOM     25  H61 UNL     1      25.131   1.685  35.664  1.00  0.00     0.174 HD
ENDBRANCH   7  23
TORSDOF 4
ENDMDL