MODEL 5
REMARK VINA RESULT: -6.471642589      2.210      6.764
REMARK  4 active torsions:
REMARK  status: ('A' for Active; 'I' for Inactive)
REMARK    1  A    between atoms: N1_3  and  N2_5
REMARK       I    between atoms: N2_5  and  C3_7
REMARK       I    between atoms: C3_7  and  N3_9
REMARK    2  A    between atoms: N3_9  and  C4_11
REMARK    3  A    between atoms: C5_14  and  N5_15
REMARK    4  A    between atoms: C6_20  and  N7_21
ROOT
HETATM    1  C4  UNL     1      23.761   7.949  34.582  1.00  0.00     0.149 A
HETATM    2  N4  UNL     1      22.622   7.586  33.968  1.00  0.00    -0.175 N
ATOM      3  H4  UNL     1      22.557   6.650  33.569  1.00  0.00     0.186 HD
HETATM    4  C5  UNL     1      21.546   8.425  33.859  1.00  0.00     0.679 A
HETATM    5  N6  UNL     1      21.552   9.668  34.357  1.00  0.00    -0.176 N
ATOM      6  H6  UNL     1      20.743  10.284  34.268  1.00  0.00     0.186 HD
HETATM    7  C6  UNL     1      22.669  10.063  34.975  1.00  0.00     0.139 A
HETATM    8  C7  UNL     1      23.757   9.250  35.100  1.00  0.00     0.133 A
HETATM    9  C8  UNL     1      24.944   9.699  35.768  1.00  0.00     0.107 C
HETATM   10  N8  UNL     1      25.919  10.069  36.304  1.00  0.00    -0.191 NA
ENDROOT
BRANCH   1  11
HETATM   11  N3  UNL     1      24.902   7.123  34.723  1.00  0.00    -0.292 N
HETATM   12  C3  UNL     1      25.404   6.172  33.833  1.00  0.00     0.340 C
HETATM   13  N2  UNL     1      26.596   5.440  34.193  1.00  0.00    -0.252 N
HETATM   14  O1  UNL     1      24.928   5.869  32.730  1.00  0.00    -0.245 OA
ATOM     15  H2  UNL     1      27.032   5.647  35.092  1.00  0.00     0.191 HD
ATOM     16  H3  UNL     1      25.428   7.239  35.590  1.00  0.00     0.172 HD
BRANCH  13  17
HETATM   17  N1  UNL     1      27.180   4.479  33.396  1.00  0.00    -0.312 N
HETATM   18  C2  UNL     1      27.258   3.246  33.782  1.00  0.00     0.076 C
HETATM   19  C1  UNL     1      27.894   2.234  32.897  1.00  0.00     0.056 C
ATOM     20  H1  UNL     1      27.558   4.744  32.487  1.00  0.00     0.185 HD
ENDBRANCH  13  17
ENDBRANCH   1  11
BRANCH   7  21
HETATM   21  N7  UNL     1      22.750  11.255  35.483  1.00  0.00    -0.384 N
ATOM     22  H72 UNL     1      22.042  11.524  36.168  1.00  0.00     0.157 HD
ATOM     23  H71 UNL     1      23.499  11.886  35.198  1.00  0.00     0.157 HD
ENDBRANCH   7  21
BRANCH   4  24
HETATM   24  N5  UNL     1      20.498   8.008  33.261  1.00  0.00    -0.234 N
ATOM     25  H52 UNL     1      20.525   7.099  32.800  1.00  0.00     0.174 HD
ATOM     26  H51 UNL     1      19.665   8.596  33.261  1.00  0.00     0.174 HD
ENDBRANCH   4  24
TORSDOF 4
ENDMDL