MODEL 5
REMARK VINA RESULT: -6.108134120      3.101      6.069
REMARK  4 active torsions:
REMARK  status: ('A' for Active; 'I' for Inactive)
REMARK    1  A    between atoms: N1_2  and  C2_4
REMARK    2  A    between atoms: C3_5  and  O1_6
REMARK    3  A    between atoms: C5_8  and  N2_9
REMARK    4  A    between atoms: C8_19  and  N5_20
ROOT
HETATM    1  C2  UNL     1      23.740   8.223  34.510  1.00  0.00     0.095 C
HETATM    2  C3  UNL     1      24.577   7.188  34.073  1.00  0.00     0.141 C
HETATM    3  C5  UNL     1      25.889   6.922  34.403  1.00  0.00     0.138 C
HETATM    4  N3  UNL     1      26.751   7.810  34.933  1.00  0.00    -0.306 N
ATOM      5  H3  UNL     1      27.736   7.555  34.855  1.00  0.00     0.170 HD
HETATM    6  C6  UNL     1      26.513   8.984  35.552  1.00  0.00     0.276 C
HETATM    7  O2  UNL     1      27.497   9.705  35.861  1.00  0.00    -0.266 OA
HETATM    8  C7  UNL     1      25.286   9.525  35.907  1.00  0.00     0.146 A
HETATM    9  N4  UNL     1      25.091  10.515  36.803  1.00  0.00    -0.184 N
ATOM     10  H4  UNL     1      25.837  10.978  37.324  1.00  0.00     0.184 HD
HETATM   11  C8  UNL     1      23.791  10.809  36.919  1.00  0.00     0.677 A
HETATM   12  N6  UNL     1      23.139   9.989  36.078  1.00  0.00    -0.187 N
ATOM     13  H6  UNL     1      22.129   9.970  35.938  1.00  0.00     0.184 HD
HETATM   14  C9  UNL     1      24.023   9.196  35.447  1.00  0.00     0.111 A
ENDROOT
BRANCH   1  15
HETATM   15  N1  UNL     1      22.445   8.310  33.943  1.00  0.00    -0.390 N
HETATM   16  C1  UNL     1      21.256   7.837  34.584  1.00  0.00     0.146 C
ATOM     17  H1  UNL     1      22.355   8.736  33.021  1.00  0.00     0.159 HD
ENDBRANCH   1  15
BRANCH   2  18
HETATM   18  O1  UNL     1      24.004   6.310  33.186  1.00  0.00    -0.350 OA
HETATM   19  C4  UNL     1      23.407   5.134  33.692  1.00  0.00     0.210 C
ENDBRANCH   2  18
BRANCH   3  20
HETATM   20  N2  UNL     1      26.290   5.720  34.174  1.00  0.00    -0.383 N
ATOM     21  H22 UNL     1      25.819   4.943  34.638  1.00  0.00     0.157 HD
ATOM     22  H21 UNL     1      27.072   5.630  33.525  1.00  0.00     0.157 HD
ENDBRANCH   3  20
BRANCH  11  23
HETATM   23  N5  UNL     1      23.221  11.699  37.675  1.00  0.00    -0.234 N
ATOM     24  H52 UNL     1      23.587  12.020  38.572  1.00  0.00     0.174 HD
ATOM     25  H51 UNL     1      22.351  12.209  37.519  1.00  0.00     0.174 HD
ENDBRANCH  11  23
TORSDOF 4
ENDMDL