MODEL 4
REMARK VINA RESULT: -7.188658749      2.256      3.951
REMARK  4 active torsions:
REMARK  status: ('A' for Active; 'I' for Inactive)
REMARK    1  A    between atoms: C1_2  and  C2_3
REMARK    2  A    between atoms: C1_2  and  C3_10
REMARK    3  A    between atoms: C2_3  and  O2_4
REMARK    4  A    between atoms: N1_6  and  O3_8
ROOT
HETATM    1  C3  UNL     1      25.395   4.804  33.096  1.00  0.00     0.268 C
HETATM    2  C4  UNL     1      24.232   4.265  33.870  1.00  0.00     0.086 C
HETATM    3  C5  UNL     1      22.910   4.884  33.654  1.00  0.00     0.063 C
HETATM    4  N2  UNL     1      22.727   6.001  32.846  1.00  0.00    -0.378 N
ATOM      5  H2  UNL     1      22.987   5.945  31.862  1.00  0.00     0.164 HD
HETATM    6  C6  UNL     1      22.202   7.192  33.334  1.00  0.00     0.103 C
HETATM    7  C7  UNL     1      22.795   7.861  34.521  1.00  0.00     0.100 C
HETATM    8  N3  UNL     1      24.066   8.446  34.385  1.00  0.00    -0.398 N
ATOM      9  H3  UNL     1      24.373   8.835  33.493  1.00  0.00     0.158 HD
HETATM   10  C8  UNL     1      24.923   8.478  35.545  1.00  0.00     0.120 C
HETATM   11  C9  UNL     1      26.199   7.614  35.324  1.00  0.00     0.047 C
HETATM   12  C10 UNL     1      25.709   6.568  34.435  1.00  0.00     0.235 C
HETATM   13  N4  UNL     1      26.403   5.439  33.991  1.00  0.00    -0.063 N
ATOM     14  H41 UNL     1      27.310   5.626  33.561  1.00  0.00     0.278 HD
ATOM     15  H42 UNL     1      26.772   4.838  34.727  1.00  0.00     0.278 HD
ENDROOT
BRANCH   1  16
HETATM   16  C1  UNL     1      26.096   3.831  32.269  1.00  0.00     0.232 C
HETATM   17  O1  UNL     1      25.711   3.556  31.109  1.00  0.00    -0.286 OA
BRANCH  16  18
HETATM   18  C2  UNL     1      27.290   3.113  32.740  1.00  0.00     0.209 C
HETATM   19  N1  UNL     1      27.306   1.859  32.978  1.00  0.00    -0.244 N
ATOM     20  H1  UNL     1      28.180   1.444  33.301  1.00  0.00     0.196 HD
BRANCH  18  21
HETATM   21  O2  UNL     1      28.448   3.848  32.928  1.00  0.00    -0.342 OA
ATOM     22  H2  UNL     1      28.604   4.210  33.791  1.00  0.00     0.219 HD
ENDBRANCH  18  21
BRANCH  19  23
HETATM   23  O3  UNL     1      26.220   1.036  32.827  1.00  0.00    -0.288 OA
ATOM     24  H3  UNL     1      26.041   0.287  33.382  1.00  0.00     0.244 HD
ENDBRANCH  19  23
ENDBRANCH  16  18
ENDBRANCH   1  16
TORSDOF 4
ENDMDL