MODEL 1
REMARK VINA RESULT: -7.162713783      0.000      0.000
REMARK  5 active torsions:
REMARK  status: ('A' for Active; 'I' for Inactive)
REMARK    1  A    between atoms: N1_3  and  N2_5
REMARK    2  A    between atoms: N2_5  and  C3_7
REMARK    3  A    between atoms: C4_10  and  N4_11
REMARK    4  A    between atoms: C6_19  and  N7_20
REMARK    5  A    between atoms: C8_23  and  N8_24
ROOT
HETATM    1  C3  UNL     1      25.564   5.820  33.841  1.00  0.00     0.166 A
HETATM    2  N3  UNL     1      24.482   5.250  33.289  1.00  0.00    -0.173 N
ATOM      3  H3  UNL     1      24.550   4.376  32.767  1.00  0.00     0.186 HD
HETATM    4  C4  UNL     1      23.306   5.880  33.453  1.00  0.00     0.679 A
HETATM    5  N5  UNL     1      23.174   7.031  34.132  1.00  0.00    -0.174 N
ATOM      6  H5  UNL     1      22.253   7.459  34.221  1.00  0.00     0.186 HD
HETATM    7  C5  UNL     1      24.243   7.629  34.698  1.00  0.00     0.153 A
HETATM    8  N6  UNL     1      24.148   8.767  35.376  1.00  0.00    -0.323 N
ATOM      9  H6  UNL     1      23.235   9.211  35.477  1.00  0.00     0.169 HD
HETATM   10  C6  UNL     1      25.243   9.360  35.944  1.00  0.00     0.147 A
HETATM   11  C8  UNL     1      26.465   8.744  35.796  1.00  0.00     0.144 A
HETATM   12  N9  UNL     1      26.545   7.590  35.106  1.00  0.00    -0.334 N
ATOM     13  H9  UNL     1      27.453   7.139  35.000  1.00  0.00     0.168 HD
HETATM   14  C9  UNL     1      25.470   7.020  34.556  1.00  0.00     0.125 A
ENDROOT
BRANCH   1  15
HETATM   15  N2  UNL     1      26.706   5.269  33.719  1.00  0.00    -0.284 N
ATOM     16  H2  UNL     1      27.456   5.794  33.268  1.00  0.00     0.188 HD
BRANCH  15  17
HETATM   17  N1  UNL     1      26.968   3.991  34.172  1.00  0.00    -0.315 N
HETATM   18  C2  UNL     1      27.815   3.194  33.596  1.00  0.00     0.075 C
HETATM   19  C1  UNL     1      28.082   1.826  34.098  1.00  0.00     0.056 C
ATOM     20  H1  UNL     1      26.472   3.657  34.998  1.00  0.00     0.185 HD
ENDBRANCH  15  17
ENDBRANCH   1  15
BRANCH   4  21
HETATM   21  N4  UNL     1      22.262   5.323  32.917  1.00  0.00    -0.234 N
ATOM     22  H42 UNL     1      22.127   5.365  31.907  1.00  0.00     0.174 HD
ATOM     23  H41 UNL     1      21.611   4.858  33.550  1.00  0.00     0.174 HD
ENDBRANCH   4  21
BRANCH  11  24
HETATM   24  N8  UNL     1      27.555   9.232  36.298  1.00  0.00    -0.382 N
ATOM     25  H82 UNL     1      27.942  10.076  35.877  1.00  0.00     0.157 HD
ATOM     26  H81 UNL     1      28.032   8.804  37.092  1.00  0.00     0.157 HD
ENDBRANCH  11  24
BRANCH  10  27
HETATM   27  N7  UNL     1      25.071  10.562  36.646  1.00  0.00    -0.378 N
HETATM   28  C7  UNL     1      23.746  11.012  37.023  1.00  0.00     0.148 C
ATOM     29  H7  UNL     1      25.886  11.124  36.894  1.00  0.00     0.160 HD
ENDBRANCH  10  27
TORSDOF 5
ENDMDL