MODEL 5
REMARK VINA RESULT: -6.984006829      1.207      1.439
REMARK  4 active torsions:
REMARK  status: ('A' for Active; 'I' for Inactive)
REMARK    1  A    between atoms: O1_2  and  C2_3
REMARK    2  A    between atoms: C2_3  and  C3_7
REMARK    3  A    between atoms: C4_12  and  N4_13
REMARK    4  A    between atoms: C8_22  and  N7_23
ROOT
HETATM    1  N4  UNL     1      24.262   4.593  32.332  1.00  0.00    -0.066 N
HETATM    2  N5  UNL     1      23.007   4.974  32.494  1.00  0.00    -0.277 N
ATOM      3  H5  UNL     1      22.792   5.589  33.279  1.00  0.00     0.188 HD
HETATM    4  C5  UNL     1      21.994   4.603  31.690  1.00  0.00     0.091 A
HETATM    5  C6  UNL     1      20.595   5.042  31.891  1.00  0.00     0.076 C
HETATM    6  C7  UNL     1      22.289   3.774  30.630  1.00  0.00     0.283 A
HETATM    7  O2  UNL     1      21.379   3.381  29.825  1.00  0.00    -0.265 OA
HETATM    8  N6  UNL     1      23.564   3.383  30.459  1.00  0.00    -0.153 N
ATOM      9  H6  UNL     1      23.797   2.769  29.679  1.00  0.00     0.187 HD
HETATM   10  C8  UNL     1      24.542   3.783  31.295  1.00  0.00     0.702 A
ENDROOT
BRANCH   1  11
HETATM   11  C4  UNL     1      25.289   5.033  33.236  1.00  0.00     0.192 A
HETATM   12  C3  UNL     1      26.235   4.403  34.000  1.00  0.00     0.147 A
HETATM   13  N2  UNL     1      26.621   5.607  34.407  1.00  0.00    -0.292 N
HETATM   14  N3  UNL     1      25.728   6.206  33.686  1.00  0.00    -0.281 N
ATOM     15  H2  UNL     1      27.346   5.934  35.045  1.00  0.00     0.187 HD
ATOM     16  H3  UNL     1      25.466   7.179  33.528  1.00  0.00     0.188 HD
BRANCH  12  17
HETATM   17  C2  UNL     1      26.646   3.013  34.259  1.00  0.00     0.168 C
HETATM   18  N1  UNL     1      27.819   2.710  34.645  1.00  0.00    -0.378 N
ATOM     19  H12 UNL     1      28.104   1.747  34.824  1.00  0.00     0.158 HD
ATOM     20  H11 UNL     1      28.500   3.457  34.781  1.00  0.00     0.158 HD
BRANCH  17  21
HETATM   21  O1  UNL     1      25.720   1.997  34.074  1.00  0.00    -0.339 OA
HETATM   22  C1  UNL     1      24.640   1.765  34.962  1.00  0.00     0.211 C
ENDBRANCH  17  21
ENDBRANCH  12  17
ENDBRANCH   1  11
BRANCH  10  23
HETATM   23  N7  UNL     1      25.766   3.371  31.080  1.00  0.00    -0.233 N
ATOM     24  H72 UNL     1      26.479   3.551  31.787  1.00  0.00     0.174 HD
ATOM     25  H71 UNL     1      26.006   2.876  30.221  1.00  0.00     0.174 HD
ENDBRANCH  10  23
TORSDOF 4
ENDMDL