MODEL 2
REMARK VINA RESULT: -7.599079503      1.549      2.042
REMARK  6 active torsions:
REMARK  status: ('A' for Active; 'I' for Inactive)
REMARK    1  A    between atoms: C2_2  and  O1_3
REMARK    2  A    between atoms: C4_7  and  N1_8
REMARK    3  A    between atoms: N1_8  and  N2_9
REMARK       I    between atoms: N2_9  and  C5_11
REMARK       I    between atoms: C5_11  and  N3_13
REMARK    4  A    between atoms: N3_13  and  C6_15
REMARK    5  A    between atoms: C6_15  and  O4_16
REMARK    6  A    between atoms: N4_18  and  O5_20
ROOT
HETATM    1  N2  UNL     1      24.999   3.982  31.767  1.00  0.00    -0.253 N
ATOM      2  H2  UNL     1      25.398   4.861  31.438  1.00  0.00     0.187 HD
HETATM    3  C5  UNL     1      25.886   3.001  32.245  1.00  0.00     0.339 C
HETATM    4  O3  UNL     1      25.501   1.895  32.668  1.00  0.00    -0.245 OA
HETATM    5  N3  UNL     1      27.274   3.272  32.252  1.00  0.00    -0.272 N
ATOM      6  H3  UNL     1      27.598   4.177  31.910  1.00  0.00     0.174 HD
ENDROOT
BRANCH   1   7
HETATM    7  N1  UNL     1      23.614   3.838  31.708  1.00  0.00    -0.105 NA
BRANCH   7   8
HETATM    8  C4  UNL     1      23.026   4.827  30.815  1.00  0.00     0.237 C
HETATM    9  O2  UNL     1      21.891   5.318  31.453  1.00  0.00    -0.365 OA
HETATM   10  C3  UNL     1      20.943   4.317  31.377  1.00  0.00     0.207 C
HETATM   11  C2  UNL     1      21.163   3.615  30.066  1.00  0.00     0.079 C
HETATM   12  C1  UNL     1      20.039   3.895  29.086  1.00  0.00     0.048 C
HETATM   13  C7  UNL     1      22.459   4.199  29.574  1.00  0.00     0.090 C
BRANCH  11  14
HETATM   14  O1  UNL     1      21.277   2.247  30.268  1.00  0.00    -0.388 OA
ATOM     15  H1  UNL     1      22.155   1.963  30.044  1.00  0.00     0.210 HD
ENDBRANCH  11  14
ENDBRANCH   7   8
ENDBRANCH   1   7
BRANCH   5  16
HETATM   16  C6  UNL     1      28.251   2.320  32.722  1.00  0.00     0.245 C
HETATM   17  N4  UNL     1      28.151   1.957  33.945  1.00  0.00    -0.233 N
ATOM     18  H4  UNL     1      27.393   2.370  34.488  1.00  0.00     0.198 HD
BRANCH  16  19
HETATM   19  O4  UNL     1      29.250   1.817  31.911  1.00  0.00    -0.331 OA
ATOM     20  H4  UNL     1      29.965   1.289  32.247  1.00  0.00     0.221 HD
ENDBRANCH  16  19
BRANCH  17  21
HETATM   21  O5  UNL     1      28.954   1.078  34.588  1.00  0.00    -0.287 OA
ATOM     22  H5  UNL     1      29.378   0.319  34.205  1.00  0.00     0.244 HD
ENDBRANCH  17  21
ENDBRANCH   5  16
TORSDOF 6
ENDMDL