MODEL 4
REMARK VINA RESULT: -7.154997238      2.625      4.852
REMARK  5 active torsions:
REMARK  status: ('A' for Active; 'I' for Inactive)
REMARK    1  A    between atoms: O1_2  and  C2_3
REMARK    2  A    between atoms: C2_3  and  C3_5
REMARK    3  A    between atoms: C4_12  and  C5_13
REMARK    4  A    between atoms: C6_16  and  N5_17
REMARK    5  A    between atoms: C7_22  and  N7_23
ROOT
HETATM    1  C5  UNL     1      25.883   5.297  33.688  1.00  0.00     0.167 A
HETATM    2  N4  UNL     1      24.631   5.632  33.407  1.00  0.00    -0.173 N
ATOM      3  H4  UNL     1      24.101   4.985  32.825  1.00  0.00     0.186 HD
HETATM    4  C6  UNL     1      23.999   6.734  33.813  1.00  0.00     0.692 A
HETATM    5  N6  UNL     1      24.730   7.572  34.584  1.00  0.00    -0.023 N
ATOM      6  H6  UNL     1      24.311   8.435  34.930  1.00  0.00     0.203 HD
HETATM    7  C7  UNL     1      26.000   7.278  34.896  1.00  0.00     0.692 A
HETATM    8  N8  UNL     1      26.589   6.164  34.467  1.00  0.00    -0.173 N
ATOM      9  H8  UNL     1      27.557   5.962  34.718  1.00  0.00     0.186 HD
ENDROOT
BRANCH   1  10
HETATM   10  C4  UNL     1      26.586   4.107  33.257  1.00  0.00     0.129 A
HETATM   11  C3  UNL     1      26.043   2.922  32.855  1.00  0.00     0.157 A
HETATM   12  N1  UNL     1      27.114   2.131  32.555  1.00  0.00    -0.279 N
HETATM   13  N2  UNL     1      28.224   2.789  32.761  1.00  0.00    -0.241 N
ATOM     14  H1  UNL     1      27.057   1.169  32.221  1.00  0.00     0.189 HD
HETATM   15  N3  UNL     1      27.952   3.985  33.184  1.00  0.00    -0.280 N
ATOM     16  H2  UNL     1      29.162   2.419  32.611  1.00  0.00     0.208 HD
ATOM     17  H3  UNL     1      28.632   4.707  33.421  1.00  0.00     0.188 HD
BRANCH  11  18
HETATM   18  C2  UNL     1      24.687   2.437  32.716  1.00  0.00     0.313 C
HETATM   19  O2  UNL     1      24.173   1.446  33.252  1.00  0.00    -0.257 OA
BRANCH  18  20
HETATM   20  O1  UNL     1      23.772   3.130  31.876  1.00  0.00    -0.321 OA
HETATM   21  C1  UNL     1      24.158   3.540  30.584  1.00  0.00     0.213 C
ENDBRANCH  18  20
ENDBRANCH  11  18
ENDBRANCH   1  10
BRANCH   4  22
HETATM   22  N5  UNL     1      22.775   6.986  33.494  1.00  0.00    -0.234 N
ATOM     23  H52 UNL     1      22.528   7.700  32.809  1.00  0.00     0.174 HD
ATOM     24  H51 UNL     1      21.987   6.485  33.906  1.00  0.00     0.174 HD
ENDBRANCH   4  22
BRANCH   7  25
HETATM   25  N7  UNL     1      26.717   8.072  35.636  1.00  0.00    -0.234 N
ATOM     26  H72 UNL     1      26.575   9.074  35.506  1.00  0.00     0.174 HD
ATOM     27  H71 UNL     1      27.386   7.707  36.314  1.00  0.00     0.174 HD
ENDBRANCH   7  25
TORSDOF 5
ENDMDL