MODEL 5
REMARK VINA RESULT: -6.921479026      2.206      2.591
REMARK  4 active torsions:
REMARK  status: ('A' for Active; 'I' for Inactive)
REMARK    1  A    between atoms: O1_2  and  C2_3
REMARK       I    between atoms: C2_3  and  N1_5
REMARK    2  A    between atoms: N1_5  and  N2_7
REMARK    3  A    between atoms: N2_7  and  C3_9
REMARK    4  A    between atoms: C5_17  and  N6_18
ROOT
HETATM    1  C3  UNL     1      24.741   5.619  33.102  1.00  0.00     0.154 A
HETATM    2  N3  UNL     1      25.334   6.293  34.092  1.00  0.00    -0.282 N
ATOM      3  H3  UNL     1      24.958   7.136  34.525  1.00  0.00     0.188 HD
HETATM    4  N4  UNL     1      26.480   5.718  34.436  1.00  0.00    -0.282 N
ATOM      5  H4  UNL     1      27.108   6.051  35.166  1.00  0.00     0.188 HD
HETATM    6  C4  UNL     1      26.687   4.622  33.670  1.00  0.00     0.155 A
HETATM    7  N5  UNL     1      27.666   3.687  33.602  1.00  0.00    -0.174 N
ATOM      8  H5  UNL     1      28.468   3.747  34.228  1.00  0.00     0.186 HD
HETATM    9  C5  UNL     1      27.586   2.663  32.700  1.00  0.00     0.680 A
HETATM   10  N7  UNL     1      26.531   2.585  31.877  1.00  0.00    -0.155 N
ATOM     11  H7  UNL     1      26.473   1.820  31.205  1.00  0.00     0.187 HD
HETATM   12  C6  UNL     1      25.541   3.507  31.924  1.00  0.00     0.277 A
HETATM   13  O3  UNL     1      24.545   3.438  31.153  1.00  0.00    -0.266 OA
HETATM   14  C7  UNL     1      25.600   4.548  32.825  1.00  0.00     0.125 A
ENDROOT
BRANCH   1  15
HETATM   15  N2  UNL     1      23.546   5.806  32.387  1.00  0.00    -0.279 N
ATOM     16  H2  UNL     1      23.560   6.458  31.603  1.00  0.00     0.189 HD
BRANCH  15  17
HETATM   17  N1  UNL     1      22.353   5.167  32.672  1.00  0.00    -0.244 N
HETATM   18  C2  UNL     1      21.693   5.322  33.928  1.00  0.00     0.379 C
HETATM   19  O2  UNL     1      22.213   6.058  34.830  1.00  0.00    -0.237 OA
ATOM     20  H1  UNL     1      21.932   4.566  31.962  1.00  0.00     0.192 HD
BRANCH  18  21
HETATM   21  O1  UNL     1      20.494   4.717  34.259  1.00  0.00    -0.308 OA
HETATM   22  C1  UNL     1      20.114   4.602  35.646  1.00  0.00     0.215 C
ENDBRANCH  18  21
ENDBRANCH  15  17
ENDBRANCH   1  15
BRANCH   9  23
HETATM   23  N6  UNL     1      28.554   1.829  32.704  1.00  0.00    -0.234 N
ATOM     24  H62 UNL     1      29.056   1.540  33.544  1.00  0.00     0.174 HD
ATOM     25  H61 UNL     1      28.820   1.442  31.799  1.00  0.00     0.174 HD
ENDBRANCH   9  23
TORSDOF 4
ENDMDL