MODEL 1
REMARK VINA RESULT: -7.662792463      0.000      0.000
REMARK  5 active torsions:
REMARK  status: ('A' for Active; 'I' for Inactive)
REMARK    1  A    between atoms: C2_2  and  O1_3
REMARK    2  A    between atoms: O1_3  and  N1_4
REMARK    3  A    between atoms: C10_18  and  S1_19
REMARK    4  A    between atoms: S1_19  and  C11_20
REMARK    5  A    between atoms: C11_20  and  C12_21
REMARK       I    between atoms: C12_21  and  N4_23
REMARK       I    between atoms: N5_26  and  C15_27
ROOT
HETATM    1  N1  UNL     1       1.362   4.866  10.758  1.00  0.00    -0.254 N
ATOM      2  H1  UNL     1       1.239   3.855  10.804  1.00  0.00     0.195 HD
HETATM    3  C3  UNL     1       0.712   5.515   9.852  1.00  0.00     0.113 C
HETATM    4  N2  UNL     1       0.880   6.925   9.783  1.00  0.00    -0.377 N
ATOM      5  H2  UNL     1       1.234   7.342  10.644  1.00  0.00     0.160 HD
HETATM    6  C4  UNL     1       0.646   7.869   8.732  1.00  0.00     0.121 C
HETATM    7  C5  UNL     1       0.099   7.271   7.476  1.00  0.00     0.025 C
HETATM    8  C6  UNL     1       0.876   6.086   6.974  1.00  0.00     0.055 C
HETATM    9  C7  UNL     1       0.414   4.812   7.599  1.00  0.00    -0.003 C
HETATM   10  N3  UNL     1       0.536   3.797   6.864  1.00  0.00    -0.405 N
ATOM     11  H31 UNL     1       0.220   2.926   7.292  1.00  0.00     0.155 HD
ATOM     12  H32 UNL     1       0.922   3.873   5.924  1.00  0.00     0.155 HD
HETATM   13  C8  UNL     1      -0.150   4.701   8.971  1.00  0.00     0.071 A
HETATM   14  C9  UNL     1      -1.637   4.804   9.029  1.00  0.00     0.041 A
HETATM   15  C10 UNL     1      -0.896   3.532   9.430  1.00  0.00     0.071 A
ENDROOT
BRANCH  15  16
HETATM   16  S1  UNL     1      -0.994   3.090  11.160  1.00  0.00    -0.153 SA
BRANCH  16  17
HETATM   17  C11 UNL     1      -2.540   2.212  11.469  1.00  0.00     0.177 C
BRANCH  17  18
HETATM   18  C12 UNL     1      -3.506   3.009  12.232  1.00  0.00     0.229 C
HETATM   19  O2  UNL     1      -3.622   4.235  11.982  1.00  0.00    -0.273 OA
HETATM   20  N4  UNL     1      -4.335   2.466  13.256  1.00  0.00    -0.348 N
HETATM   21  C13 UNL     1      -4.234   1.068  13.579  1.00  0.00     0.145 C
HETATM   22  C18 UNL     1      -5.283   3.279  13.987  1.00  0.00     0.145 C
HETATM   23  C14 UNL     1      -4.131   0.856  15.091  1.00  0.00     0.145 C
HETATM   24  N5  UNL     1      -5.028   1.732  15.796  1.00  0.00    -0.349 N
HETATM   25  C15 UNL     1      -5.867   1.165  16.796  1.00  0.00     0.215 C
HETATM   26  C17 UNL     1      -5.052   3.134  15.477  1.00  0.00     0.145 C
HETATM   27  C16 UNL     1      -6.798   2.092  17.522  1.00  0.00     0.117 C
HETATM   28  O3  UNL     1      -5.848  -0.059  17.076  1.00  0.00    -0.274 OA
ENDBRANCH  17  18
ENDBRANCH  16  17
ENDBRANCH  15  16
BRANCH   1  29
HETATM   29  O1  UNL     1       2.202   5.450  11.654  1.00  0.00    -0.279 OA
BRANCH  29  30
HETATM   30  C2  UNL     1       3.610   5.466  11.512  1.00  0.00     0.196 C
HETATM   31  C1  UNL     1       4.244   5.848  12.831  1.00  0.00     0.036 C
ENDBRANCH  29  30
ENDBRANCH   1  29
TORSDOF 5
ENDMDL