MODEL 2
REMARK VINA RESULT: -8.445499907      2.609      4.380
REMARK  5 active torsions:
REMARK  status: ('A' for Active; 'I' for Inactive)
REMARK    1  A    between atoms: C8_9  and  C9_10
REMARK    2  A    between atoms: C12_16  and  C13_17
REMARK    3  A    between atoms: C13_17  and  N3_18
REMARK    4  A    between atoms: C16_21  and  C17_22
REMARK    5  A    between atoms: C17_22  and  C18_23
ROOT
HETATM    1  C9  UNL     1      -4.872   4.166  15.170  1.00  0.00     0.045 C
HETATM    2  C10 UNL     1      -5.794   5.125  14.472  1.00  0.00     0.239 C
HETATM    3  N2  UNL     1      -5.095   5.986  13.585  1.00  0.00    -0.074 N
ATOM      4  H21 UNL     1      -5.655   6.807  13.355  1.00  0.00     0.277 HD
ATOM      5  H22 UNL     1      -5.022   5.573  12.655  1.00  0.00     0.277 HD
HETATM    6  C11 UNL     1      -3.784   6.371  14.092  1.00  0.00     0.238 C
HETATM    7  C12 UNL     1      -2.874   5.229  14.249  1.00  0.00     0.040 C
HETATM    8  C21 UNL     1      -3.679   3.895  14.340  1.00  0.00     0.016 C
ENDROOT
BRANCH   7   9
HETATM    9  C13 UNL     1      -1.706   5.054  13.374  1.00  0.00     0.278 C
BRANCH   9  10
HETATM   10  N3  UNL     1      -1.828   4.959  11.976  1.00  0.00     0.088 N
HETATM   11  C14 UNL     1      -1.198   3.714  11.504  1.00  0.00     0.272 C
HETATM   12  C15 UNL     1      -0.098   3.922  10.523  1.00  0.00     0.035 C
HETATM   13  C16 UNL     1       0.874   4.941  11.078  1.00  0.00    -0.004 C
HETATM   14  C19 UNL     1       0.149   6.235  11.196  1.00  0.00     0.035 C
HETATM   15  C20 UNL     1      -1.351   6.005  11.145  1.00  0.00     0.272 C
BRANCH  13  16
HETATM   16  C17 UNL     1       2.138   5.005  10.248  1.00  0.00     0.084 C
BRANCH  16  17
HETATM   17  C18 UNL     1       3.343   5.322  11.023  1.00  0.00     0.113 A
HETATM   18  N4  UNL     1       3.422   5.335  12.365  1.00  0.00    -0.272 N
HETATM   19  N5  UNL     1       4.651   5.661  12.712  1.00  0.00    -0.227 N
ATOM     20  H4  UNL     1       2.658   5.127  13.008  1.00  0.00     0.190 HD
HETATM   21  N6  UNL     1       5.348   5.854  11.613  1.00  0.00    -0.227 N
ATOM     22  H5  UNL     1       5.000   5.749  13.666  1.00  0.00     0.210 HD
HETATM   23  N7  UNL     1       4.567   5.651  10.576  1.00  0.00    -0.272 N
ATOM     24  H6  UNL     1       6.333   6.117  11.573  1.00  0.00     0.210 HD
ATOM     25  H7  UNL     1       4.843   5.731   9.597  1.00  0.00     0.190 HD
ENDBRANCH  16  17
ENDBRANCH  13  16
ENDBRANCH   9  10
ENDBRANCH   7   9
BRANCH   1  26
HETATM   26  C8  UNL     1      -5.605   2.916  15.611  1.00  0.00     0.232 C
HETATM   27  N1  UNL     1      -4.844   2.017  16.408  1.00  0.00     0.094 N
HETATM   28  C1  UNL     1      -4.481   0.798  15.663  1.00  0.00     0.310 C
HETATM   29  C2  UNL     1      -5.629   1.504  17.544  1.00  0.00     0.223 C
HETATM   30  C3  UNL     1      -5.833   2.653  18.500  1.00  0.00     0.036 C
HETATM   31  C7  UNL     1      -6.972   0.970  17.116  1.00  0.00     0.036 C
HETATM   32  C4  UNL     1      -6.656   3.689  17.761  1.00  0.00     0.009 C
HETATM   33  C5  UNL     1      -6.902   3.263  16.306  1.00  0.00     0.019 C
HETATM   34  C6  UNL     1      -7.741   2.000  16.319  1.00  0.00     0.009 C
ENDBRANCH   1  26
TORSDOF 5
ENDMDL