MODEL 4
REMARK VINA RESULT: -6.483037866      1.769      5.098
REMARK  7 active torsions:
REMARK  status: ('A' for Active; 'I' for Inactive)
REMARK    1  A    between atoms: C3_3  and  C4_4
REMARK    2  A    between atoms: C5_6  and  C6_7
REMARK    3  A    between atoms: C6_7  and  O2_8
REMARK    4  A    between atoms: C16_22  and  C17_23
REMARK    5  A    between atoms: C17_23  and  C19_25
REMARK    6  A    between atoms: C21_27  and  C22_28
REMARK    7  A    between atoms: C22_28  and  O6_29
ROOT
HETATM    1  C4  UNL     1      -2.673   5.948  10.414  1.00  0.00     0.052 C
HETATM    2  O1  UNL     1      -3.658   6.389  11.154  1.00  0.00    -0.341 OA
HETATM    3  C5  UNL     1      -4.478   6.104  12.114  1.00  0.00     0.104 A
HETATM    4  C7  UNL     1      -4.761   5.094  13.114  1.00  0.00     0.045 A
HETATM    5  C8  UNL     1      -4.255   3.751  13.530  1.00  0.00     0.031 C
HETATM    6  C9  UNL     1      -3.379   4.007  14.784  1.00  0.00     0.086 C
HETATM    7  C10 UNL     1      -2.146   4.558  14.108  1.00  0.00     0.133 C
HETATM    8  O3  UNL     1      -1.084   4.539  14.616  1.00  0.00    -0.297 OA
HETATM    9  C11 UNL     1      -2.510   5.102  12.748  1.00  0.00     0.082 C
HETATM   10  C12 UNL     1      -2.950   4.140  11.717  1.00  0.00     0.017 C
HETATM   11  C13 UNL     1      -4.053   3.804  10.871  1.00  0.00     0.124 C
HETATM   12  C14 UNL     1      -4.860   2.641  11.319  1.00  0.00     0.260 C
HETATM   13  O4  UNL     1      -6.042   2.350  11.078  1.00  0.00    -0.265 OA
HETATM   14  O5  UNL     1      -3.935   1.983  12.066  1.00  0.00    -0.315 OA
HETATM   15  C15 UNL     1      -3.203   3.073  12.593  1.00  0.00     0.147 C
HETATM   16  C16 UNL     1      -1.999   4.599  10.666  1.00  0.00     0.058 C
HETATM   17  C21 UNL     1      -3.664   6.008  13.290  1.00  0.00     0.033 A
ENDROOT
BRANCH  16  18
HETATM   18  C17 UNL     1      -0.596   4.435  10.907  1.00  0.00    -0.008 C
HETATM   19  C18 UNL     1      -0.297   2.914  11.002  1.00  0.00     0.011 C
BRANCH  18  20
HETATM   20  C19 UNL     1       0.463   4.906   9.991  1.00  0.00     0.000 C
HETATM   21  C20 UNL     1       0.221   4.146   8.678  1.00  0.00     0.005 C
ENDBRANCH  18  20
ENDBRANCH  16  18
BRANCH   1  22
HETATM   22  C3  UNL     1      -1.703   7.042  10.180  1.00  0.00     0.028 C
HETATM   23  C2  UNL     1      -1.649   7.666   9.039  1.00  0.00    -0.028 C
HETATM   24  C1  UNL     1      -2.553   7.316   7.914  1.00  0.00     0.036 C
ENDBRANCH   1  22
BRANCH   3  25
HETATM   25  C6  UNL     1      -5.635   7.139  11.975  1.00  0.00     0.204 C
BRANCH  25  26
HETATM   26  O2  UNL     1      -6.190   7.130  10.726  1.00  0.00    -0.398 OA
ATOM     27  H2  UNL     1      -5.951   6.355  10.231  1.00  0.00     0.209 HD
ENDBRANCH  25  26
ENDBRANCH   3  25
BRANCH  17  28
HETATM   28  C22 UNL     1      -3.412   7.061  14.223  1.00  0.00     0.178 C
BRANCH  28  29
HETATM   29  O6  UNL     1      -2.638   8.060  13.699  1.00  0.00    -0.400 OA
ATOM     30  H6  UNL     1      -3.153   8.762  13.318  1.00  0.00     0.209 HD
ENDBRANCH  28  29
ENDBRANCH  17  28
TORSDOF 7
ENDMDL