MODEL 5
REMARK VINA RESULT: -7.278112195      0.862      1.116
REMARK  5 active torsions:
REMARK  status: ('A' for Active; 'I' for Inactive)
REMARK    1  A    between atoms: C2_2  and  C3_3
REMARK    2  A    between atoms: C2_2  and  C19_25
REMARK    3  A    between atoms: N1_20  and  C17_22
REMARK    4  A    between atoms: C17_22  and  C18_23
REMARK    5  A    between atoms: C19_25  and  O5_28
ROOT
HETATM    1  C3  UNL     1      -4.883   6.740   9.824  1.00  0.00     0.129 C
HETATM    2  C4  UNL     1      -4.441   6.018  11.111  1.00  0.00     0.048 C
HETATM    3  C5  UNL     1      -3.199   5.412  10.701  1.00  0.00     0.032 C
HETATM    4  C6  UNL     1      -3.286   5.356   9.188  1.00  0.00     0.182 C
HETATM    5  O1  UNL     1      -4.581   5.788   8.876  1.00  0.00    -0.384 OA
HETATM    6  C7  UNL     1      -1.879   5.988  11.197  1.00  0.00     0.048 C
HETATM    7  C8  UNL     1      -1.988   6.603  12.534  1.00  0.00     0.011 C
HETATM    8  C9  UNL     1      -2.537   5.940  13.688  1.00  0.00     0.003 C
HETATM    9  C10 UNL     1      -2.632   4.462  13.745  1.00  0.00     0.035 C
HETATM   10  C11 UNL     1      -3.211   3.806  12.555  1.00  0.00     0.166 C
HETATM   11  O2  UNL     1      -2.984   2.412  12.673  1.00  0.00    -0.347 OA
HETATM   12  C12 UNL     1      -2.953   1.922  11.387  1.00  0.00     0.159 C
HETATM   13  C13 UNL     1      -1.692   1.130  11.071  1.00  0.00     0.078 C
HETATM   14  C14 UNL     1      -4.150   0.981  11.261  1.00  0.00     0.078 C
HETATM   15  O3  UNL     1      -3.057   2.979  10.494  1.00  0.00    -0.335 OA
HETATM   16  C15 UNL     1      -2.703   4.103  11.246  1.00  0.00     0.139 C
HETATM   17  C16 UNL     1      -1.352   4.642  10.958  1.00  0.00     0.030 C
HETATM   18  N1  UNL     1      -0.161   4.075  11.269  1.00  0.00    -0.367 N
ATOM     19  H1  UNL     1      -0.146   3.376  12.011  1.00  0.00     0.165 HD
ENDROOT
BRANCH   1  20
HETATM   20  C2  UNL     1      -6.289   7.191   9.903  1.00  0.00     0.044 C
HETATM   21  C1  UNL     1      -6.426   7.982  11.208  1.00  0.00     0.015 C
BRANCH  20  22
HETATM   22  C19 UNL     1      -6.726   8.074   8.787  1.00  0.00     0.056 C
HETATM   23  C20 UNL     1      -5.612   8.706   8.017  1.00  0.00     0.045 C
HETATM   24  C21 UNL     1      -7.686   7.277   7.904  1.00  0.00     0.045 C
BRANCH  22  25
HETATM   25  O5  UNL     1      -7.493   9.148   9.306  1.00  0.00    -0.390 OA
ATOM     26  H5  UNL     1      -8.092   9.461   8.639  1.00  0.00     0.210 HD
ENDBRANCH  22  25
ENDBRANCH  20  22
ENDBRANCH   1  20
BRANCH  18  27
HETATM   27  C17 UNL     1       1.049   4.386  10.639  1.00  0.00     0.129 C
BRANCH  27  28
HETATM   28  C18 UNL     1       2.112   5.126  11.318  1.00  0.00     0.275 C
HETATM   29  O4  UNL     1       3.210   4.760  11.613  1.00  0.00    -0.301 OA
ENDBRANCH  27  28
ENDBRANCH  18  27
TORSDOF 5
ENDMDL