MODEL 1
REMARK VINA RESULT: -7.975680284      0.000      0.000
REMARK  6 active torsions:
REMARK  status: ('A' for Active; 'I' for Inactive)
REMARK    1  A    between atoms: C2_2  and  C4_4
REMARK    2  A    between atoms: C4_4  and  N1_5
REMARK    3  A    between atoms: C9_12  and  N3_13
REMARK    4  A    between atoms: N4_17  and  C13_18
REMARK    5  A    between atoms: C13_18  and  C14_19
REMARK    6  A    between atoms: C21_29  and  N6_30
ROOT
HETATM    1  N1  UNL     1       2.737   6.196  10.159  1.00  0.00     0.094 N
HETATM    2  C5  UNL     1       3.323   5.340   9.089  1.00  0.00     0.277 C
HETATM    3  C6  UNL     1       2.210   5.063   8.101  1.00  0.00     0.075 C
HETATM    4  C7  UNL     1       1.000   4.534   8.820  1.00  0.00     0.013 A
HETATM    5  C8  UNL     1       0.970   4.600  10.177  1.00  0.00     0.065 A
HETATM    6  N2  UNL     1      -0.101   4.125  10.852  1.00  0.00    -0.193 N
ATOM      7  H2  UNL     1      -0.134   4.167  11.871  1.00  0.00     0.184 HD
HETATM    8  C9  UNL     1      -1.123   3.597  10.158  1.00  0.00     0.689 A
HETATM    9  N5  UNL     1      -1.102   3.528   8.818  1.00  0.00    -0.176 N
ATOM     10  H5  UNL     1      -1.894   3.120   8.321  1.00  0.00     0.186 HD
HETATM   11  C21 UNL     1      -0.041   3.996   8.119  1.00  0.00     0.123 A
HETATM   12  C22 UNL     1       2.069   5.179  10.996  1.00  0.00     0.330 C
ENDROOT
BRANCH   8  13
HETATM   13  N3  UNL     1      -2.228   3.120  10.892  1.00  0.00    -0.150 N
HETATM   14  C10 UNL     1      -2.089   2.158  11.993  1.00  0.00     0.158 C
HETATM   15  C11 UNL     1      -3.433   1.472  11.992  1.00  0.00     0.048 C
HETATM   16  C12 UNL     1      -3.901   1.269  13.437  1.00  0.00     0.279 C
HETATM   17  C19 UNL     1      -4.413   2.591  11.598  1.00  0.00     0.114 C
HETATM   18  N4  UNL     1      -3.845   2.662  13.875  1.00  0.00     0.090 N
HETATM   19  C18 UNL     1      -4.729   3.302  12.911  1.00  0.00     0.287 C
HETATM   20  C20 UNL     1      -3.603   3.442  10.710  1.00  0.00     0.244 C
HETATM   21  O1  UNL     1      -4.013   4.311   9.915  1.00  0.00    -0.272 OA
BRANCH  18  22
HETATM   22  C13 UNL     1      -4.315   2.824  15.227  1.00  0.00     0.277 C
BRANCH  22  23
HETATM   23  C14 UNL     1      -5.603   2.184  15.559  1.00  0.00     0.014 C
HETATM   24  C15 UNL     1      -6.486   3.213  16.297  1.00  0.00     0.006 C
HETATM   25  C16 UNL     1      -7.044   2.016  17.064  1.00  0.00     0.001 C
HETATM   26  C17 UNL     1      -5.725   1.295  16.744  1.00  0.00     0.006 C
ENDBRANCH  22  23
ENDBRANCH  18  22
ENDBRANCH   8  13
BRANCH  11  27
HETATM   27  N6  UNL     1      -0.073   3.911   6.840  1.00  0.00    -0.385 N
ATOM     28  H62 UNL     1       0.733   3.505   6.365  1.00  0.00     0.157 HD
ATOM     29  H61 UNL     1      -0.858   4.222   6.269  1.00  0.00     0.157 HD
ENDBRANCH  11  27
BRANCH   1  30
HETATM   30  C4  UNL     1       3.820   6.750  10.940  1.00  0.00     0.276 C
BRANCH  30  31
HETATM   31  C2  UNL     1       4.500   5.836  11.893  1.00  0.00     0.006 C
HETATM   32  C1  UNL     1       5.913   5.470  11.647  1.00  0.00     0.011 C
HETATM   33  C3  UNL     1       4.416   6.513  13.276  1.00  0.00     0.011 C
ENDBRANCH  30  31
ENDBRANCH   1  30
TORSDOF 6
ENDMDL