MODEL 3
REMARK VINA RESULT: -7.544379493      1.352      1.361
REMARK  7 active torsions:
REMARK  status: ('A' for Active; 'I' for Inactive)
REMARK    1  A    between atoms: C2_2  and  C3_3
REMARK    2  A    between atoms: C13_14  and  O1_15
REMARK    3  A    between atoms: O1_15  and  C14_16
REMARK    4  A    between atoms: C14_16  and  C15_17
REMARK    5  A    between atoms: C15_17  and  O2_18
REMARK    6  A    between atoms: C16_20  and  C18_22
REMARK    7  A    between atoms: C18_22  and  O3_23
ROOT
HETATM    1  C3  UNL     1       0.378   5.822   9.514  1.00  0.00     0.141 C
HETATM    2  C4  UNL     1       1.359   6.730  10.109  1.00  0.00     0.060 C
HETATM    3  N1  UNL     1       2.137   7.456  10.564  1.00  0.00    -0.197 NA
ENDROOT
BRANCH   1   4
HETATM    4  C2  UNL     1      -0.074   4.767  10.491  1.00  0.00     0.030 C
HETATM    5  C1  UNL     1       1.073   3.989  11.061  1.00  0.00     0.024 C
HETATM    6  C5  UNL     1      -0.935   5.403  11.606  1.00  0.00     0.029 C
HETATM    7  C6  UNL     1      -2.233   5.504  10.927  1.00  0.00    -0.017 A
HETATM    8  C7  UNL     1      -2.899   6.726  10.912  1.00  0.00     0.017 A
HETATM    9  C8  UNL     1      -3.597   5.697  11.579  1.00  0.00     0.005 A
HETATM   10  C21 UNL     1      -2.383   4.124  10.428  1.00  0.00     0.135 C
HETATM   11  C9  UNL     1      -3.606   5.187  12.947  1.00  0.00    -0.028 C
HETATM   12  C10 UNL     1      -2.740   5.989  13.918  1.00  0.00     0.016 C
HETATM   13  C11 UNL     1      -5.040   5.407  13.471  1.00  0.00     0.013 C
HETATM   14  C19 UNL     1      -3.248   3.724  12.907  1.00  0.00     0.077 C
HETATM   15  C12 UNL     1      -5.174   4.515  14.676  1.00  0.00     0.034 C
HETATM   16  C13 UNL     1      -5.423   3.138  14.069  1.00  0.00     0.132 C
HETATM   17  C16 UNL     1      -4.279   2.723  13.186  1.00  0.00     0.015 C
HETATM   18  C17 UNL     1      -3.614   1.561  13.971  1.00  0.00     0.021 C
HETATM   19  C20 UNL     1      -2.475   3.321  11.713  1.00  0.00     0.144 C
HETATM   20  O4  UNL     1      -1.843   2.280  11.699  1.00  0.00    -0.297 OA
HETATM   21  C22 UNL     1      -1.056   3.894   9.794  1.00  0.00     0.148 C
HETATM   22  O5  UNL     1      -0.844   3.136   8.889  1.00  0.00    -0.296 OA
BRANCH  16  23
HETATM   23  O1  UNL     1      -5.720   2.288  15.097  1.00  0.00    -0.383 OA
BRANCH  23  24
HETATM   24  C14 UNL     1      -6.484   2.909  16.084  1.00  0.00     0.194 C
BRANCH  24  25
HETATM   25  C15 UNL     1      -7.116   1.939  17.026  1.00  0.00     0.190 C
BRANCH  25  26
HETATM   26  O2  UNL     1      -6.840   0.628  16.687  1.00  0.00    -0.399 OA
ATOM     27  H2  UNL     1      -7.112   0.018  17.362  1.00  0.00     0.209 HD
ENDBRANCH  25  26
ENDBRANCH  24  25
ENDBRANCH  23  24
ENDBRANCH  16  23
BRANCH  17  28
HETATM   28  C18 UNL     1      -4.884   2.007  12.004  1.00  0.00     0.176 C
BRANCH  28  29
HETATM   29  O3  UNL     1      -5.691   2.786  11.202  1.00  0.00    -0.400 OA
ATOM     30  H3  UNL     1      -6.455   2.343  10.851  1.00  0.00     0.209 HD
ENDBRANCH  28  29
ENDBRANCH  17  28
ENDBRANCH   1   4
TORSDOF 7
ENDMDL