MODEL 5
REMARK VINA RESULT: -6.849472021      2.277      3.063
REMARK  7 active torsions:
REMARK  status: ('A' for Active; 'I' for Inactive)
REMARK    1  A    between atoms: C1_4  and  S1_6
REMARK    2  A    between atoms: S1_6  and  C2_7
REMARK    3  A    between atoms: C2_7  and  C3_8
REMARK       I    between atoms: C3_8  and  N3_10
REMARK    4  A    between atoms: N3_10  and  C4_12
REMARK    5  A    between atoms: C5_15  and  C6_16
REMARK    6  A    between atoms: C6_16  and  N5_17
REMARK    7  A    between atoms: N6_20  and  C9_21
ROOT
HETATM    1  C4  UNL     1      -4.154   1.634  12.515  1.00  0.00     0.151 A
HETATM    2  N4  UNL     1      -2.934   2.076  12.200  1.00  0.00    -0.338 N
ATOM      3  H4  UNL     1      -2.476   2.796  12.760  1.00  0.00     0.168 HD
HETATM    4  C5  UNL     1      -2.342   1.562  11.155  1.00  0.00     0.046 A
HETATM    5  C16 UNL     1      -3.005   0.602  10.447  1.00  0.00     0.080 A
HETATM    6  S2  UNL     1      -4.469   0.469  11.313  1.00  0.00    -0.064 SA
ENDROOT
BRANCH   4   7
HETATM    7  C6  UNL     1      -0.963   2.017  10.717  1.00  0.00     0.332 C
BRANCH   7   8
HETATM    8  N5  UNL     1      -1.039   3.432  10.519  1.00  0.00     0.123 N
HETATM    9  C7  UNL     1       0.061   4.152  11.122  1.00  0.00     0.305 C
HETATM   10  C8  UNL     1      -0.008   5.490  10.425  1.00  0.00     0.305 C
HETATM   11  N6  UNL     1      -0.730   5.245   9.196  1.00  0.00     0.123 N
HETATM   12  C15 UNL     1      -0.939   3.815   9.134  1.00  0.00     0.543 C
BRANCH  11  13
HETATM   13  C9  UNL     1       0.137   5.698   8.096  1.00  0.00     0.225 C
HETATM   14  C10 UNL     1      -0.226   4.877   6.902  1.00  0.00     0.036 C
HETATM   15  C11 UNL     1       0.942   4.909   5.914  1.00  0.00     0.002 C
HETATM   16  C12 UNL     1       2.026   4.099   6.601  1.00  0.00     0.000 C
HETATM   17  C13 UNL     1       2.444   4.675   7.903  1.00  0.00     0.002 C
HETATM   18  C14 UNL     1       1.551   5.710   8.484  1.00  0.00     0.036 C
ENDBRANCH  11  13
ENDBRANCH   7   8
ENDBRANCH   4   7
BRANCH   1  19
HETATM   19  N3  UNL     1      -4.928   2.003  13.513  1.00  0.00    -0.306 N
HETATM   20  C3  UNL     1      -5.023   3.424  13.740  1.00  0.00     0.233 C
HETATM   21  O1  UNL     1      -5.045   4.160  12.735  1.00  0.00    -0.272 OA
ATOM     22  H3  UNL     1      -5.429   1.327  14.090  1.00  0.00     0.171 HD
BRANCH  20  23
HETATM   23  C2  UNL     1      -5.086   3.882  15.134  1.00  0.00     0.185 C
BRANCH  23  24
HETATM   24  S1  UNL     1      -5.993   2.813  16.231  1.00  0.00    -0.088 SA
BRANCH  24  25
HETATM   25  C1  UNL     1      -5.183   1.324  16.699  1.00  0.00     0.148 C
HETATM   26  N1  UNL     1      -5.743   0.397  17.351  1.00  0.00    -0.382 N
ATOM     27  H12 UNL     1      -5.273  -0.467  17.622  1.00  0.00     0.157 HD
ATOM     28  H11 UNL     1      -6.715   0.525  17.630  1.00  0.00     0.157 HD
HETATM   29  N2  UNL     1      -3.830   1.146  16.309  1.00  0.00    -0.075 NA
ENDBRANCH  24  25
ENDBRANCH  23  24
ENDBRANCH  20  23
ENDBRANCH   1  19
TORSDOF 7
ENDMDL