MODEL 4
REMARK VINA RESULT: -7.785584341      0.683      1.063
REMARK  7 active torsions:
REMARK  status: ('A' for Active; 'I' for Inactive)
REMARK    1  A    between atoms: C2_2  and  C3_4
REMARK    2  A    between atoms: C8_9  and  C9_10
REMARK       I    between atoms: C9_10  and  N1_12
REMARK    3  A    between atoms: N2_15  and  C12_16
REMARK    4  A    between atoms: C12_16  and  C13_17
REMARK    5  A    between atoms: C13_17  and  C14_18
REMARK    6  A    between atoms: N3_20  and  O3_22
REMARK    7  A    between atoms: C17_25  and  O4_26
ROOT
HETATM    1  C3  UNL     1      -5.323   2.457  15.644  1.00  0.00    -0.002 C
HETATM    2  C4  UNL     1      -5.750   3.721  15.443  1.00  0.00    -0.073 C
HETATM    3  C5  UNL     1      -6.790   4.429  16.194  1.00  0.00     0.044 C
HETATM    4  C6  UNL     1      -4.973   4.319  14.308  1.00  0.00     0.041 C
HETATM    5  C7  UNL     1      -4.627   3.082  13.561  1.00  0.00     0.018 C
HETATM    6  C8  UNL     1      -3.802   3.211  12.352  1.00  0.00     0.112 C
HETATM    7  C17 UNL     1      -3.278   1.814  12.066  1.00  0.00     0.131 C
HETATM    8  C18 UNL     1      -4.283   0.766  12.573  1.00  0.00     0.034 C
HETATM    9  C19 UNL     1      -4.357   0.746  14.086  1.00  0.00     0.017 C
HETATM   10  C20 UNL     1      -4.241   2.142  14.638  1.00  0.00    -0.008 C
HETATM   11  C21 UNL     1      -2.947   2.389  15.333  1.00  0.00     0.021 C
ENDROOT
BRANCH   6  12
HETATM   12  C9  UNL     1      -2.743   4.183  12.336  1.00  0.00     0.228 C
HETATM   13  O2  UNL     1      -1.615   4.043  12.943  1.00  0.00    -0.273 OA
HETATM   14  N1  UNL     1      -2.835   5.388  11.652  1.00  0.00    -0.324 N
HETATM   15  C10 UNL     1      -3.940   5.895  10.887  1.00  0.00     0.158 C
HETATM   16  C16 UNL     1      -1.818   6.463  11.549  1.00  0.00     0.400 C
HETATM   17  C11 UNL     1      -3.945   7.392  11.165  1.00  0.00     0.294 C
HETATM   18  N2  UNL     1      -2.582   7.678  11.462  1.00  0.00     0.107 N
BRANCH  18  19
HETATM   19  C12 UNL     1      -2.458   8.517  12.614  1.00  0.00     0.280 C
BRANCH  19  20
HETATM   20  C13 UNL     1      -1.317   8.055  13.476  1.00  0.00     0.084 C
BRANCH  20  21
HETATM   21  C14 UNL     1      -0.363   9.140  13.783  1.00  0.00     0.007 C
HETATM   22  C15 UNL     1       0.624   9.632  12.765  1.00  0.00     0.065 C
HETATM   23  N3  UNL     1      -0.357   9.675  14.949  1.00  0.00    -0.278 N
ATOM     24  H3  UNL     1       0.307  10.423  15.149  1.00  0.00     0.193 HD
BRANCH  23  25
HETATM   25  O3  UNL     1      -1.210   9.269  15.925  1.00  0.00    -0.290 OA
ATOM     26  H3  UNL     1      -1.203   8.379  16.256  1.00  0.00     0.244 HD
ENDBRANCH  23  25
ENDBRANCH  20  21
ENDBRANCH  19  20
ENDBRANCH  18  19
ENDBRANCH   6  12
BRANCH   7  27
HETATM   27  O4  UNL     1      -3.172   1.540  10.696  1.00  0.00    -0.395 OA
ATOM     28  H4  UNL     1      -2.452   0.955  10.490  1.00  0.00     0.210 HD
ENDBRANCH   7  27
BRANCH   1  29
HETATM   29  C2  UNL     1      -5.858   1.603  16.669  1.00  0.00     0.152 C
HETATM   30  C1  UNL     1      -7.287   1.302  16.912  1.00  0.00     0.096 C
HETATM   31  O1  UNL     1      -5.042   1.025  17.475  1.00  0.00    -0.293 OA
ENDBRANCH   1  29
TORSDOF 7
ENDMDL