MODEL 3
REMARK VINA RESULT: -8.156275333      3.654      6.416
REMARK  6 active torsions:
REMARK  status: ('A' for Active; 'I' for Inactive)
REMARK    1  A    between atoms: C2_2  and  C3_3
REMARK    2  A    between atoms: C2_2  and  N6_30
REMARK    3  A    between atoms: C3_3  and  N1_4
REMARK       I    between atoms: N1_4  and  C4_6
REMARK       I    between atoms: C4_6  and  N2_8
REMARK    4  A    between atoms: C7_11  and  N3_12
REMARK    5  A    between atoms: C9_14  and  C10_15
REMARK    6  A    between atoms: C10_15  and  O2_16
ROOT
HETATM    1  N1  UNL     1      -5.249   7.403  10.081  1.00  0.00    -0.341 N
ATOM      2  H1  UNL     1      -5.896   6.774  10.556  1.00  0.00     0.164 HD
HETATM    3  C4  UNL     1      -3.898   7.345  10.419  1.00  0.00     0.318 C
HETATM    4  O1  UNL     1      -3.095   8.104   9.873  1.00  0.00    -0.247 OA
HETATM    5  N2  UNL     1      -3.461   6.370  11.435  1.00  0.00    -0.329 N
HETATM    6  C5  UNL     1      -4.551   5.566  11.846  1.00  0.00     0.130 C
HETATM    7  C6  UNL     1      -4.321   4.350  12.635  1.00  0.00     0.047 C
HETATM    8  C7  UNL     1      -3.397   4.445  13.811  1.00  0.00     0.114 C
HETATM    9  C13 UNL     1      -1.966   4.454  13.509  1.00  0.00     0.010 C
HETATM   10  C14 UNL     1      -1.313   5.771  13.946  1.00  0.00     0.009 C
HETATM   11  C15 UNL     1      -1.789   6.938  13.165  1.00  0.00     0.026 C
HETATM   12  C16 UNL     1      -2.067   6.533  11.738  1.00  0.00     0.089 C
HETATM   13  C17 UNL     1      -1.304   5.345  11.259  1.00  0.00     0.026 C
HETATM   14  C18 UNL     1      -1.564   4.144  12.118  1.00  0.00     0.009 C
ENDROOT
BRANCH   8  15
HETATM   15  N3  UNL     1      -3.786   3.319  14.668  1.00  0.00    -0.282 N
HETATM   16  C8  UNL     1      -4.913   3.196  15.349  1.00  0.00     0.141 A
HETATM   17  C9  UNL     1      -4.902   1.983  15.988  1.00  0.00     0.078 A
HETATM   18  N4  UNL     1      -3.725   1.393  15.660  1.00  0.00    -0.286 N
HETATM   19  N5  UNL     1      -3.080   2.249  14.852  1.00  0.00    -0.240 N
ATOM     20  H4  UNL     1      -3.395   0.478  15.968  1.00  0.00     0.188 HD
ATOM     21  H5  UNL     1      -2.162   2.081  14.441  1.00  0.00     0.208 HD
BRANCH  17  22
HETATM   22  C10 UNL     1      -5.926   1.381  16.844  1.00  0.00     0.103 A
HETATM   23  C11 UNL     1      -6.313   2.214  18.064  1.00  0.00     0.048 A
HETATM   24  C12 UNL     1      -7.294   1.890  16.977  1.00  0.00     0.048 A
BRANCH  22  25
HETATM   25  O2  UNL     1      -5.733   0.001  17.063  1.00  0.00    -0.383 OA
ATOM     26  H2  UNL     1      -6.545  -0.484  17.155  1.00  0.00     0.211 HD
ENDBRANCH  22  25
ENDBRANCH  17  22
ENDBRANCH   8  15
BRANCH   1  27
HETATM   27  C3  UNL     1      -5.777   8.309   9.090  1.00  0.00     0.159 C
BRANCH  27  28
HETATM   28  C2  UNL     1      -7.114   8.861   9.557  1.00  0.00     0.235 C
HETATM   29  C1  UNL     1      -7.359   8.591  11.011  1.00  0.00     0.044 C
BRANCH  28  30
HETATM   30  N6  UNL     1      -8.197   8.547   8.691  1.00  0.00     0.085 N
HETATM   31  C19 UNL     1      -8.515   9.583   7.752  1.00  0.00     0.310 C
HETATM   32  C20 UNL     1      -8.009   7.253   8.046  1.00  0.00     0.310 C
ENDBRANCH  28  30
ENDBRANCH  27  28
ENDBRANCH   1  27
TORSDOF 6
ENDMDL