MODEL 5
REMARK VINA RESULT: -6.384532955      1.988      2.516
REMARK  4 active torsions:
REMARK  status: ('A' for Active; 'I' for Inactive)
REMARK    1  A    between atoms: O1_1  and  C1_3
REMARK    2  A    between atoms: C1_3  and  C2_4
REMARK    3  A    between atoms: C4_7  and  N1_8
REMARK    4  A    between atoms: C8_12  and  O3_13
ROOT
HETATM    1  C2  UNL     1      -2.103  -3.242  18.709  1.00  0.00     0.207 C
HETATM    2  C3  UNL     1      -3.116  -2.161  18.584  1.00  0.00     0.210 C
HETATM    3  O2  UNL     1      -3.716  -1.804  19.792  1.00  0.00    -0.340 OA
HETATM    4  C4  UNL     1      -2.659  -1.626  20.690  1.00  0.00     0.406 C
HETATM    5  O4  UNL     1      -2.120  -2.855  20.936  1.00  0.00    -0.185 OA
HETATM    6  O5  UNL     1      -1.607  -3.469  19.950  1.00  0.00    -0.227 OA
ENDROOT
BRANCH   4   7
HETATM    7  N1  UNL     1      -3.048  -0.952  21.885  1.00  0.00    -0.342 N
HETATM    8  C5  UNL     1      -4.297  -1.312  22.425  1.00  0.00     0.063 C
HETATM    9  C6  UNL     1      -5.167  -0.191  22.888  1.00  0.00     0.047 C
HETATM   10  C7  UNL     1      -4.458   0.937  23.534  1.00  0.00     0.038 C
HETATM   11  C8  UNL     1      -2.953   0.881  23.402  1.00  0.00     0.136 C
HETATM   12  C9  UNL     1      -2.667   0.406  21.975  1.00  0.00     0.158 C
BRANCH  11  13
HETATM   13  O3  UNL     1      -2.374   2.115  23.627  1.00  0.00    -0.394 OA
ATOM     14  H3  UNL     1      -2.507   2.704  22.893  1.00  0.00     0.210 HD
ENDBRANCH  11  13
ENDBRANCH   4   7
BRANCH   1  15
HETATM   15  C1  UNL     1      -0.920  -2.863  17.808  1.00  0.00     0.201 C
BRANCH  15  16
HETATM   16  O1  UNL     1       0.284  -3.129  18.414  1.00  0.00    -0.398 OA
ATOM     17  H1  UNL     1       0.350  -2.707  19.263  1.00  0.00     0.209 HD
ENDBRANCH  15  16
ENDBRANCH   1  15
TORSDOF 4
ENDMDL