MODEL 5
REMARK VINA RESULT: -5.621870043      2.991      5.171
REMARK  3 active torsions:
REMARK  status: ('A' for Active; 'I' for Inactive)
REMARK    1  A    between atoms: C5_7  and  N3_8
REMARK    2  A    between atoms: C9_14  and  C10_15
REMARK    3  A    between atoms: C10_15  and  O1_16
ROOT
HETATM    1  C1  UNL     1      -1.192   1.639  23.158  1.00  0.00     0.310 C
HETATM    2  N1  UNL     1      -2.411   1.027  23.571  1.00  0.00     0.086 N
HETATM    3  C2  UNL     1      -2.293  -0.439  23.507  1.00  0.00     0.293 C
HETATM    4  C3  UNL     1      -3.741  -0.920  23.402  1.00  0.00     0.144 C
HETATM    5  C4  UNL     1      -4.140  -0.644  22.001  1.00  0.00     0.068 C
HETATM    6  N2  UNL     1      -4.452  -0.412  20.911  1.00  0.00    -0.197 NA
HETATM    7  C5  UNL     1      -4.647  -0.278  24.370  1.00  0.00     0.117 C
HETATM    8  C9  UNL     1      -4.075   0.708  25.302  1.00  0.00     0.062 C
HETATM    9  C11 UNL     1      -2.787   1.331  24.916  1.00  0.00     0.280 C
ENDROOT
BRANCH   7  10
HETATM   10  N3  UNL     1      -5.348  -1.314  25.145  1.00  0.00    -0.345 N
HETATM   11  C6  UNL     1      -6.557  -1.844  24.870  1.00  0.00     0.109 A
HETATM   12  C7  UNL     1      -6.873  -2.790  25.833  1.00  0.00     0.106 A
HETATM   13  N4  UNL     1      -5.837  -2.820  26.690  1.00  0.00    -0.361 N
HETATM   14  C8  UNL     1      -4.912  -1.920  26.267  1.00  0.00     0.183 A
ATOM     15  H4  UNL     1      -5.760  -3.415  27.515  1.00  0.00     0.166 HD
ENDBRANCH   7  10
BRANCH   8  16
HETATM   16  C10 UNL     1      -5.062   1.846  25.607  1.00  0.00     0.172 C
BRANCH  16  17
HETATM   17  O1  UNL     1      -4.980   2.817  24.602  1.00  0.00    -0.400 OA
ATOM     18  H1  UNL     1      -4.082   2.887  24.302  1.00  0.00     0.209 HD
ENDBRANCH  16  17
ENDBRANCH   8  16
TORSDOF 3
ENDMDL