MODEL 3
REMARK VINA RESULT: -5.704390746      3.375      4.619
REMARK  6 active torsions:
REMARK  status: ('A' for Active; 'I' for Inactive)
REMARK    1  A    between atoms: O1_2  and  C2_3
REMARK    2  A    between atoms: C4_5  and  O2_6
REMARK    3  A    between atoms: C5_8  and  O3_9
REMARK    4  A    between atoms: C7_12  and  N1_13
REMARK    5  A    between atoms: N1_13  and  N2_15
REMARK    6  A    between atoms: N2_15  and  N3_16
ROOT
HETATM    1  C2  UNL     1      -1.495  -0.132  23.230  1.00  0.00     0.130 C
HETATM    2  C3  UNL     1      -2.371   0.017  22.027  1.00  0.00     0.066 C
HETATM    3  C4  UNL     1      -3.727  -0.580  22.167  1.00  0.00     0.149 C
HETATM    4  C5  UNL     1      -4.378  -0.304  23.493  1.00  0.00     0.155 C
HETATM    5  C6  UNL     1      -3.490  -0.902  24.563  1.00  0.00     0.076 C
HETATM    6  C7  UNL     1      -4.007  -0.360  25.906  1.00  0.00     0.257 C
HETATM    7  O4  UNL     1      -3.834   1.024  25.668  1.00  0.00    -0.364 OA
HETATM    8  C8  UNL     1      -2.580   1.164  25.095  1.00  0.00     0.178 C
HETATM    9  C9  UNL     1      -2.190  -0.170  24.530  1.00  0.00     0.049 C
ENDROOT
BRANCH   6  10
HETATM   10  N1  UNL     1      -5.353  -0.706  26.153  1.00  0.00    -0.222 N
ATOM     11  H1  UNL     1      -6.059   0.028  26.109  1.00  0.00     0.200 HD
BRANCH  10  12
HETATM   12  N2  UNL     1      -5.717  -1.854  26.421  1.00  0.00    -0.246 NA
BRANCH  12  13
HETATM   13  N3  UNL     1      -6.073  -3.029  26.602  1.00  0.00    -0.261 N
ATOM     14  H32 UNL     1      -5.235  -3.131  26.028  1.00  0.00     0.193 HD
ATOM     15  H31 UNL     1      -6.424  -3.969  26.791  1.00  0.00     0.193 HD
ENDBRANCH  12  13
ENDBRANCH  10  12
ENDBRANCH   6  10
BRANCH   4  16
HETATM   16  O3  UNL     1      -5.628  -0.864  23.535  1.00  0.00    -0.392 OA
ATOM     17  H3  UNL     1      -5.983  -0.812  24.415  1.00  0.00     0.210 HD
ENDBRANCH   4  16
BRANCH   3  18
HETATM   18  O2  UNL     1      -3.736  -1.972  21.988  1.00  0.00    -0.393 OA
ATOM     19  H2  UNL     1      -4.592  -2.312  21.757  1.00  0.00     0.210 HD
ENDBRANCH   3  18
BRANCH   1  20
HETATM   20  O1  UNL     1      -0.604   0.940  23.236  1.00  0.00    -0.390 OA
HETATM   21  C1  UNL     1       0.684   0.515  23.507  1.00  0.00     0.202 C
ENDBRANCH   1  20
TORSDOF 6
ENDMDL