MODEL 5
REMARK VINA RESULT: -5.427601274      1.994      2.760
REMARK  4 active torsions:
REMARK  status: ('A' for Active; 'I' for Inactive)
REMARK    1  A    between atoms: O1_2  and  C2_3
REMARK    2  A    between atoms: C4_6  and  O3_7
REMARK    3  A    between atoms: C5_9  and  O4_10
REMARK    4  A    between atoms: C8_15  and  O6_16
ROOT
HETATM    1  C2  UNL     1      -2.651  -1.422  20.887  1.00  0.00     0.290 C
HETATM    2  O2  UNL     1      -1.968  -0.883  21.949  1.00  0.00    -0.356 OA
HETATM    3  C3  UNL     1      -2.052   0.460  22.104  1.00  0.00     0.207 C
HETATM    4  C4  UNL     1      -2.440   0.716  23.569  1.00  0.00     0.197 C
HETATM    5  C5  UNL     1      -3.962   0.710  23.604  1.00  0.00     0.288 C
HETATM    6  O5  UNL     1      -4.520   0.643  22.369  1.00  0.00    -0.351 OA
HETATM    7  C6  UNL     1      -4.810  -0.595  21.878  1.00  0.00     0.154 C
HETATM    8  C7  UNL     1      -4.743  -1.714  22.869  1.00  0.00     0.042 C
HETATM    9  C8  UNL     1      -3.999  -0.832  20.636  1.00  0.00     0.204 C
ENDROOT
BRANCH   1  10
HETATM   10  O1  UNL     1      -2.713  -2.796  21.083  1.00  0.00    -0.363 OA
HETATM   11  C1  UNL     1      -1.847  -3.412  20.211  1.00  0.00     0.204 C
ENDBRANCH   1  10
BRANCH   9  12
HETATM   12  O6  UNL     1      -4.718  -1.752  19.851  1.00  0.00    -0.383 OA
HETATM   13  C9  UNL     1      -5.970  -1.243  19.515  1.00  0.00     0.202 C
ENDBRANCH   9  12
BRANCH   4  14
HETATM   14  O3  UNL     1      -1.900   1.912  23.977  1.00  0.00    -0.389 OA
ATOM     15  H3  UNL     1      -1.967   1.978  24.922  1.00  0.00     0.210 HD
ENDBRANCH   4  14
BRANCH   5  16
HETATM   16  O4  UNL     1      -4.336   1.938  24.178  1.00  0.00    -0.369 OA
ATOM     17  H4  UNL     1      -4.987   1.728  24.837  1.00  0.00     0.212 HD
ENDBRANCH   5  16
TORSDOF 4
ENDMDL