MODEL 5
REMARK VINA RESULT: -5.770366990      1.849      4.533
REMARK  4 active torsions:
REMARK  status: ('A' for Active; 'I' for Inactive)
REMARK    1  A    between atoms: O1_2  and  C2_3
REMARK    2  A    between atoms: C3_4  and  C4_5
REMARK    3  A    between atoms: C4_5  and  O2_6
REMARK    4  A    between atoms: C10_16  and  O6_17
ROOT
HETATM    1  C2  UNL     1      -3.679  -1.653  20.791  1.00  0.00     0.183 C
HETATM    2  C3  UNL     1      -2.215  -1.844  20.553  1.00  0.00     0.179 C
HETATM    3  O3  UNL     1      -1.562  -1.562  21.731  1.00  0.00    -0.348 OA
HETATM    4  C5  UNL     1      -1.587  -0.233  22.017  1.00  0.00     0.295 C
HETATM    5  O4  UNL     1      -1.270  -0.089  23.387  1.00  0.00    -0.323 OA
HETATM    6  C6  UNL     1      -2.040   0.980  23.820  1.00  0.00     0.160 C
HETATM    7  C7  UNL     1      -2.218   0.933  25.315  1.00  0.00     0.078 C
HETATM    8  C8  UNL     1      -1.373   2.255  23.416  1.00  0.00     0.078 C
HETATM    9  O5  UNL     1      -3.255   0.764  23.166  1.00  0.00    -0.343 OA
HETATM   10  C9  UNL     1      -2.856   0.479  21.840  1.00  0.00     0.211 C
HETATM   11  C10 UNL     1      -3.905  -0.163  21.032  1.00  0.00     0.183 C
ENDROOT
BRANCH   2  12
HETATM   12  C4  UNL     1      -1.845  -3.183  19.990  1.00  0.00     0.198 C
BRANCH  12  13
HETATM   13  O2  UNL     1      -1.879  -4.212  20.893  1.00  0.00    -0.398 OA
ATOM     14  H2  UNL     1      -1.088  -4.737  20.927  1.00  0.00     0.209 HD
ENDBRANCH  12  13
ENDBRANCH   2  12
BRANCH   1  15
HETATM   15  O1  UNL     1      -4.194  -2.383  21.838  1.00  0.00    -0.385 OA
HETATM   16  C1  UNL     1      -5.292  -3.138  21.478  1.00  0.00     0.202 C
ENDBRANCH   1  15
BRANCH  11  17
HETATM   17  O6  UNL     1      -5.171   0.058  21.603  1.00  0.00    -0.390 OA
ATOM     18  H6  UNL     1      -5.331   0.988  21.708  1.00  0.00     0.210 HD
ENDBRANCH  11  17
TORSDOF 4
ENDMDL