MODEL 2
REMARK VINA RESULT: -5.790797485      1.541      3.940
REMARK  4 active torsions:
REMARK  status: ('A' for Active; 'I' for Inactive)
REMARK    1  A    between atoms: O1_2  and  C2_3
REMARK    2  A    between atoms: C3_4  and  O2_5
REMARK    3  A    between atoms: C8_13  and  O5_14
REMARK    4  A    between atoms: C8_13  and  O6_16
ROOT
HETATM    1  C2  UNL     1      -3.473  -1.177  21.484  1.00  0.00     0.214 C
HETATM    2  C3  UNL     1      -2.109  -0.600  21.521  1.00  0.00     0.184 C
HETATM    3  C4  UNL     1      -1.614   0.036  22.749  1.00  0.00     0.184 C
HETATM    4  O3  UNL     1      -1.432   1.437  22.617  1.00  0.00    -0.356 OA
HETATM    5  C5  UNL     1      -1.111   1.739  23.942  1.00  0.00     0.339 C
HETATM    6  O4  UNL     1      -2.048   1.063  24.712  1.00  0.00    -0.359 OA
HETATM    7  C6  UNL     1      -2.476  -0.025  23.952  1.00  0.00     0.161 C
HETATM    8  C7  UNL     1      -3.887   0.254  23.508  1.00  0.00     0.106 C
HETATM    9  C8  UNL     1      -4.367  -0.888  22.630  1.00  0.00     0.192 C
ENDROOT
BRANCH   9  10
HETATM   10  O5  UNL     1      -5.659  -0.460  22.233  1.00  0.00    -0.363 OA
ATOM     11  H5  UNL     1      -5.692   0.462  22.008  1.00  0.00     0.213 HD
ENDBRANCH   9  10
BRANCH   9  12
HETATM   12  O6  UNL     1      -4.576  -1.946  23.503  1.00  0.00    -0.358 OA
HETATM   13  C9  UNL     1      -5.423  -2.922  23.092  1.00  0.00     0.205 C
ENDBRANCH   9  12
BRANCH   1  14
HETATM   14  O1  UNL     1      -4.190  -0.818  20.319  1.00  0.00    -0.383 OA
HETATM   15  C1  UNL     1      -4.177  -1.741  19.333  1.00  0.00     0.202 C
ENDBRANCH   1  14
BRANCH   2  16
HETATM   16  O2  UNL     1      -1.160  -1.592  21.166  1.00  0.00    -0.390 OA
ATOM     17  H2  UNL     1      -0.303  -1.195  21.067  1.00  0.00     0.210 HD
ENDBRANCH   2  16
TORSDOF 4
ENDMDL