MODEL 4
REMARK VINA RESULT: -5.821932133      2.184      4.096
REMARK  4 active torsions:
REMARK  status: ('A' for Active; 'I' for Inactive)
REMARK    1  A    between atoms: O1_2  and  C2_3
REMARK    2  A    between atoms: C6_9  and  O4_10
REMARK    3  A    between atoms: C8_12  and  O5_13
REMARK    4  A    between atoms: C9_15  and  O6_16
ROOT
HETATM    1  C2  UNL     1      -4.846  -0.957  25.560  1.00  0.00     0.264 C
HETATM    2  C3  UNL     1      -3.868   0.136  25.907  1.00  0.00     0.095 C
HETATM    3  C4  UNL     1      -2.726   0.016  24.893  1.00  0.00     0.160 C
HETATM    4  O2  UNL     1      -2.984  -1.156  24.172  1.00  0.00    -0.350 OA
HETATM    5  C5  UNL     1      -4.157  -1.041  23.417  1.00  0.00     0.294 C
HETATM    6  O3  UNL     1      -5.248  -0.714  24.230  1.00  0.00    -0.329 OA
HETATM    7  C6  UNL     1      -3.968  -0.070  22.285  1.00  0.00     0.207 C
HETATM    8  C8  UNL     1      -2.664   0.679  22.499  1.00  0.00     0.183 C
HETATM    9  C9  UNL     1      -2.709   1.166  23.942  1.00  0.00     0.178 C
ENDROOT
BRANCH   1  10
HETATM   10  O1  UNL     1      -5.890  -1.078  26.424  1.00  0.00    -0.366 OA
HETATM   11  C1  UNL     1      -6.510  -2.319  26.403  1.00  0.00     0.204 C
ENDBRANCH   1  10
BRANCH   9  12
HETATM   12  O6  UNL     1      -1.619   2.013  24.108  1.00  0.00    -0.390 OA
ATOM     13  H6  UNL     1      -1.154   2.199  23.300  1.00  0.00     0.210 HD
ENDBRANCH   9  12
BRANCH   7  14
HETATM   14  O4  UNL     1      -4.083  -0.593  21.039  1.00  0.00    -0.383 OA
HETATM   15  C7  UNL     1      -3.178  -1.589  20.727  1.00  0.00     0.202 C
ENDBRANCH   7  14
BRANCH   8  16
HETATM   16  O5  UNL     1      -2.552   1.766  21.638  1.00  0.00    -0.390 OA
ATOM     17  H5  UNL     1      -1.814   2.319  21.869  1.00  0.00     0.210 HD
ENDBRANCH   8  16
TORSDOF 4
ENDMDL