MODEL 1
REMARK VINA RESULT: -6.403449878      0.000      0.000
REMARK  4 active torsions:
REMARK  status: ('A' for Active; 'I' for Inactive)
REMARK    1  A    between atoms: O1_3  and  C2_4
REMARK    2  A    between atoms: C3_5  and  O2_6
REMARK    3  A    between atoms: C4_8  and  O3_9
REMARK    4  A    between atoms: C7_13  and  N2_14
ROOT
HETATM    1  N1  UNL     1       0.182   0.236  23.398  1.00  0.00    -0.164 NA
HETATM    2  C1  UNL     1      -0.735   0.540  22.730  1.00  0.00     0.229 C
HETATM    3  O1  UNL     1      -1.795   0.882  21.939  1.00  0.00    -0.273 OA
ENDROOT
BRANCH   3   4
HETATM    4  C2  UNL     1      -3.071   0.382  22.161  1.00  0.00     0.202 C
HETATM    5  C3  UNL     1      -3.638   0.820  23.510  1.00  0.00     0.183 C
HETATM    6  C4  UNL     1      -5.160   0.745  23.347  1.00  0.00     0.172 C
HETATM    7  C5  UNL     1      -5.463  -0.652  22.934  1.00  0.00     0.005 C
HETATM    8  C6  UNL     1      -4.595  -1.467  22.392  1.00  0.00     0.001 C
HETATM    9  C7  UNL     1      -3.170  -1.113  22.107  1.00  0.00     0.163 C
BRANCH   5  10
HETATM   10  O2  UNL     1      -3.282   2.111  23.829  1.00  0.00    -0.390 OA
ATOM     11  H2  UNL     1      -2.748   2.153  24.613  1.00  0.00     0.210 HD
ENDBRANCH   5  10
BRANCH   6  12
HETATM   12  O3  UNL     1      -5.459   1.559  22.247  1.00  0.00    -0.389 OA
ATOM     13  H3  UNL     1      -5.752   2.384  22.615  1.00  0.00     0.210 HD
ENDBRANCH   6  12
BRANCH   9  14
HETATM   14  N2  UNL     1      -2.740  -1.678  20.859  1.00  0.00    -0.293 N
HETATM   15  C8  UNL     1      -3.510  -1.684  19.739  1.00  0.00     0.112 A
HETATM   16  C9  UNL     1      -2.791  -2.295  18.749  1.00  0.00     0.037 A
HETATM   17  C10 UNL     1      -1.585  -2.644  19.319  1.00  0.00     0.108 A
HETATM   18  N3  UNL     1      -1.584  -2.254  20.603  1.00  0.00    -0.309 N
ATOM     19  H3  UNL     1      -0.820  -2.383  21.266  1.00  0.00     0.186 HD
ENDBRANCH   9  14
ENDBRANCH   3   4
TORSDOF 4
ENDMDL