MODEL 1
REMARK VINA RESULT: -6.246811980      0.000      0.000
REMARK  4 active torsions:
REMARK  status: ('A' for Active; 'I' for Inactive)
REMARK    1  A    between atoms: C2_2  and  C4_4
REMARK    2  A    between atoms: C4_4  and  C5_5
REMARK    3  A    between atoms: C9_12  and  O4_13
REMARK    4  A    between atoms: C10_15  and  O5_16
ROOT
HETATM    1  C5  UNL     1      -3.095  -0.394  21.336  1.00  0.00     0.157 C
HETATM    2  O1  UNL     1      -2.126  -1.297  20.909  1.00  0.00    -0.343 OA
HETATM    3  C6  UNL     1      -2.811  -2.373  20.355  1.00  0.00     0.217 C
HETATM    4  C7  UNL     1      -2.997  -2.138  18.870  1.00  0.00     0.241 C
HETATM    5  O2  UNL     1      -1.708  -2.419  18.412  1.00  0.00    -0.361 OA
HETATM    6  C8  UNL     1      -1.334  -3.529  19.155  1.00  0.00     0.341 C
HETATM    7  O3  UNL     1      -1.996  -3.477  20.362  1.00  0.00    -0.326 OA
HETATM    8  C9  UNL     1      -4.091  -2.523  21.096  1.00  0.00     0.214 C
HETATM    9  C10 UNL     1      -4.095  -1.308  22.005  1.00  0.00     0.181 C
ENDROOT
BRANCH   1  10
HETATM   10  C4  UNL     1      -2.430   0.533  22.327  1.00  0.00     0.038 C
BRANCH  10  11
HETATM   11  C2  UNL     1      -1.415  -0.168  23.192  1.00  0.00    -0.020 C
HETATM   12  C1  UNL     1      -0.120   0.611  23.086  1.00  0.00     0.009 C
HETATM   13  C3  UNL     1      -1.830  -0.207  24.641  1.00  0.00     0.009 C
ENDBRANCH  10  11
ENDBRANCH   1  10
BRANCH   9  14
HETATM   14  O5  UNL     1      -5.361  -0.725  22.058  1.00  0.00    -0.390 OA
ATOM     15  H5  UNL     1      -6.025  -1.361  22.295  1.00  0.00     0.210 HD
ENDBRANCH   9  14
BRANCH   8  16
HETATM   16  O4  UNL     1      -4.136  -3.678  21.882  1.00  0.00    -0.387 OA
ATOM     17  H4  UNL     1      -4.932  -3.747  22.395  1.00  0.00     0.210 HD
ENDBRANCH   8  16
TORSDOF 4
ENDMDL