MODEL 3
REMARK VINA RESULT: -5.411564468      2.001      3.646
REMARK  4 active torsions:
REMARK  status: ('A' for Active; 'I' for Inactive)
REMARK    1  A    between atoms: N1_2  and  C3_4
REMARK    2  A    between atoms: C4_6  and  O2_8
REMARK    3  A    between atoms: C6_10  and  O3_11
REMARK    4  A    between atoms: C7_13  and  S1_14
ROOT
HETATM    1  S1  UNL     1      -3.288  -1.631  19.920  1.00  0.00    -0.039 SA
HETATM    2  C8  UNL     1      -2.034  -2.872  20.214  1.00  0.00     0.134 C
HETATM    3  N2  UNL     1      -1.224  -3.695  20.437  1.00  0.00    -0.184 NA
ENDROOT
BRANCH   1   4
HETATM    4  C7  UNL     1      -3.909  -1.096  21.512  1.00  0.00     0.145 C
HETATM    5  C3  UNL     1      -2.778  -0.949  22.545  1.00  0.00     0.239 C
HETATM    6  O1  UNL     1      -3.510  -0.708  23.689  1.00  0.00    -0.328 OA
HETATM    7  C4  UNL     1      -4.617  -1.533  23.663  1.00  0.00     0.188 C
HETATM    8  C5  UNL     1      -5.854  -0.653  23.757  1.00  0.00     0.082 C
HETATM    9  C6  UNL     1      -4.672  -2.170  22.273  1.00  0.00     0.199 C
BRANCH   5  10
HETATM   10  N1  UNL     1      -1.843   0.056  22.169  1.00  0.00    -0.395 N
HETATM   11  C1  UNL     1      -0.491  -0.175  22.567  1.00  0.00     0.145 C
HETATM   12  C2  UNL     1      -2.300   1.411  22.299  1.00  0.00     0.145 C
ENDBRANCH   5  10
BRANCH   7  13
HETATM   13  O2  UNL     1      -4.579  -2.491  24.662  1.00  0.00    -0.363 OA
ATOM     14  H2  UNL     1      -5.169  -3.215  24.486  1.00  0.00     0.213 HD
ENDBRANCH   7  13
BRANCH   9  15
HETATM   15  O3  UNL     1      -5.966  -2.332  21.821  1.00  0.00    -0.389 OA
ATOM     16  H3  UNL     1      -6.423  -3.028  22.278  1.00  0.00     0.210 HD
ENDBRANCH   9  15
ENDBRANCH   1   4
TORSDOF 4
ENDMDL