MODEL 2
REMARK VINA RESULT: -7.230094593      0.801      1.064
REMARK  9 active torsions:
REMARK  status: ('A' for Active; 'I' for Inactive)
REMARK    1  A    between atoms: C2_2  and  C3_3
REMARK    2  A    between atoms: C3_3  and  C4_4
REMARK    3  A    between atoms: C4_4  and  C5_5
REMARK    4  A    between atoms: C5_5  and  C6_6
REMARK    5  A    between atoms: C6_6  and  C7_7
REMARK    6  A    between atoms: C7_7  and  O1_8
REMARK    7  A    between atoms: O1_8  and  C8_9
REMARK    8  A    between atoms: N2_14  and  C11_15
REMARK    9  A    between atoms: C14_23  and  N5_24
ROOT
HETATM    1  C11 UNL     1      -1.695   3.504  11.420  1.00  0.00     0.087 C
HETATM    2  N3  UNL     1      -2.545   2.910  12.188  1.00  0.00    -0.343 N
ATOM      3  H3  UNL     1      -2.782   3.235  13.125  1.00  0.00     0.163 HD
HETATM    4  C12 UNL     1      -3.123   1.742  11.583  1.00  0.00     0.258 C
HETATM    5  C13 UNL     1      -4.425   1.982  10.892  1.00  0.00     0.301 C
HETATM    6  N4  UNL     1      -4.928   0.614  10.725  1.00  0.00    -0.018 N
ATOM      7  H41 UNL     1      -4.613   0.151   9.873  1.00  0.00     0.281 HD
ATOM      8  H42 UNL     1      -5.925   0.555  10.519  1.00  0.00     0.281 HD
HETATM    9  C14 UNL     1      -4.536  -0.046  11.933  1.00  0.00     0.580 C
HETATM   10  N6  UNL     1      -3.402   0.673  12.484  1.00  0.00     0.010 N
ATOM     11  H61 UNL     1      -3.548   0.983  13.445  1.00  0.00     0.285 HD
ATOM     12  H62 UNL     1      -2.595   0.077  12.664  1.00  0.00     0.285 HD
HETATM   13  C15 UNL     1      -2.045   1.368  10.547  1.00  0.00     0.235 C
HETATM   14  F1  UNL     1      -0.975   0.772  11.156  1.00  0.00    -0.244 F
HETATM   15  C16 UNL     1      -1.623   2.758  10.143  1.00  0.00     0.118 C
ENDROOT
BRANCH   1  16
HETATM   16  N2  UNL     1      -0.940   4.680  11.699  1.00  0.00    -0.301 N
HETATM   17  C8  UNL     1      -1.010   5.490  12.852  1.00  0.00     0.223 A
HETATM   18  N1  UNL     1      -0.177   6.485  12.754  1.00  0.00    -0.354 N
HETATM   19  C9  UNL     1       0.555   6.463  11.521  1.00  0.00     0.143 A
ATOM     20  H1  UNL     1      -0.059   7.199  13.473  1.00  0.00     0.163 HD
HETATM   21  C10 UNL     1       0.043   5.232  10.806  1.00  0.00     0.153 A
BRANCH  17  22
HETATM   22  O1  UNL     1      -1.818   5.333  13.982  1.00  0.00    -0.322 OA
BRANCH  22  23
HETATM   23  C7  UNL     1      -3.152   5.841  13.969  1.00  0.00     0.178 C
BRANCH  23  24
HETATM   24  C6  UNL     1      -4.016   4.855  14.679  1.00  0.00     0.027 C
BRANCH  24  25
HETATM   25  C5  UNL     1      -5.460   4.913  14.232  1.00  0.00     0.002 C
BRANCH  25  26
HETATM   26  C4  UNL     1      -6.405   4.455  15.300  1.00  0.00     0.000 C
BRANCH  26  27
HETATM   27  C3  UNL     1      -6.222   2.976  15.534  1.00  0.00    -0.000 C
BRANCH  27  28
HETATM   28  C2  UNL     1      -6.724   2.551  16.908  1.00  0.00    -0.005 C
HETATM   29  C1  UNL     1      -7.280   1.150  16.893  1.00  0.00     0.005 C
ENDBRANCH  27  28
ENDBRANCH  26  27
ENDBRANCH  25  26
ENDBRANCH  24  25
ENDBRANCH  23  24
ENDBRANCH  22  23
ENDBRANCH  17  22
ENDBRANCH   1  16
BRANCH   9  30
HETATM   30  N5  UNL     1      -4.105  -1.412  11.716  1.00  0.00    -0.026 N
ATOM     31  H53 UNL     1      -4.304  -1.990  12.533  1.00  0.00     0.278 HD
ATOM     32  H52 UNL     1      -4.703  -1.878  11.033  1.00  0.00     0.278 HD
ATOM     33  H51 UNL     1      -3.123  -1.482  11.450  1.00  0.00     0.278 HD
ENDBRANCH   9  30
TORSDOF 9
ENDMDL