MODEL 3
REMARK VINA RESULT: -6.372701649      1.132      1.276
REMARK  10 active torsions:
REMARK  status: ('A' for Active; 'I' for Inactive)
REMARK    1  A    between atoms: C2_2  and  C4_4
REMARK    2  A    between atoms: C5_5  and  O1_6
REMARK    3  A    between atoms: C6_8  and  O2_9
REMARK    4  A    between atoms: C7_11  and  O3_12
REMARK    5  A    between atoms: C9_15  and  N1_16
REMARK    6  A    between atoms: C11_20  and  C12_21
REMARK    7  A    between atoms: C12_21  and  O4_22
REMARK    8  A    between atoms: N3_24  and  O5_26
REMARK    9  A    between atoms: O5_26  and  C13_27
REMARK   10  A    between atoms: C13_27  and  C14_28
ROOT
HETATM    1  C4  UNL     1      -2.056   5.274  11.798  1.00  0.00     0.044 C
HETATM    2  C5  UNL     1      -1.374   5.334  10.496  1.00  0.00     0.155 C
HETATM    3  C6  UNL     1      -2.186   5.447   9.267  1.00  0.00     0.176 C
HETATM    4  C7  UNL     1      -3.280   4.418   9.323  1.00  0.00     0.151 C
HETATM    5  C8  UNL     1      -4.157   4.737  10.500  1.00  0.00     0.060 C
HETATM    6  C9  UNL     1      -3.451   4.743  11.812  1.00  0.00     0.099 C
ENDROOT
BRANCH   6   7
HETATM    7  N1  UNL     1      -3.536   3.392  12.358  1.00  0.00    -0.345 N
HETATM    8  C10 UNL     1      -3.077   2.291  11.720  1.00  0.00     0.183 A
HETATM    9  N2  UNL     1      -3.314   1.223  12.502  1.00  0.00    -0.348 N
HETATM   10  C11 UNL     1      -3.923   1.636  13.639  1.00  0.00     0.102 A
ATOM     11  H2  UNL     1      -3.074   0.258  12.275  1.00  0.00     0.167 HD
HETATM   12  C15 UNL     1      -4.054   2.987  13.535  1.00  0.00     0.126 A
BRANCH  10  13
HETATM   13  C12 UNL     1      -4.343   0.784  14.736  1.00  0.00     0.189 C
HETATM   14  N3  UNL     1      -4.325   1.171  15.961  1.00  0.00    -0.243 N
ATOM     15  H3  UNL     1      -4.004   2.115  16.178  1.00  0.00     0.196 HD
BRANCH  13  16
HETATM   16  O4  UNL     1      -4.781  -0.501  14.458  1.00  0.00    -0.343 OA
ATOM     17  H4  UNL     1      -4.321  -1.014  13.805  1.00  0.00     0.219 HD
ENDBRANCH  13  16
BRANCH  14  18
HETATM   18  O5  UNL     1      -4.724   0.353  16.983  1.00  0.00    -0.276 OA
BRANCH  18  19
HETATM   19  C13 UNL     1      -6.032   0.390  17.521  1.00  0.00     0.232 C
BRANCH  19  20
HETATM   20  C14 UNL     1      -6.513   1.805  17.697  1.00  0.00     0.250 C
HETATM   21  F1  UNL     1      -6.233   2.163  19.019  1.00  0.00    -0.253 F
ENDBRANCH  19  20
ENDBRANCH  18  19
ENDBRANCH  14  18
ENDBRANCH  10  13
ENDBRANCH   6   7
BRANCH   1  22
HETATM   22  C2  UNL     1      -1.964   6.569  12.591  1.00  0.00    -0.014 C
HETATM   23  C1  UNL     1      -1.979   6.258  14.088  1.00  0.00     0.010 C
HETATM   24  C3  UNL     1      -3.098   7.519  12.354  1.00  0.00     0.010 C
ENDBRANCH   1  22
BRANCH   2  25
HETATM   25  O1  UNL     1      -0.436   6.396  10.526  1.00  0.00    -0.392 OA
ATOM     26  H1  UNL     1      -0.768   7.108   9.991  1.00  0.00     0.210 HD
ENDBRANCH   2  25
BRANCH   4  27
HETATM   27  O3  UNL     1      -4.044   4.554   8.166  1.00  0.00    -0.393 OA
ATOM     28  H3  UNL     1      -3.611   5.190   7.609  1.00  0.00     0.210 HD
ENDBRANCH   4  27
BRANCH   3  29
HETATM   29  O2  UNL     1      -2.623   6.707   8.926  1.00  0.00    -0.390 OA
ATOM     30  H2  UNL     1      -2.774   7.316   9.639  1.00  0.00     0.210 HD
ENDBRANCH   3  29
TORSDOF 10
ENDMDL