MODEL 3
REMARK VINA RESULT: -6.917085653      3.763      7.185
REMARK  9 active torsions:
REMARK  status: ('A' for Active; 'I' for Inactive)
REMARK    1  A    between atoms: N1_1  and  C1_4
REMARK    2  A    between atoms: N2_9  and  C4_10
REMARK    3  A    between atoms: C5_12  and  C6_13
REMARK    4  A    between atoms: C6_13  and  S2_14
REMARK    5  A    between atoms: S2_14  and  C7_15
REMARK    6  A    between atoms: C7_15  and  C8_16
REMARK    7  A    between atoms: C8_16  and  C9_17
REMARK    8  A    between atoms: C10_20  and  O4_21
REMARK    9  A    between atoms: C11_23  and  O5_24
ROOT
HETATM    1  C4  UNL     1      -4.402   1.383  12.783  1.00  0.00     0.261 C
HETATM    2  O1  UNL     1      -3.043   1.532  12.709  1.00  0.00    -0.355 OA
HETATM    3  C5  UNL     1      -2.818   2.656  11.917  1.00  0.00     0.165 C
HETATM    4  C10 UNL     1      -3.782   2.446  10.809  1.00  0.00     0.180 C
HETATM    5  C11 UNL     1      -5.047   2.174  11.665  1.00  0.00     0.198 C
ENDROOT
BRANCH   1   6
HETATM    6  N2  UNL     1      -4.929   1.801  14.101  1.00  0.00    -0.304 N
HETATM    7  C1  UNL     1      -4.808   0.987  15.142  1.00  0.00     0.149 A
HETATM    8  S1  UNL     1      -5.537   1.862  16.412  1.00  0.00    -0.023 SA
HETATM    9  C2  UNL     1      -5.970   3.254  15.531  1.00  0.00     0.176 A
HETATM   10  F1  UNL     1      -6.612   4.394  15.960  1.00  0.00    -0.197 F
HETATM   11  C3  UNL     1      -5.516   2.958  14.274  1.00  0.00     0.146 A
BRANCH   7  12
HETATM   12  N1  UNL     1      -4.254  -0.209  15.177  1.00  0.00    -0.379 N
ATOM     13  H12 UNL     1      -3.828  -0.681  15.975  1.00  0.00     0.158 HD
ATOM     14  H11 UNL     1      -4.148  -0.885  14.421  1.00  0.00     0.158 HD
ENDBRANCH   7  12
ENDBRANCH   1   6
BRANCH   5  15
HETATM   15  O5  UNL     1      -5.932   1.443  10.920  1.00  0.00    -0.388 OA
ATOM     16  H5  UNL     1      -5.706   1.403   9.997  1.00  0.00     0.210 HD
ENDBRANCH   5  15
BRANCH   3  17
HETATM   17  C6  UNL     1      -1.417   2.953  11.596  1.00  0.00     0.108 C
BRANCH  17  18
HETATM   18  S2  UNL     1      -0.855   4.627  11.643  1.00  0.00    -0.166 SA
BRANCH  18  19
HETATM   19  C7  UNL     1       0.307   5.125  10.381  1.00  0.00     0.084 C
BRANCH  19  20
HETATM   20  C8  UNL     1       0.842   3.850   9.720  1.00  0.00     0.123 C
BRANCH  20  21
HETATM   21  C9  UNL     1       2.273   3.666  10.022  1.00  0.00     0.173 C
HETATM   22  O2  UNL     1       2.708   4.112  11.127  1.00  0.00    -0.648 OA
HETATM   23  O3  UNL     1       3.153   3.043   9.179  1.00  0.00    -0.648 OA
ENDBRANCH  20  21
ENDBRANCH  19  20
ENDBRANCH  18  19
ENDBRANCH  17  18
ENDBRANCH   3  17
BRANCH   4  24
HETATM   24  O4  UNL     1      -3.953   3.512   9.969  1.00  0.00    -0.390 OA
ATOM     25  H4  UNL     1      -4.743   3.493   9.441  1.00  0.00     0.210 HD
ENDBRANCH   4  24
TORSDOF 9
ENDMDL