MODEL 5
REMARK VINA RESULT: -6.220367720      2.657      4.151
REMARK  8 active torsions:
REMARK  status: ('A' for Active; 'I' for Inactive)
REMARK    1  A    between atoms: C2_2  and  C3_3
REMARK    2  A    between atoms: C3_3  and  S1_4
REMARK    3  A    between atoms: S1_4  and  C4_5
REMARK    4  A    between atoms: C5_8  and  C6_9
REMARK    5  A    between atoms: C6_9  and  O1_10
REMARK    6  A    between atoms: N2_12  and  O2_14
REMARK    7  A    between atoms: C7_16  and  C8_17
REMARK       I    between atoms: C8_17  and  N3_19
REMARK    8  A    between atoms: C10_22  and  C11_23
ROOT
HETATM    1  C4  UNL     1      -5.027   1.862  13.732  1.00  0.00     0.203 C
HETATM    2  N1  UNL     1      -4.465   3.179  13.765  1.00  0.00    -0.389 N
ATOM      3  H1  UNL     1      -4.998   3.994  14.069  1.00  0.00     0.156 HD
HETATM    4  C5  UNL     1      -3.094   3.267  13.337  1.00  0.00     0.169 C
HETATM    5  C7  UNL     1      -2.816   2.913  11.933  1.00  0.00     0.132 C
HETATM    6  C10 UNL     1      -2.895   1.406  11.804  1.00  0.00     0.170 C
HETATM    7  S2  UNL     1      -4.599   0.944  12.233  1.00  0.00    -0.117 SA
ENDROOT
BRANCH   4   8
HETATM    8  C6  UNL     1      -2.565   4.558  13.819  1.00  0.00     0.159 C
HETATM    9  N2  UNL     1      -3.329   5.556  14.117  1.00  0.00    -0.249 N
ATOM     10  H2  UNL     1      -4.339   5.454  14.018  1.00  0.00     0.196 HD
BRANCH   8  11
HETATM   11  O1  UNL     1      -1.204   4.718  13.960  1.00  0.00    -0.347 OA
ATOM     12  H1  UNL     1      -0.873   5.335  14.602  1.00  0.00     0.219 HD
ENDBRANCH   8  11
BRANCH   9  13
HETATM   13  O2  UNL     1      -2.822   6.750  14.564  1.00  0.00    -0.288 OA
ATOM     14  H2  UNL     1      -3.091   7.581  14.191  1.00  0.00     0.244 HD
ENDBRANCH   9  13
ENDBRANCH   4   8
BRANCH   5  15
HETATM   15  C8  UNL     1      -3.586   3.620  10.895  1.00  0.00     0.225 C
HETATM   16  O3  UNL     1      -4.874   3.576  10.887  1.00  0.00    -0.273 OA
HETATM   17  N3  UNL     1      -3.010   4.376   9.861  1.00  0.00    -0.365 N
HETATM   18  C9  UNL     1      -3.833   5.042   8.893  1.00  0.00     0.149 C
ATOM     19  H3  UNL     1      -1.995   4.453   9.798  1.00  0.00     0.161 HD
ENDBRANCH   5  15
BRANCH   1  20
HETATM   20  S1  UNL     1      -4.567   0.850  15.151  1.00  0.00    -0.134 SA
BRANCH  20  21
HETATM   21  C3  UNL     1      -4.998   1.792  16.642  1.00  0.00     0.076 C
BRANCH  21  22
HETATM   22  C2  UNL     1      -5.879   0.903  17.494  1.00  0.00     0.006 C
HETATM   23  C1  UNL     1      -7.287   1.021  16.959  1.00  0.00     0.006 C
ENDBRANCH  21  22
ENDBRANCH  20  21
ENDBRANCH   1  20
BRANCH   6  24
HETATM   24  C11 UNL     1      -2.499   0.920  10.482  1.00  0.00     0.313 C
HETATM   25  O4  UNL     1      -3.176   0.062   9.940  1.00  0.00    -0.259 OA
HETATM   26  F1  UNL     1      -1.409   1.413   9.879  1.00  0.00    -0.163 F
ENDBRANCH   6  24
TORSDOF 8
ENDMDL