MODEL 4
REMARK VINA RESULT: -6.313590489      3.839      6.759
REMARK  8 active torsions:
REMARK  status: ('A' for Active; 'I' for Inactive)
REMARK    1  A    between atoms: O1_2  and  C2_3
REMARK    2  A    between atoms: C3_5  and  C4_6
REMARK    3  A    between atoms: C5_10  and  N2_11
REMARK    4  A    between atoms: C8_16  and  N4_17
REMARK    5  A    between atoms: C9_22  and  N6_23
REMARK    6  A    between atoms: C11_29  and  O3_30
REMARK    7  A    between atoms: O3_30  and  C12_31
REMARK    8  A    between atoms: C12_31  and  C14_33
ROOT
HETATM    1  N2  UNL     1      -2.297   3.471  11.481  1.00  0.00    -0.317 N
HETATM    2  C6  UNL     1      -3.088   3.713  10.385  1.00  0.00     0.185 A
HETATM    3  N3  UNL     1      -2.377   4.258   9.393  1.00  0.00    -0.346 N
ATOM      4  H3  UNL     1      -2.732   4.531   8.476  1.00  0.00     0.167 HD
HETATM    5  C7  UNL     1      -1.119   4.380   9.821  1.00  0.00     0.123 A
HETATM    6  C8  UNL     1       0.028   4.871   9.226  1.00  0.00     0.145 A
HETATM    7  N5  UNL     1       1.169   4.859   9.935  1.00  0.00    -0.175 N
ATOM      8  H5  UNL     1       2.018   5.220   9.502  1.00  0.00     0.186 HD
HETATM    9  C9  UNL     1       1.235   4.389  11.192  1.00  0.00     0.679 A
HETATM   10  N7  UNL     1       0.108   3.906  11.778  1.00  0.00    -0.174 N
ATOM     11  H7  UNL     1       0.153   3.549  12.731  1.00  0.00     0.186 HD
HETATM   12  C10 UNL     1      -1.071   3.891  11.118  1.00  0.00     0.155 A
ENDROOT
BRANCH   1  13
HETATM   13  C5  UNL     1      -2.739   2.906  12.686  1.00  0.00     0.160 C
HETATM   14  C3  UNL     1      -3.301   3.782  13.751  1.00  0.00     0.188 C
HETATM   15  O2  UNL     1      -4.621   3.357  13.898  1.00  0.00    -0.346 OA
HETATM   16  C2  UNL     1      -4.465   1.966  13.906  1.00  0.00     0.291 C
HETATM   17  C11 UNL     1      -3.721   1.773  12.621  1.00  0.00     0.203 C
BRANCH  14  18
HETATM   18  C4  UNL     1      -3.151   5.228  13.544  1.00  0.00     0.087 C
HETATM   19  N1  UNL     1      -2.206   5.899  14.032  1.00  0.00    -0.409 N
ATOM     20  H12 UNL     1      -1.519   5.398  14.597  1.00  0.00     0.155 HD
ATOM     21  H11 UNL     1      -2.102   6.903  13.889  1.00  0.00     0.155 HD
ENDBRANCH  14  18
BRANCH  16  22
HETATM   22  O1  UNL     1      -3.712   1.679  15.035  1.00  0.00    -0.363 OA
HETATM   23  C1  UNL     1      -4.366   0.754  15.820  1.00  0.00     0.204 C
ENDBRANCH  16  22
BRANCH  17  24
HETATM   24  O3  UNL     1      -3.223   0.558  12.360  1.00  0.00    -0.371 OA
BRANCH  24  25
HETATM   25  C12 UNL     1      -3.545  -0.133  11.269  1.00  0.00     0.146 C
HETATM   26  C13 UNL     1      -4.880   0.282  10.634  1.00  0.00     0.042 C
BRANCH  25  27
HETATM   27  C14 UNL     1      -3.729  -1.588  11.671  1.00  0.00     0.253 C
HETATM   28  F1  UNL     1      -2.621  -2.329  11.307  1.00  0.00    -0.253 F
ENDBRANCH  25  27
ENDBRANCH  24  25
ENDBRANCH  17  24
ENDBRANCH   1  13
BRANCH   6  29
HETATM   29  N4  UNL     1      -0.053   5.315   8.028  1.00  0.00    -0.383 N
ATOM     30  H42 UNL     1      -0.879   5.200   7.440  1.00  0.00     0.157 HD
ATOM     31  H41 UNL     1       0.750   5.809   7.640  1.00  0.00     0.157 HD
ENDBRANCH   6  29
BRANCH   9  32
HETATM   32  N6  UNL     1       2.314   4.364  11.898  1.00  0.00    -0.234 N
ATOM     33  H62 UNL     1       2.833   5.238  11.975  1.00  0.00     0.174 HD
ATOM     34  H61 UNL     1       2.667   3.532  12.372  1.00  0.00     0.174 HD
ENDBRANCH   9  32
TORSDOF 8
ENDMDL