MODEL 3
REMARK VINA RESULT: -6.272987341      1.789      3.356
REMARK  11 active torsions:
REMARK  status: ('A' for Active; 'I' for Inactive)
REMARK    1  A    between atoms: C2_2  and  C3_3
REMARK    2  A    between atoms: C3_3  and  C4_4
REMARK    3  A    between atoms: C5_6  and  C6_7
REMARK    4  A    between atoms: C6_7  and  O2_12
REMARK    5  A    between atoms: N1_8  and  O1_10
REMARK    6  A    between atoms: O2_12  and  C7_13
REMARK    7  A    between atoms: C7_13  and  O3_14
REMARK    8  A    between atoms: C11_19  and  C12_20
REMARK    9  A    between atoms: C12_20  and  O5_21
REMARK   10  A    between atoms: C13_23  and  O6_24
REMARK   11  A    between atoms: C14_26  and  O7_27
ROOT
HETATM    1  C7  UNL     1      -4.716   3.526  13.777  1.00  0.00     0.206 C
HETATM    2  C9  UNL     1      -6.049   3.453  14.494  1.00  0.00     0.150 C
HETATM    3  C10 UNL     1      -6.031   2.611  15.708  1.00  0.00     0.141 C
HETATM    4  O4  UNL     1      -6.432   3.074  16.747  1.00  0.00    -0.297 OA
HETATM    5  C11 UNL     1      -5.516   1.222  15.594  1.00  0.00     0.110 C
HETATM    6  C13 UNL     1      -4.123   1.391  14.946  1.00  0.00     0.165 C
HETATM    7  C14 UNL     1      -4.303   2.053  13.624  1.00  0.00     0.211 C
ENDROOT
BRANCH   1   8
HETATM    8  O2  UNL     1      -4.980   4.031  12.505  1.00  0.00    -0.293 OA
BRANCH   8   9
HETATM    9  C6  UNL     1      -4.144   3.816  11.380  1.00  0.00     0.166 C
HETATM   10  N1  UNL     1      -4.315   2.889  10.615  1.00  0.00    -0.247 N
ATOM     11  H1  UNL     1      -3.572   3.001   9.926  1.00  0.00     0.196 HD
BRANCH   9  12
HETATM   12  C5  UNL     1      -3.046   4.780  11.182  1.00  0.00     0.077 C
HETATM   13  C4  UNL     1      -1.797   4.564  11.448  1.00  0.00     0.016 C
HETATM   14 CL1  UNL     1      -0.647   5.941  11.113  1.00  0.00    -0.089 Cl
BRANCH  13  15
HETATM   15  C3  UNL     1      -1.119   3.389  11.993  1.00  0.00     0.051 C
BRANCH  15  16
HETATM   16  C2  UNL     1      -0.709   2.358  10.965  1.00  0.00     0.001 C
HETATM   17  C1  UNL     1      -1.429   1.048  11.089  1.00  0.00     0.005 C
ENDBRANCH  15  16
ENDBRANCH  13  15
ENDBRANCH   9  12
BRANCH  10  18
HETATM   18  O1  UNL     1      -4.944   1.840  10.220  1.00  0.00    -0.288 OA
ATOM     19  H1  UNL     1      -5.109   1.142   9.597  1.00  0.00     0.244 HD
ENDBRANCH  10  18
ENDBRANCH   8   9
ENDBRANCH   1   8
BRANCH   1  20
HETATM   20  O3  UNL     1      -3.719   4.162  14.455  1.00  0.00    -0.357 OA
HETATM   21  C8  UNL     1      -4.011   5.491  14.658  1.00  0.00     0.205 C
ENDBRANCH   1  20
BRANCH   7  22
HETATM   22  O7  UNL     1      -5.464   1.450  13.058  1.00  0.00    -0.387 OA
ATOM     23  H7  UNL     1      -6.125   2.126  13.154  1.00  0.00     0.210 HD
ENDBRANCH   7  22
BRANCH   6  24
HETATM   24  O6  UNL     1      -3.400   2.083  15.888  1.00  0.00    -0.392 OA
ATOM     25  H6  UNL     1      -2.661   2.429  15.402  1.00  0.00     0.210 HD
ENDBRANCH   6  24
BRANCH   5  26
HETATM   26  C12 UNL     1      -5.240   0.669  16.977  1.00  0.00     0.179 C
BRANCH  26  27
HETATM   27  O5  UNL     1      -5.918  -0.535  17.149  1.00  0.00    -0.400 OA
ATOM     28  H5  UNL     1      -6.620  -0.603  16.514  1.00  0.00     0.209 HD
ENDBRANCH  26  27
ENDBRANCH   5  26
TORSDOF 11
ENDMDL