MODEL 5
REMARK VINA RESULT: -6.364716155      4.114      6.654
REMARK  11 active torsions:
REMARK  status: ('A' for Active; 'I' for Inactive)
REMARK    1  A    between atoms: C2_2  and  C3_3
REMARK    2  A    between atoms: C3_3  and  C4_4
REMARK    3  A    between atoms: C4_4  and  C5_5
REMARK    4  A    between atoms: C6_6  and  N1_7
REMARK    5  A    between atoms: N1_7  and  N2_9
REMARK    6  A    between atoms: N5_17  and  C8_18
REMARK    7  A    between atoms: C8_18  and  C9_19
REMARK    8  A    between atoms: C10_21  and  O2_22
REMARK    9  A    between atoms: C11_24  and  O3_25
REMARK   10  A    between atoms: C12_27  and  O4_28
REMARK   11  A    between atoms: C13_30  and  O5_31
ROOT
HETATM    1  C5  UNL     1      -4.375   1.758  14.007  1.00  0.00     0.058 A
HETATM    2  C6  UNL     1      -4.317   0.451  14.440  1.00  0.00     0.090 A
HETATM    3  C7  UNL     1      -4.344  -0.318  13.298  1.00  0.00     0.140 A
HETATM    4  N4  UNL     1      -4.416   0.515  12.227  1.00  0.00    -0.307 N
ATOM      5  H4  UNL     1      -4.449   0.223  11.250  1.00  0.00     0.186 HD
HETATM    6  N5  UNL     1      -4.435   1.785  12.664  1.00  0.00    -0.292 N
ENDROOT
BRANCH   6   7
HETATM    7  C8  UNL     1      -4.505   2.947  11.817  1.00  0.00     0.183 C
BRANCH   7   8
HETATM    8  C9  UNL     1      -3.195   3.291  11.174  1.00  0.00     0.175 C
HETATM    9  O1  UNL     1      -2.678   2.266  10.391  1.00  0.00    -0.349 OA
HETATM   10  C10 UNL     1      -1.312   2.517  10.248  1.00  0.00     0.288 C
HETATM   11  C11 UNL     1      -0.947   3.958  10.280  1.00  0.00     0.204 C
HETATM   12  C12 UNL     1      -1.999   4.907   9.825  1.00  0.00     0.183 C
HETATM   13  C13 UNL     1      -3.404   4.466  10.230  1.00  0.00     0.180 C
BRANCH  10  14
HETATM   14  O2  UNL     1      -0.690   1.815  11.307  1.00  0.00    -0.369 OA
ATOM     15  H2  UNL     1       0.072   2.333  11.539  1.00  0.00     0.212 HD
ENDBRANCH  10  14
BRANCH  11  16
HETATM   16  O3  UNL     1       0.171   4.133   9.432  1.00  0.00    -0.388 OA
ATOM     17  H3  UNL     1       0.170   5.037   9.140  1.00  0.00     0.210 HD
ENDBRANCH  11  16
BRANCH  12  18
HETATM   18  O4  UNL     1      -1.800   6.144  10.481  1.00  0.00    -0.390 OA
ATOM     19  H4  UNL     1      -2.157   6.835   9.935  1.00  0.00     0.210 HD
ENDBRANCH  12  18
BRANCH  13  20
HETATM   20  O5  UNL     1      -4.009   3.930   9.074  1.00  0.00    -0.390 OA
ATOM     21  H5  UNL     1      -4.945   3.942   9.242  1.00  0.00     0.210 HD
ENDBRANCH  13  20
ENDBRANCH   7   8
ENDBRANCH   6   7
BRANCH   1  22
HETATM   22  C4  UNL     1      -4.373   2.940  14.869  1.00  0.00     0.061 C
BRANCH  22  23
HETATM   23  C3  UNL     1      -5.787   3.410  15.207  1.00  0.00     0.006 C
BRANCH  23  24
HETATM   24  C2  UNL     1      -5.797   4.912  14.926  1.00  0.00    -0.004 C
HETATM   25  C1  UNL     1      -4.412   5.431  14.620  1.00  0.00     0.005 C
ENDBRANCH  23  24
ENDBRANCH  22  23
ENDBRANCH   1  22
BRANCH   2  26
HETATM   26  N1  UNL     1      -4.245   0.044  15.800  1.00  0.00    -0.284 N
ATOM     27  H1  UNL     1      -3.347  -0.217  16.206  1.00  0.00     0.188 HD
BRANCH  26  28
HETATM   28  N2  UNL     1      -5.280   0.006  16.499  1.00  0.00    -0.249 N
HETATM   29  N3  UNL     1      -5.874  -0.030  17.591  1.00  0.00    -0.331 N
ATOM     30  H32 UNL     1      -5.092  -0.024  18.245  1.00  0.00     0.178 HD
ATOM     31  H31 UNL     1      -6.718  -0.061  18.162  1.00  0.00     0.178 HD
ATOM     32  H2  UNL     1      -6.035   0.001  15.813  1.00  0.00     0.207 HD
ENDBRANCH  26  28
ENDBRANCH   2  26
TORSDOF 11
ENDMDL