MODEL 3
REMARK VINA RESULT: -6.917937040      2.117      4.353
REMARK  12 active torsions:
REMARK  status: ('A' for Active; 'I' for Inactive)
REMARK    1  A    between atoms: C2_2  and  C3_3
REMARK    2  A    between atoms: C3_3  and  N2_8
REMARK    3  A    between atoms: N1_4  and  O1_6
REMARK       I    between atoms: N2_8  and  C5_10
REMARK    4  A    between atoms: C5_10  and  O3_12
REMARK    5  A    between atoms: O3_12  and  C6_13
REMARK    6  A    between atoms: C6_13  and  O4_14
REMARK    7  A    between atoms: C6_13  and  C11_22
REMARK    8  A    between atoms: O4_14  and  C7_15
REMARK       I    between atoms: C7_15  and  N3_17
REMARK    9  A    between atoms: N3_17  and  C8_19
REMARK   10  A    between atoms: C11_22  and  C13_25
REMARK   11  A    between atoms: C13_25  and  N4_26
REMARK   12  A    between atoms: C13_25  and  O6_30
ROOT
HETATM    1  C6  UNL     1      -3.794   0.569  12.954  1.00  0.00     0.326 C
ENDROOT
BRANCH   1   2
HETATM    2  O3  UNL     1      -4.300   1.887  12.855  1.00  0.00    -0.268 OA
BRANCH   2   3
HETATM    3  C5  UNL     1      -3.512   3.013  12.650  1.00  0.00     0.368 C
HETATM    4  N2  UNL     1      -2.534   3.448  13.562  1.00  0.00    -0.290 N
ATOM      5  H2  UNL     1      -2.404   2.903  14.414  1.00  0.00     0.172 HD
HETATM    6  O2  UNL     1      -3.709   3.645  11.595  1.00  0.00    -0.238 OA
BRANCH   4   7
HETATM    7  C3  UNL     1      -1.726   4.579  13.380  1.00  0.00     0.105 C
HETATM    8  N1  UNL     1      -0.684   4.515  12.622  1.00  0.00    -0.255 N
ATOM      9  H1  UNL     1      -0.112   5.351  12.506  1.00  0.00     0.195 HD
BRANCH   7  10
HETATM   10  C2  UNL     1      -2.030   5.863  14.038  1.00  0.00     0.074 C
HETATM   11  C1  UNL     1      -3.461   5.906  14.549  1.00  0.00     0.013 C
ENDBRANCH   7  10
BRANCH   8  12
HETATM   12  O1  UNL     1      -0.314   3.366  11.964  1.00  0.00    -0.284 OA
HETATM   13  C4  UNL     1       0.146   3.341  10.648  1.00  0.00     0.237 C
ENDBRANCH   8  12
ENDBRANCH   4   7
ENDBRANCH   2   3
ENDBRANCH   1   2
BRANCH   1  14
HETATM   14  O4  UNL     1      -4.500  -0.065  14.022  1.00  0.00    -0.268 OA
BRANCH  14  15
HETATM   15  C7  UNL     1      -4.659   0.538  15.250  1.00  0.00     0.363 C
HETATM   16  O5  UNL     1      -3.855   0.323  16.178  1.00  0.00    -0.238 OA
HETATM   17  N3  UNL     1      -5.755   1.414  15.453  1.00  0.00    -0.333 N
ATOM     18  H3  UNL     1      -6.406   1.582  14.686  1.00  0.00     0.165 HD
BRANCH  17  19
HETATM   19  C8  UNL     1      -5.977   2.081  16.729  1.00  0.00     0.078 C
HETATM   20  C9  UNL     1      -6.854   1.164  17.556  1.00  0.00     0.032 C
HETATM   21  C10 UNL     1      -6.712   3.357  16.467  1.00  0.00     0.032 C
ENDBRANCH  17  19
ENDBRANCH  14  15
ENDBRANCH   1  14
BRANCH   1  22
HETATM   22  C11 UNL     1      -4.087  -0.257  11.722  1.00  0.00     0.201 C
HETATM   23  C12 UNL     1      -5.099   0.489  10.888  1.00  0.00     0.062 C
HETATM   24  F1  UNL     1      -4.680  -1.438  12.189  1.00  0.00    -0.233 F
BRANCH  22  25
HETATM   25  C13 UNL     1      -2.827  -0.558  10.986  1.00  0.00     0.361 C
BRANCH  25  26
HETATM   26  N4  UNL     1      -1.812   0.397  11.361  1.00  0.00    -0.050 N
ATOM     27  H43 UNL     1      -1.018   0.388  10.721  1.00  0.00     0.277 HD
ATOM     28  H42 UNL     1      -2.112   1.360  11.206  1.00  0.00     0.277 HD
ATOM     29  H41 UNL     1      -1.531   0.232  12.327  1.00  0.00     0.277 HD
ENDBRANCH  25  26
BRANCH  25  30
HETATM   30  O6  UNL     1      -2.325  -1.822  11.256  1.00  0.00    -0.367 OA
ATOM     31  H6  UNL     1      -1.595  -1.813  11.863  1.00  0.00     0.212 HD
ENDBRANCH  25  30
ENDBRANCH  22  25
ENDBRANCH   1  22
TORSDOF 12
ENDMDL