MODEL 5
REMARK VINA RESULT: -5.422166244      3.984      6.739
REMARK  9 active torsions:
REMARK  status: ('A' for Active; 'I' for Inactive)
REMARK    1  A    between atoms: S1_2  and  C2_3
REMARK    2  A    between atoms: C3_4  and  O1_5
REMARK    3  A    between atoms: C4_7  and  C5_8
REMARK    4  A    between atoms: C5_8  and  S2_9
REMARK    5  A    between atoms: S2_9  and  C6_10
REMARK    6  A    between atoms: C6_10  and  C7_11
REMARK    7  A    between atoms: C8_14  and  N1_15
REMARK    8  A    between atoms: C11_20  and  N3_21
REMARK    9  A    between atoms: C12_26  and  N5_27
ROOT
HETATM    1  N1  UNL     1      -4.517   2.056  15.067  1.00  0.00    -0.093 N
HETATM    2  N2  UNL     1      -5.409   2.910  15.541  1.00  0.00    -0.283 N
ATOM      3  H2  UNL     1      -5.407   3.867  15.189  1.00  0.00     0.187 HD
HETATM    4  C9  UNL     1      -6.318   2.566  16.471  1.00  0.00     0.066 A
HETATM    5  C10 UNL     1      -7.327   3.529  17.007  1.00  0.00     0.074 C
HETATM    6  C11 UNL     1      -6.335   1.284  16.954  1.00  0.00     0.138 A
HETATM    7  N4  UNL     1      -5.437   0.402  16.483  1.00  0.00    -0.174 N
ATOM      8  H4  UNL     1      -5.426  -0.559  16.824  1.00  0.00     0.186 HD
HETATM    9  C12 UNL     1      -4.549   0.812  15.551  1.00  0.00     0.696 A
ENDROOT
BRANCH   1  10
HETATM   10  C8  UNL     1      -3.583   2.456  14.092  1.00  0.00     0.279 C
HETATM   11  C2  UNL     1      -3.502   3.866  13.684  1.00  0.00     0.129 C
HETATM   12  C3  UNL     1      -3.513   3.733  12.144  1.00  0.00     0.166 C
HETATM   13  C4  UNL     1      -4.467   2.545  12.051  1.00  0.00     0.163 C
HETATM   14  O2  UNL     1      -3.807   1.673  12.929  1.00  0.00    -0.354 OA
BRANCH  11  15
HETATM   15  S1  UNL     1      -1.938   4.685  14.066  1.00  0.00    -0.162 SA
HETATM   16  C1  UNL     1      -2.030   6.460  14.025  1.00  0.00     0.090 C
ENDBRANCH  11  15
BRANCH  12  17
HETATM   17  O1  UNL     1      -2.268   3.350  11.678  1.00  0.00    -0.392 OA
ATOM     18  H1  UNL     1      -1.603   3.494  12.341  1.00  0.00     0.210 HD
ENDBRANCH  12  17
BRANCH  13  19
HETATM   19  C5  UNL     1      -4.534   2.010  10.671  1.00  0.00     0.108 C
BRANCH  19  20
HETATM   20  S2  UNL     1      -4.879   0.236  10.677  1.00  0.00    -0.164 SA
BRANCH  20  21
HETATM   21  C6  UNL     1      -3.361  -0.742  10.570  1.00  0.00     0.105 C
BRANCH  21  22
HETATM   22  C7  UNL     1      -3.300  -1.828  11.625  1.00  0.00     0.232 C
HETATM   23  F1  UNL     1      -2.529  -2.898  11.204  1.00  0.00    -0.255 F
ENDBRANCH  21  22
ENDBRANCH  20  21
ENDBRANCH  19  20
ENDBRANCH  13  19
ENDBRANCH   1  10
BRANCH   9  24
HETATM   24  N5  UNL     1      -3.716  -0.031  15.122  1.00  0.00    -0.233 N
ATOM     25  H52 UNL     1      -2.846   0.320  14.721  1.00  0.00     0.174 HD
ATOM     26  H51 UNL     1      -3.938  -1.024  15.191  1.00  0.00     0.174 HD
ENDBRANCH   9  24
BRANCH   6  27
HETATM   27  N3  UNL     1      -7.205   0.936  17.849  1.00  0.00    -0.383 N
ATOM     28  H32 UNL     1      -7.343   1.495  18.691  1.00  0.00     0.157 HD
ATOM     29  H31 UNL     1      -7.765   0.094  17.720  1.00  0.00     0.157 HD
ENDBRANCH   6  27
TORSDOF 9
ENDMDL