MODEL 5
REMARK VINA RESULT: -6.488354184      3.843      5.007
REMARK  8 active torsions:
REMARK  status: ('A' for Active; 'I' for Inactive)
REMARK    1  A    between atoms: C3_4  and  O2_5
REMARK    2  A    between atoms: O2_5  and  C4_6
REMARK    3  A    between atoms: C4_6  and  C5_7
REMARK    4  A    between atoms: C5_7  and  C6_8
REMARK    5  A    between atoms: C6_8  and  S1_9
REMARK    6  A    between atoms: S1_9  and  C7_10
REMARK    7  A    between atoms: C10_22  and  O3_23
REMARK    8  A    between atoms: C11_25  and  O4_26
ROOT
HETATM    1  C4  UNL     1      -5.090   4.890  14.669  1.00  0.00     0.172 C
ENDROOT
BRANCH   1   2
HETATM    2  O2  UNL     1      -5.500   3.779  14.046  1.00  0.00    -0.358 OA
BRANCH   2   3
HETATM    3  C3  UNL     1      -6.206   2.834  14.704  1.00  0.00     0.296 C
HETATM    4  O1  UNL     1      -5.915   1.591  14.089  1.00  0.00    -0.351 OA
HETATM    5  C2  UNL     1      -4.564   1.301  14.242  1.00  0.00     0.152 C
HETATM    6  C1  UNL     1      -4.129   0.196  13.308  1.00  0.00     0.042 C
HETATM    7  C11 UNL     1      -4.350   0.863  15.669  1.00  0.00     0.178 C
HETATM    8  C10 UNL     1      -5.531   1.286  16.485  1.00  0.00     0.188 C
HETATM    9  C9  UNL     1      -6.007   2.692  16.158  1.00  0.00     0.256 C
HETATM   10  F1  UNL     1      -7.213   2.819  16.865  1.00  0.00    -0.241 F
BRANCH   7  11
HETATM   11  O4  UNL     1      -3.143   1.329  16.182  1.00  0.00    -0.390 OA
ATOM     12  H4  UNL     1      -3.222   1.595  17.089  1.00  0.00     0.210 HD
ENDBRANCH   7  11
BRANCH   8  13
HETATM   13  O3  UNL     1      -6.626   0.435  16.291  1.00  0.00    -0.390 OA
ATOM     14  H3  UNL     1      -6.292  -0.348  15.869  1.00  0.00     0.210 HD
ENDBRANCH   8  13
ENDBRANCH   2   3
ENDBRANCH   1   2
BRANCH   1  15
HETATM   15  C5  UNL     1      -3.564   5.070  14.687  1.00  0.00     0.037 C
BRANCH  15  16
HETATM   16  C6  UNL     1      -3.258   6.158  13.649  1.00  0.00     0.083 C
BRANCH  16  17
HETATM   17  S1  UNL     1      -1.611   5.911  12.936  1.00  0.00    -0.103 SA
BRANCH  17  18
HETATM   18  C7  UNL     1      -1.539   4.256  12.210  1.00  0.00     0.130 A
HETATM   19  N1  UNL     1      -0.527   3.404  12.250  1.00  0.00    -0.286 N
HETATM   20  N2  UNL     1      -0.627   2.272  11.689  1.00  0.00    -0.279 N
ATOM     21  H1  UNL     1       0.335   3.658  12.734  1.00  0.00     0.188 HD
HETATM   22  C8  UNL     1      -1.766   1.963  11.061  1.00  0.00     0.159 A
ATOM     23  H2  UNL     1       0.148   1.608  11.716  1.00  0.00     0.189 HD
HETATM   24  N3  UNL     1      -2.055   0.849  10.427  1.00  0.00    -0.379 N
HETATM   25  S2  UNL     1      -2.696   3.376  11.313  1.00  0.00    -0.027 SA
ATOM     26  H32 UNL     1      -1.500   0.006  10.277  1.00  0.00     0.158 HD
ATOM     27  H31 UNL     1      -2.924   0.612   9.948  1.00  0.00     0.158 HD
ENDBRANCH  17  18
ENDBRANCH  16  17
ENDBRANCH  15  16
ENDBRANCH   1  15
TORSDOF 8
ENDMDL