MODEL 2
REMARK VINA RESULT: -7.717052995      2.842      5.722
REMARK  10 active torsions:
REMARK  status: ('A' for Active; 'I' for Inactive)
REMARK    1  A    between atoms: C2_2  and  C3_3
REMARK    2  A    between atoms: C3_3  and  C4_4
REMARK    3  A    between atoms: C4_4  and  C5_5
REMARK    4  A    between atoms: C5_5  and  C6_6
REMARK    5  A    between atoms: C6_6  and  O1_7
REMARK    6  A    between atoms: C6_6  and  O2_9
REMARK    7  A    between atoms: O2_9  and  C7_10
REMARK    8  A    between atoms: C8_11  and  O3_12
REMARK    9  A    between atoms: C14_22  and  O7_23
REMARK   10  A    between atoms: C15_25  and  O8_26
ROOT
HETATM    1  C7  UNL     1      -4.446   3.206  13.650  1.00  0.00     0.100 C
HETATM    2  C8  UNL     1      -4.713   4.267  12.924  1.00  0.00     0.174 C
HETATM    3  C10 UNL     1      -5.468   5.369  13.505  1.00  0.00     0.321 C
HETATM    4  O4  UNL     1      -5.735   6.400  12.827  1.00  0.00    -0.257 OA
HETATM    5  O5  UNL     1      -5.874   5.219  14.844  1.00  0.00    -0.283 OA
HETATM    6  C11 UNL     1      -6.152   3.868  15.259  1.00  0.00     0.286 C
HETATM    7  O6  UNL     1      -6.548   3.886  16.593  1.00  0.00    -0.317 OA
HETATM    8  C12 UNL     1      -6.519   2.665  17.200  1.00  0.00     0.231 C
HETATM    9  C13 UNL     1      -7.598   1.715  16.721  1.00  0.00     0.087 C
HETATM   10  F1  UNL     1      -6.751   2.862  18.558  1.00  0.00    -0.209 F
HETATM   11  C14 UNL     1      -5.174   1.961  17.106  1.00  0.00     0.214 C
HETATM   12  C15 UNL     1      -4.949   1.718  15.603  1.00  0.00     0.167 C
HETATM   13  C16 UNL     1      -4.884   3.120  15.035  1.00  0.00     0.133 C
ENDROOT
BRANCH   1  14
HETATM   14  O2  UNL     1      -3.718   2.180  13.018  1.00  0.00    -0.321 OA
BRANCH  14  15
HETATM   15  C6  UNL     1      -4.289   1.223  12.177  1.00  0.00     0.263 C
BRANCH  15  16
HETATM   16  C5  UNL     1      -3.379   1.110  10.958  1.00  0.00     0.061 C
BRANCH  16  17
HETATM   17  C4  UNL     1      -1.998   1.471  11.367  1.00  0.00     0.005 C
BRANCH  17  18
HETATM   18  C3  UNL     1      -1.231   2.438  10.570  1.00  0.00    -0.000 C
BRANCH  18  19
HETATM   19  C2  UNL     1      -0.290   3.359  11.245  1.00  0.00    -0.005 C
HETATM   20  C1  UNL     1       0.523   4.277  10.406  1.00  0.00     0.005 C
ENDBRANCH  18  19
ENDBRANCH  17  18
ENDBRANCH  16  17
ENDBRANCH  15  16
BRANCH  15  21
HETATM   21  O1  UNL     1      -4.486  -0.023  12.757  1.00  0.00    -0.371 OA
ATOM     22  H1  UNL     1      -3.662  -0.485  12.846  1.00  0.00     0.212 HD
ENDBRANCH  15  21
ENDBRANCH  14  15
ENDBRANCH   1  14
BRANCH   2  23
HETATM   23  O3  UNL     1      -4.269   4.322  11.590  1.00  0.00    -0.348 OA
HETATM   24  C9  UNL     1      -3.314   5.347  11.287  1.00  0.00     0.210 C
ENDBRANCH   2  23
BRANCH  12  25
HETATM   25  O8  UNL     1      -3.769   1.066  15.347  1.00  0.00    -0.392 OA
ATOM     26  H8  UNL     1      -3.637   0.901  14.421  1.00  0.00     0.210 HD
ENDBRANCH  12  25
BRANCH  11  27
HETATM   27  O7  UNL     1      -5.188   0.802  17.826  1.00  0.00    -0.387 OA
ATOM     28  H7  UNL     1      -4.401   0.295  17.658  1.00  0.00     0.210 HD
ENDBRANCH  11  27
TORSDOF 10
ENDMDL