MODEL 5
REMARK VINA RESULT: -7.233809732      5.292      7.979
REMARK  8 active torsions:
REMARK  status: ('A' for Active; 'I' for Inactive)
REMARK    1  A    between atoms: O1_1  and  C1_3
REMARK    2  A    between atoms: C2_4  and  C3_5
REMARK    3  A    between atoms: N1_7  and  C5_8
REMARK    4  A    between atoms: C5_8  and  C6_9
REMARK    5  A    between atoms: C6_9  and  C7_10
REMARK    6  A    between atoms: C7_10  and  C8_11
REMARK    7  A    between atoms: C9_18  and  N4_19
REMARK    8  A    between atoms: C16_30  and  O3_31
ROOT
HETATM    1  C1  UNL     1      -3.429   4.530  10.264  1.00  0.00     0.186 C
HETATM    2  C2  UNL     1      -3.543   5.160  11.640  1.00  0.00     0.208 C
HETATM    3  O2  UNL     1      -4.610   6.042  11.584  1.00  0.00    -0.349 OA
HETATM    4  C9  UNL     1      -4.993   6.238  10.288  1.00  0.00     0.262 C
HETATM    5  C16 UNL     1      -3.848   5.742   9.416  1.00  0.00     0.199 C
ENDROOT
BRANCH   2   6
HETATM    6  C3  UNL     1      -3.672   4.137  12.700  1.00  0.00     0.075 A
HETATM    7  C4  UNL     1      -4.374   4.275  13.882  1.00  0.00     0.140 A
HETATM    8  N1  UNL     1      -4.268   3.127  14.611  1.00  0.00    -0.287 N
HETATM    9  N2  UNL     1      -3.530   2.325  13.900  1.00  0.00    -0.241 N
HETATM   10  N3  UNL     1      -3.157   2.895  12.752  1.00  0.00    -0.286 N
ATOM     11  H2  UNL     1      -3.270   1.380  14.183  1.00  0.00     0.208 HD
ATOM     12  H3  UNL     1      -2.578   2.461  12.034  1.00  0.00     0.188 HD
BRANCH   8  13
HETATM   13  C5  UNL     1      -4.841   2.834  15.900  1.00  0.00     0.150 C
BRANCH  13  14
HETATM   14  C6  UNL     1      -4.779   1.380  16.251  1.00  0.00     0.024 C
BRANCH  14  15
HETATM   15  C7  UNL     1      -5.796   0.920  17.238  1.00  0.00     0.033 C
BRANCH  15  16
HETATM   16  C8  UNL     1      -6.947   1.850  17.435  1.00  0.00     0.222 C
HETATM   17  F1  UNL     1      -8.028   1.383  16.710  1.00  0.00    -0.255 F
ENDBRANCH  15  16
ENDBRANCH  14  15
ENDBRANCH  13  14
ENDBRANCH   8  13
ENDBRANCH   2   6
BRANCH   1  18
HETATM   18  O1  UNL     1      -4.390   3.510  10.113  1.00  0.00    -0.390 OA
ATOM     19  H1  UNL     1      -4.094   2.714  10.539  1.00  0.00     0.210 HD
ENDBRANCH   1  18
BRANCH   5  20
HETATM   20  O3  UNL     1      -4.238   5.382   8.159  1.00  0.00    -0.388 OA
ATOM     21  H3  UNL     1      -4.464   6.134   7.624  1.00  0.00     0.210 HD
ENDBRANCH   5  20
BRANCH   4  22
HETATM   22  N4  UNL     1      -5.351   7.589   9.943  1.00  0.00    -0.298 N
HETATM   23  C10 UNL     1      -4.635   8.686  10.234  1.00  0.00     0.187 A
HETATM   24  N5  UNL     1      -5.270   9.770   9.759  1.00  0.00    -0.352 N
HETATM   25  C11 UNL     1      -6.403   9.386   9.155  1.00  0.00     0.054 A
ATOM     26  H5  UNL     1      -4.941  10.732   9.845  1.00  0.00     0.166 HD
HETATM   27  C12 UNL     1      -6.453   8.014   9.271  1.00  0.00     0.129 A
HETATM   28  C15 UNL     1      -7.459  10.154   8.477  1.00  0.00     0.062 C
HETATM   29  N6  UNL     1      -7.559   7.341   8.712  1.00  0.00    -0.374 N
HETATM   30  C13 UNL     1      -8.749   8.073   8.371  1.00  0.00     0.121 C
ATOM     31  H6  UNL     1      -7.516   6.334   8.551  1.00  0.00     0.161 HD
HETATM   32  C14 UNL     1      -8.330   9.306   7.597  1.00  0.00     0.026 C
ENDBRANCH   4  22
TORSDOF 8
ENDMDL