MODEL 3
REMARK VINA RESULT: -7.154659515      0.951      1.129
REMARK  9 active torsions:
REMARK  status: ('A' for Active; 'I' for Inactive)
REMARK    1  A    between atoms: C2_3  and  C3_4
REMARK    2  A    between atoms: C3_4  and  N2_5
REMARK    3  A    between atoms: N2_5  and  C4_6
REMARK    4  A    between atoms: N2_5  and  C10_24
REMARK    5  A    between atoms: C4_6  and  C5_7
REMARK    6  A    between atoms: C5_7  and  O1_8
REMARK    7  A    between atoms: C5_7  and  C6_11
REMARK    8  A    between atoms: C6_11  and  N3_12
REMARK    9  A    between atoms: C9_20  and  N7_21
ROOT
HETATM    1  N1  UNL     1      -3.953   1.025  16.265  1.00  0.00    -0.197 NA
HETATM    2  C1  UNL     1      -3.725   2.102  15.912  1.00  0.00     0.061 C
HETATM    3  C2  UNL     1      -3.410   3.459  15.476  1.00  0.00     0.155 C
ENDROOT
BRANCH   3   4
HETATM    4  C3  UNL     1      -4.368   3.897  14.355  1.00  0.00     0.046 A
HETATM    5  C13 UNL     1      -4.833   5.317  14.732  1.00  0.00     0.032 A
HETATM    6  C14 UNL     1      -6.231   4.845  14.953  1.00  0.00     0.005 A
HETATM    7  C15 UNL     1      -5.781   3.473  14.501  1.00  0.00     0.032 A
BRANCH   4   8
HETATM    8  N2  UNL     1      -3.749   3.823  13.067  1.00  0.00    -0.346 N
BRANCH   8   9
HETATM    9  C4  UNL     1      -3.051   4.907  12.477  1.00  0.00     0.201 C
BRANCH   9  10
HETATM   10  C5  UNL     1      -1.570   4.864  12.455  1.00  0.00     0.237 C
HETATM   11  F1  UNL     1      -1.081   3.726  11.806  1.00  0.00    -0.208 F
BRANCH  10  12
HETATM   12  O1  UNL     1      -0.915   4.943  13.645  1.00  0.00    -0.359 OA
ATOM     13  H1  UNL     1      -0.104   5.439  13.673  1.00  0.00     0.213 HD
ENDBRANCH  10  12
BRANCH  10  14
HETATM   14  C6  UNL     1      -1.116   6.056  11.595  1.00  0.00     0.243 C
BRANCH  14  15
HETATM   15  N3  UNL     1       0.238   6.441  11.899  1.00  0.00    -0.116 N
HETATM   16  N4  UNL     1       1.231   5.579  11.916  1.00  0.00    -0.259 N
HETATM   17  C7  UNL     1       2.334   6.265  12.248  1.00  0.00     0.218 A
ATOM     18  H4  UNL     1       1.174   4.581  11.714  1.00  0.00     0.190 HD
HETATM   19  C8  UNL     1       3.656   5.684  12.379  1.00  0.00     0.139 C
HETATM   20  N6  UNL     1       1.997   7.538  12.430  1.00  0.00    -0.164 N
HETATM   21  N5  UNL     1       4.710   5.201  12.496  1.00  0.00    -0.188 NA
HETATM   22  C9  UNL     1       0.670   7.662  12.210  1.00  0.00     0.695 A
ATOM     23  H6  UNL     1       2.631   8.292  12.691  1.00  0.00     0.186 HD
BRANCH  22  24
HETATM   24  N7  UNL     1       0.021   8.759  12.288  1.00  0.00    -0.233 N
ATOM     25  H72 UNL     1      -0.964   8.833  12.540  1.00  0.00     0.174 HD
ATOM     26  H71 UNL     1       0.341   9.715  12.134  1.00  0.00     0.174 HD
ENDBRANCH  22  24
ENDBRANCH  14  15
ENDBRANCH  10  14
ENDBRANCH   9  10
ENDBRANCH   8   9
BRANCH   8  27
HETATM   27  C10 UNL     1      -3.850   2.585  12.355  1.00  0.00     0.143 C
HETATM   28  N8  UNL     1      -3.236   1.508  12.488  1.00  0.00    -0.350 N
HETATM   29  C11 UNL     1      -3.484   0.401  11.682  1.00  0.00     0.073 C
ATOM     30  H8  UNL     1      -2.525   1.435  13.216  1.00  0.00     0.167 HD
HETATM   31  C12 UNL     1      -4.848   0.468  11.031  1.00  0.00     0.127 C
HETATM   32  S1  UNL     1      -5.007   2.301  10.987  1.00  0.00    -0.089 SA
ENDBRANCH   8  27
ENDBRANCH   4   8
ENDBRANCH   3   4
TORSDOF 9
ENDMDL