MODEL 3
REMARK VINA RESULT: -6.465577572      2.519      5.319
REMARK  12 active torsions:
REMARK  status: ('A' for Active; 'I' for Inactive)
REMARK    1  A    between atoms: C4_4  and  C5_5
REMARK    2  A    between atoms: N1_6  and  C6_8
REMARK    3  A    between atoms: C6_8  and  C7_9
REMARK    4  A    between atoms: C7_9  and  C9_13
REMARK    5  A    between atoms: C9_13  and  O1_14
REMARK    6  A    between atoms: O1_14  and  N3_15
REMARK    7  A    between atoms: C10_17  and  N4_19
REMARK    8  A    between atoms: N4_19  and  O2_21
REMARK    9  A    between atoms: C13_24  and  N5_25
REMARK   10  A    between atoms: N5_25  and  N6_27
REMARK   11  A    between atoms: N6_27  and  N7_28
REMARK   12  A    between atoms: C14_31  and  O4_32
ROOT
HETATM    1  C7  UNL     1      -4.829   1.969  15.719  1.00  0.00     0.229 C
HETATM    2  F1  UNL     1      -3.611   2.305  16.270  1.00  0.00    -0.223 F
HETATM    3  C8  UNL     1      -5.515   1.087  16.630  1.00  0.00     0.107 C
HETATM    4  N2  UNL     1      -6.055   0.369  17.347  1.00  0.00    -0.194 NA
ENDROOT
BRANCH   1   5
HETATM    5  C6  UNL     1      -5.614   3.162  15.290  1.00  0.00     0.180 C
BRANCH   5   6
HETATM    6  N1  UNL     1      -4.872   4.361  15.189  1.00  0.00    -0.395 N
HETATM    7  C5  UNL     1      -4.706   5.053  14.138  1.00  0.00     0.092 C
ATOM      8  H1  UNL     1      -4.429   4.703  16.042  1.00  0.00     0.158 HD
BRANCH   7   9
HETATM    9  C4  UNL     1      -3.902   6.291  14.178  1.00  0.00     0.193 C
HETATM   10  C3  UNL     1      -3.612   6.817  12.820  1.00  0.00    -0.018 C
HETATM   11  C2  UNL     1      -4.463   7.184  11.886  1.00  0.00    -0.023 C
HETATM   12  C14 UNL     1      -2.133   6.851  12.708  1.00  0.00     0.200 C
HETATM   13  C1  UNL     1      -4.000   7.689  10.581  1.00  0.00     0.036 C
HETATM   14  C13 UNL     1      -1.742   5.839  13.794  1.00  0.00     0.284 C
HETATM   15  O3  UNL     1      -2.660   6.103  14.785  1.00  0.00    -0.347 OA
BRANCH  12  16
HETATM   16  O4  UNL     1      -1.671   8.116  13.034  1.00  0.00    -0.387 OA
ATOM     17  H4  UNL     1      -0.773   8.214  12.740  1.00  0.00     0.210 HD
ENDBRANCH  12  16
BRANCH  14  18
HETATM   18  N5  UNL     1      -1.920   4.517  13.231  1.00  0.00    -0.220 N
ATOM     19  H5  UNL     1      -2.754   3.991  13.492  1.00  0.00     0.200 HD
BRANCH  18  20
HETATM   20  N6  UNL     1      -1.137   4.001  12.469  1.00  0.00    -0.246 NA
BRANCH  20  21
HETATM   21  N7  UNL     1      -0.154   3.552  11.880  1.00  0.00    -0.261 N
ATOM     22  H72 UNL     1       0.395   3.561  12.740  1.00  0.00     0.193 HD
ATOM     23  H71 UNL     1       0.523   3.186  11.211  1.00  0.00     0.193 HD
ENDBRANCH  20  21
ENDBRANCH  18  20
ENDBRANCH  14  18
ENDBRANCH   7   9
ENDBRANCH   5   6
ENDBRANCH   1   5
BRANCH   1  24
HETATM   24  C9  UNL     1      -4.508   1.164  14.453  1.00  0.00     0.262 C
BRANCH  24  25
HETATM   25  O1  UNL     1      -3.751   1.992  13.583  1.00  0.00    -0.275 OA
BRANCH  25  26
HETATM   26  N3  UNL     1      -3.133   1.370  12.521  1.00  0.00    -0.253 N
HETATM   27  C10 UNL     1      -3.498   1.631  11.331  1.00  0.00     0.119 C
HETATM   28  C11 UNL     1      -2.819   0.950  10.204  1.00  0.00     0.093 C
ATOM     29  H3  UNL     1      -2.383   0.700  12.689  1.00  0.00     0.195 HD
BRANCH  27  30
HETATM   30  N4  UNL     1      -4.534   2.554  11.004  1.00  0.00    -0.252 N
HETATM   31  C12 UNL     1      -4.130   3.869  10.519  1.00  0.00     0.187 C
BRANCH  30  32
HETATM   32  O2  UNL     1      -5.838   2.268  11.121  1.00  0.00    -0.286 OA
ATOM     33  H2  UNL     1      -6.379   1.991  10.391  1.00  0.00     0.244 HD
ENDBRANCH  30  32
ENDBRANCH  27  30
ENDBRANCH  25  26
ENDBRANCH  24  25
ENDBRANCH   1  24
TORSDOF 12
ENDMDL