MODEL 3
REMARK VINA RESULT: -6.072905760      1.702      2.595
REMARK  9 active torsions:
REMARK  status: ('A' for Active; 'I' for Inactive)
REMARK    1  A    between atoms: C2_3  and  C3_4
REMARK    2  A    between atoms: C3_4  and  O2_5
REMARK    3  A    between atoms: C4_7  and  N1_8
REMARK    4  A    between atoms: C5_9  and  C6_10
REMARK    5  A    between atoms: C6_10  and  O3_11
REMARK    6  A    between atoms: C6_10  and  N2_13
REMARK    7  A    between atoms: N3_16  and  C9_17
REMARK    8  A    between atoms: C9_17  and  C10_18
REMARK    9  A    between atoms: C10_18  and  O4_19
ROOT
HETATM    1  N1  UNL     1      -1.601   5.888  12.208  1.00  0.00    -0.318 N
HETATM    2  C5  UNL     1      -2.684   5.692  12.938  1.00  0.00     0.069 A
HETATM    3  C13 UNL     1      -2.953   6.611  13.914  1.00  0.00     0.082 A
HETATM    4  S1  UNL     1      -1.662   7.712  13.756  1.00  0.00    -0.070 SA
HETATM    5  C14 UNL     1      -0.855   6.950  12.464  1.00  0.00     0.146 A
HETATM    6  S2  UNL     1       0.538   7.429  11.693  1.00  0.00    -0.052 SA
ENDROOT
BRANCH   2   7
HETATM    7  C6  UNL     1      -3.635   4.515  12.748  1.00  0.00     0.271 C
BRANCH   7   8
HETATM    8  O3  UNL     1      -4.679   4.907  11.901  1.00  0.00    -0.371 OA
ATOM      9  H3  UNL     1      -5.300   4.191  11.826  1.00  0.00     0.212 HD
ENDBRANCH   7   8
BRANCH   7  10
HETATM   10  N2  UNL     1      -4.215   4.122  13.983  1.00  0.00    -0.356 N
HETATM   11  C7  UNL     1      -5.578   3.728  13.974  1.00  0.00     0.145 C
HETATM   12  C8  UNL     1      -6.050   3.790  15.437  1.00  0.00     0.142 C
HETATM   13  N3  UNL     1      -5.390   2.739  16.109  1.00  0.00    -0.385 N
HETATM   14  C11 UNL     1      -4.045   2.477  15.799  1.00  0.00     0.102 C
HETATM   15  C12 UNL     1      -3.371   3.451  14.887  1.00  0.00     0.105 C
BRANCH  13  16
HETATM   16  C9  UNL     1      -5.861   2.383  17.400  1.00  0.00     0.148 C
BRANCH  16  17
HETATM   17  C10 UNL     1      -6.789   1.175  17.238  1.00  0.00     0.183 C
BRANCH  17  18
HETATM   18  O4  UNL     1      -5.997   0.033  17.285  1.00  0.00    -0.399 OA
ATOM     19  H4  UNL     1      -5.228   0.199  16.752  1.00  0.00     0.209 HD
ENDBRANCH  17  18
ENDBRANCH  16  17
ENDBRANCH  13  16
ENDBRANCH   7  10
ENDBRANCH   2   7
BRANCH   1  20
HETATM   20  C4  UNL     1      -1.196   4.954  11.120  1.00  0.00     0.174 A
HETATM   21  C1  UNL     1      -0.953   3.556  11.418  1.00  0.00     0.159 A
HETATM   22  O1  UNL     1      -1.304   2.434  11.713  1.00  0.00    -0.295 OA
HETATM   23  C2  UNL     1       0.195   4.429  11.096  1.00  0.00     0.112 A
BRANCH  23  24
HETATM   24  C3  UNL     1       0.894   4.306   9.753  1.00  0.00     0.179 C
BRANCH  24  25
HETATM   25  O2  UNL     1       2.192   3.846   9.960  1.00  0.00    -0.400 OA
ATOM     26  H2  UNL     1       2.669   4.490  10.471  1.00  0.00     0.209 HD
ENDBRANCH  24  25
ENDBRANCH  23  24
ENDBRANCH   1  20
TORSDOF 9
ENDMDL