MODEL 3
REMARK VINA RESULT: -7.348820128      1.321      1.456
REMARK  9 active torsions:
REMARK  status: ('A' for Active; 'I' for Inactive)
REMARK    1  A    between atoms: C2_2  and  C3_3
REMARK    2  A    between atoms: C3_3  and  O1_4
REMARK    3  A    between atoms: O1_4  and  N1_5
REMARK    4  A    between atoms: C4_6  and  O2_7
REMARK    5  A    between atoms: C6_10  and  C7_11
REMARK    6  A    between atoms: C7_11  and  O3_12
REMARK    7  A    between atoms: C7_11  and  N2_14
REMARK    8  A    between atoms: N2_14  and  C8_16
REMARK    9  A    between atoms: C9_21  and  N5_22
ROOT
HETATM    1  C7  UNL     1      -3.765   4.332  12.407  1.00  0.00     0.258 C
ENDROOT
BRANCH   1   2
HETATM    2  C6  UNL     1      -3.973   3.266  13.406  1.00  0.00     0.052 A
HETATM    3  C5  UNL     1      -4.288   1.974  13.053  1.00  0.00     0.074 A
HETATM    4  C4  UNL     1      -4.407   1.244  14.232  1.00  0.00     0.171 A
HETATM    5  N1  UNL     1      -4.177   2.057  15.274  1.00  0.00    -0.171 N
HETATM    6  C14 UNL     1      -3.913   3.287  14.776  1.00  0.00     0.227 A
HETATM    7  F1  UNL     1      -3.638   4.358  15.519  1.00  0.00    -0.183 F
BRANCH   4   8
HETATM    8  O2  UNL     1      -4.722  -0.126  14.239  1.00  0.00    -0.344 OA
ATOM      9  H2  UNL     1      -4.850  -0.710  13.501  1.00  0.00     0.219 HD
ENDBRANCH   4   8
BRANCH   5  10
HETATM   10  O1  UNL     1      -4.208   1.655  16.583  1.00  0.00    -0.265 OA
BRANCH  10  11
HETATM   11  C3  UNL     1      -5.461   1.283  17.173  1.00  0.00     0.229 C
BRANCH  11  12
HETATM   12  C2  UNL     1      -6.184   2.426  17.730  1.00  0.00    -0.009 C
HETATM   13  C1  UNL     1      -6.959   3.172  16.986  1.00  0.00     0.009 C
ENDBRANCH  11  12
ENDBRANCH  10  11
ENDBRANCH   5  10
ENDBRANCH   1   2
BRANCH   1  14
HETATM   14  O3  UNL     1      -5.029   4.725  11.969  1.00  0.00    -0.372 OA
ATOM     15  H3  UNL     1      -5.646   4.468  12.645  1.00  0.00     0.212 HD
ENDBRANCH   1  14
BRANCH   1  16
HETATM   16  N2  UNL     1      -3.012   3.909  11.258  1.00  0.00    -0.339 N
ATOM     17  H2  UNL     1      -3.461   3.511  10.432  1.00  0.00     0.164 HD
BRANCH  16  18
HETATM   18  C8  UNL     1      -1.711   4.067  11.337  1.00  0.00     0.165 A
HETATM   19  N3  UNL     1      -0.812   3.295  11.968  1.00  0.00    -0.278 N
HETATM   20  N4  UNL     1       0.410   3.624  11.926  1.00  0.00    -0.278 N
ATOM     21  H3  UNL     1      -1.108   2.460  12.472  1.00  0.00     0.189 HD
HETATM   22  C9  UNL     1       0.814   4.698  11.279  1.00  0.00     0.165 A
ATOM     23  H4  UNL     1       1.099   3.043  12.404  1.00  0.00     0.189 HD
HETATM   24  S1  UNL     1      -0.706   5.284  10.682  1.00  0.00    -0.015 SA
BRANCH  22  25
HETATM   25  N5  UNL     1       2.079   5.299  11.070  1.00  0.00    -0.356 N
HETATM   26  C10 UNL     1       2.585   6.285  12.033  1.00  0.00     0.151 C
HETATM   27  C11 UNL     1       3.831   5.618  12.615  1.00  0.00     0.187 C
HETATM   28  O4  UNL     1       4.711   5.338  11.596  1.00  0.00    -0.388 OA
HETATM   29  C12 UNL     1       4.295   5.657  10.330  1.00  0.00     0.187 C
HETATM   30  C13 UNL     1       2.948   5.003   9.960  1.00  0.00     0.151 C
ENDBRANCH  22  25
ENDBRANCH  16  18
ENDBRANCH   1  16
TORSDOF 9
ENDMDL