MODEL 4
REMARK VINA RESULT: -5.993128102      2.663      3.017
REMARK  10 active torsions:
REMARK  status: ('A' for Active; 'I' for Inactive)
REMARK    1  A    between atoms: C2_2  and  C3_3
REMARK    2  A    between atoms: C3_3  and  S1_4
REMARK    3  A    between atoms: S1_4  and  C4_5
REMARK    4  A    between atoms: C4_5  and  C5_6
REMARK    5  A    between atoms: N1_8  and  C7_9
REMARK    6  A    between atoms: C8_11  and  C9_12
REMARK    7  A    between atoms: C9_12  and  O2_13
REMARK    8  A    between atoms: C10_15  and  O3_16
REMARK    9  A    between atoms: C11_18  and  C12_19
REMARK   10  A    between atoms: C13_22  and  O4_23
ROOT
HETATM    1  C7  UNL     1      -2.250   3.430  11.230  1.00  0.00     0.274 C
HETATM    2  O1  UNL     1      -2.497   2.070  11.406  1.00  0.00    -0.352 OA
HETATM    3  C8  UNL     1      -3.727   1.785  10.840  1.00  0.00     0.177 C
HETATM    4  C10 UNL     1      -4.756   2.845  11.018  1.00  0.00     0.158 C
HETATM    5  C11 UNL     1      -4.482   3.863  12.056  1.00  0.00     0.083 C
HETATM    6  C13 UNL     1      -3.019   4.128  12.329  1.00  0.00     0.177 C
ENDROOT
BRANCH   1   7
HETATM    7  N1  UNL     1      -0.871   3.763  11.185  1.00  0.00    -0.255 N
HETATM    8  C6  UNL     1      -0.179   4.073  10.079  1.00  0.00     0.142 A
HETATM    9  C5  UNL     1       1.156   4.349  10.396  1.00  0.00     0.053 A
HETATM   10  N3  UNL     1       1.185   4.178  11.739  1.00  0.00    -0.288 N
HETATM   11  N2  UNL     1      -0.008   3.835  12.178  1.00  0.00    -0.238 N
ATOM     12  H3  UNL     1       2.011   4.297  12.326  1.00  0.00     0.188 HD
ATOM     13  H2  UNL     1      -0.234   3.651  13.154  1.00  0.00     0.208 HD
BRANCH   9  14
HETATM   14  C4  UNL     1       2.180   4.774   9.439  1.00  0.00     0.134 C
BRANCH  14  15
HETATM   15  S1  UNL     1       3.647   5.454  10.147  1.00  0.00    -0.163 SA
BRANCH  15  16
HETATM   16  C3  UNL     1       3.544   6.982  11.013  1.00  0.00     0.074 C
BRANCH  16  17
HETATM   17  C2  UNL     1       3.394   6.835  12.487  1.00  0.00     0.006 C
HETATM   18  C1  UNL     1       4.273   5.655  12.918  1.00  0.00     0.006 C
ENDBRANCH  16  17
ENDBRANCH  15  16
ENDBRANCH  14  15
ENDBRANCH   9  14
ENDBRANCH   1   7
BRANCH   6  19
HETATM   19  O4  UNL     1      -2.688   3.585  13.586  1.00  0.00    -0.391 OA
ATOM     20  H4  UNL     1      -1.775   3.325  13.607  1.00  0.00     0.210 HD
ENDBRANCH   6  19
BRANCH   3  21
HETATM   21  C9  UNL     1      -4.200   0.391  11.207  1.00  0.00     0.198 C
BRANCH  21  22
HETATM   22  O2  UNL     1      -4.433   0.206  12.544  1.00  0.00    -0.398 OA
ATOM     23  H2  UNL     1      -4.314  -0.688  12.844  1.00  0.00     0.209 HD
ENDBRANCH  21  22
ENDBRANCH   3  21
BRANCH   5  24
HETATM   24  C12 UNL     1      -5.265   3.665  13.351  1.00  0.00     0.187 C
HETATM   25 CL1  UNL     1      -4.352   2.584  14.429  1.00  0.00    -0.108 Cl
HETATM   26 CL2  UNL     1      -5.314   5.265  14.172  1.00  0.00    -0.108 Cl
ENDBRANCH   5  24
BRANCH   4  27
HETATM   27  O3  UNL     1      -5.953   2.183  11.384  1.00  0.00    -0.392 OA
ATOM     28  H3  UNL     1      -5.921   2.072  12.327  1.00  0.00     0.210 HD
ENDBRANCH   4  27
TORSDOF 10
ENDMDL