MODEL 4
REMARK VINA RESULT: -6.905694704      2.544      3.607
REMARK  8 active torsions:
REMARK  status: ('A' for Active; 'I' for Inactive)
REMARK    1  A    between atoms: C3_4  and  C4_5
REMARK    2  A    between atoms: C4_5  and  S1_6
REMARK    3  A    between atoms: S1_6  and  C5_7
REMARK    4  A    between atoms: C5_7  and  C6_8
REMARK    5  A    between atoms: C8_11  and  O2_12
REMARK    6  A    between atoms: C9_14  and  O3_15
REMARK    7  A    between atoms: C10_18  and  N1_19
REMARK    8  A    between atoms: C12_23  and  C13_24
ROOT
HETATM    1  C1  UNL     1      -5.244   6.033  13.258  1.00  0.00     0.059 C
HETATM    2  C2  UNL     1      -4.056   5.308  13.854  1.00  0.00     0.170 C
HETATM    3  F1  UNL     1      -3.766   5.646  15.137  1.00  0.00    -0.236 F
HETATM    4  C3  UNL     1      -2.791   5.439  13.007  1.00  0.00     0.177 C
HETATM    5  O4  UNL     1      -2.477   4.137  13.414  1.00  0.00    -0.353 OA
HETATM    6  C10 UNL     1      -3.868   3.904  13.418  1.00  0.00     0.270 C
ENDROOT
BRANCH   4   7
HETATM    7  C4  UNL     1      -1.879   6.496  13.594  1.00  0.00     0.109 C
BRANCH   7   8
HETATM    8  S1  UNL     1      -0.748   7.199  12.381  1.00  0.00    -0.164 SA
BRANCH   8   9
HETATM    9  C5  UNL     1       0.459   6.009  11.784  1.00  0.00     0.108 C
BRANCH   9  10
HETATM   10  C6  UNL     1       0.069   5.314  10.517  1.00  0.00     0.162 C
HETATM   11  O1  UNL     1      -1.177   5.646  10.045  1.00  0.00    -0.380 OA
HETATM   12  C7  UNL     1      -1.661   4.571   9.326  1.00  0.00     0.202 C
HETATM   13  C8  UNL     1      -1.100   3.322   9.963  1.00  0.00     0.173 C
HETATM   14  C9  UNL     1       0.048   3.835  10.767  1.00  0.00     0.178 C
BRANCH  13  15
HETATM   15  O2  UNL     1      -2.071   2.716  10.752  1.00  0.00    -0.391 OA
ATOM     16  H2  UNL     1      -2.055   3.085  11.627  1.00  0.00     0.210 HD
ENDBRANCH  13  15
BRANCH  14  17
HETATM   17  O3  UNL     1      -0.042   3.548  12.125  1.00  0.00    -0.390 OA
ATOM     18  H3  UNL     1       0.687   3.014  12.417  1.00  0.00     0.210 HD
ENDBRANCH  14  17
ENDBRANCH   9  10
ENDBRANCH   8   9
ENDBRANCH   7   8
ENDBRANCH   4   7
BRANCH   6  19
HETATM   19  N1  UNL     1      -4.317   2.831  14.215  1.00  0.00    -0.320 N
HETATM   20  C11 UNL     1      -4.086   1.523  13.893  1.00  0.00     0.185 A
HETATM   21  N2  UNL     1      -4.631   0.737  14.838  1.00  0.00    -0.346 N
HETATM   22  C12 UNL     1      -5.215   1.505  15.772  1.00  0.00     0.126 A
ATOM     23  H2  UNL     1      -4.604  -0.283  14.844  1.00  0.00     0.167 HD
HETATM   24  C14 UNL     1      -5.005   2.817  15.358  1.00  0.00     0.131 A
BRANCH  22  25
HETATM   25  C13 UNL     1      -5.930   1.091  16.978  1.00  0.00     0.228 C
HETATM   26  O5  UNL     1      -5.288   0.897  18.036  1.00  0.00    -0.643 OA
HETATM   27  O6  UNL     1      -7.305   0.913  16.954  1.00  0.00    -0.643 OA
ENDBRANCH  22  25
ENDBRANCH   6  19
TORSDOF 8
ENDMDL