MODEL 5
REMARK VINA RESULT: -6.634377600      1.326      1.720
REMARK  10 active torsions:
REMARK  status: ('A' for Active; 'I' for Inactive)
REMARK    1  A    between atoms: N1_1  and  N2_4
REMARK    2  A    between atoms: N2_4  and  N3_5
REMARK    3  A    between atoms: N3_5  and  C1_7
REMARK    4  A    between atoms: C1_7  and  C2_8
REMARK    5  A    between atoms: C2_8  and  O1_9
REMARK    6  A    between atoms: O1_9  and  C3_10
REMARK    7  A    between atoms: C3_10  and  C4_11
REMARK    8  A    between atoms: C5_13  and  N4_14
REMARK    9  A    between atoms: C9_23  and  N7_24
REMARK   10  A    between atoms: C11_30  and  O3_31
ROOT
HETATM    1  C4  UNL     1      -5.059   2.409  14.573  1.00  0.00     0.184 C
HETATM    2  O2  UNL     1      -3.975   3.292  14.578  1.00  0.00    -0.353 OA
HETATM    3  C5  UNL     1      -4.508   4.576  14.470  1.00  0.00     0.262 C
HETATM    4  C11 UNL     1      -5.948   4.508  14.846  1.00  0.00     0.204 C
HETATM    5  C12 UNL     1      -6.008   3.123  15.514  1.00  0.00     0.234 C
HETATM    6  F1  UNL     1      -5.507   3.203  16.796  1.00  0.00    -0.244 F
ENDROOT
BRANCH   3   7
HETATM    7  N4  UNL     1      -4.260   5.037  13.134  1.00  0.00    -0.297 N
HETATM    8  C6  UNL     1      -4.821   6.093  12.513  1.00  0.00     0.188 A
HETATM    9  N5  UNL     1      -4.297   6.166  11.262  1.00  0.00    -0.347 N
HETATM   10  C7  UNL     1      -3.417   5.163  11.104  1.00  0.00     0.117 A
ATOM     11  H5  UNL     1      -4.533   6.866  10.558  1.00  0.00     0.167 HD
HETATM   12  C8  UNL     1      -2.622   4.791  10.038  1.00  0.00     0.147 A
HETATM   13  C10 UNL     1      -3.397   4.453  12.288  1.00  0.00     0.156 A
HETATM   14  S1  UNL     1      -2.672   5.642   8.669  1.00  0.00    -0.057 SA
HETATM   15  N6  UNL     1      -1.818   3.728  10.143  1.00  0.00    -0.179 N
HETATM   16  C9  UNL     1      -1.793   3.036  11.289  1.00  0.00     0.678 A
ATOM     17  H6  UNL     1      -1.228   3.448   9.360  1.00  0.00     0.185 HD
HETATM   18  N8  UNL     1      -2.576   3.394  12.354  1.00  0.00    -0.174 N
ATOM     19  H8  UNL     1      -2.533   2.846  13.213  1.00  0.00     0.186 HD
BRANCH  16  20
HETATM   20  N7  UNL     1      -1.013   2.016  11.373  1.00  0.00    -0.234 N
ATOM     21  H72 UNL     1      -1.171   1.199  10.784  1.00  0.00     0.174 HD
ATOM     22  H71 UNL     1      -0.240   2.050  12.037  1.00  0.00     0.174 HD
ENDBRANCH  16  20
ENDBRANCH   3   7
BRANCH   4  23
HETATM   23  O3  UNL     1      -6.339   5.497  15.739  1.00  0.00    -0.388 OA
ATOM     24  H3  UNL     1      -6.698   6.270  15.319  1.00  0.00     0.210 HD
ENDBRANCH   4  23
BRANCH   1  25
HETATM   25  C3  UNL     1      -4.650   1.058  15.063  1.00  0.00     0.202 C
BRANCH  25  26
HETATM   26  O1  UNL     1      -4.699   0.075  14.121  1.00  0.00    -0.387 OA
BRANCH  26  27
HETATM   27  C2  UNL     1      -3.900   0.294  13.039  1.00  0.00     0.189 C
BRANCH  27  28
HETATM   28  C1  UNL     1      -4.235  -0.580  11.856  1.00  0.00     0.181 C
BRANCH  28  29
HETATM   29  N3  UNL     1      -4.102   0.252  10.671  1.00  0.00    -0.251 N
ATOM     30  H3  UNL     1      -3.527  -0.031   9.877  1.00  0.00     0.197 HD
BRANCH  29  31
HETATM   31  N2  UNL     1      -4.722   1.321  10.677  1.00  0.00    -0.248 NA
BRANCH  31  32
HETATM   32  N1  UNL     1      -5.570   2.206  10.850  1.00  0.00    -0.261 N
ATOM     33  H12 UNL     1      -5.222   2.453  11.777  1.00  0.00     0.193 HD
ATOM     34  H11 UNL     1      -6.350   2.855  10.739  1.00  0.00     0.193 HD
ENDBRANCH  31  32
ENDBRANCH  29  31
ENDBRANCH  28  29
ENDBRANCH  27  28
ENDBRANCH  26  27
ENDBRANCH  25  26
ENDBRANCH   1  25
TORSDOF 10
ENDMDL