MODEL 2
REMARK VINA RESULT: -7.135208532      1.887      2.769
REMARK  9 active torsions:
REMARK  status: ('A' for Active; 'I' for Inactive)
REMARK    1  A    between atoms: S1_2  and  C2_3
REMARK    2  A    between atoms: N2_6  and  C3_7
REMARK    3  A    between atoms: N3_9  and  C5_10
REMARK    4  A    between atoms: C5_10  and  O1_11
REMARK    5  A    between atoms: C5_10  and  C6_13
REMARK    6  A    between atoms: C6_13  and  C7_14
REMARK    7  A    between atoms: N4_16  and  O2_18
REMARK    8  A    between atoms: C9_21  and  C10_22
REMARK    9  A    between atoms: C10_22  and  O3_23
ROOT
HETATM    1  C2  UNL     1      -0.238   4.211  10.938  1.00  0.00     0.106 A
HETATM    2  N1  UNL     1      -1.114   3.863  11.894  1.00  0.00    -0.288 N
ATOM      3  H1  UNL     1      -0.892   3.824  12.888  1.00  0.00     0.188 HD
HETATM    4  N2  UNL     1      -2.292   3.578  11.387  1.00  0.00    -0.270 N
HETATM    5  C11 UNL     1      -2.189   3.745  10.060  1.00  0.00     0.139 A
HETATM    6  C12 UNL     1      -0.924   4.139   9.733  1.00  0.00     0.096 A
HETATM    7  C13 UNL     1      -0.454   4.410   8.407  1.00  0.00     0.103 C
HETATM    8  N5  UNL     1      -0.086   4.647   7.342  1.00  0.00    -0.191 NA
ENDROOT
BRANCH   1   9
HETATM    9  S1  UNL     1       1.478   4.689  11.058  1.00  0.00    -0.114 SA
HETATM   10  C1  UNL     1       1.680   6.286  11.849  1.00  0.00     0.097 C
ENDBRANCH   1   9
BRANCH   4  11
HETATM   11  C3  UNL     1      -3.507   3.165  12.055  1.00  0.00     0.272 C
HETATM   12  C4  UNL     1      -3.267   2.841  13.506  1.00  0.00     0.331 C
HETATM   13  N3  UNL     1      -4.354   2.063  13.971  1.00  0.00     0.129 N
HETATM   14  C8  UNL     1      -4.284   0.793  13.278  1.00  0.00     0.310 C
HETATM   15  C9  UNL     1      -4.556   1.078  11.829  1.00  0.00     0.176 C
HETATM   16  O4  UNL     1      -4.156   2.249  11.330  1.00  0.00    -0.354 OA
BRANCH  13  17
HETATM   17  C5  UNL     1      -4.488   1.835  15.359  1.00  0.00     0.406 C
BRANCH  17  18
HETATM   18  O1  UNL     1      -3.237   1.838  16.010  1.00  0.00    -0.363 OA
ATOM     19  H1  UNL     1      -2.803   0.995  15.939  1.00  0.00     0.212 HD
ENDBRANCH  17  18
BRANCH  17  20
HETATM   20  C6  UNL     1      -5.474   2.653  16.069  1.00  0.00     0.082 C
HETATM   21  N4  UNL     1      -5.936   3.772  15.628  1.00  0.00    -0.272 N
ATOM     22  H4  UNL     1      -5.594   4.110  14.728  1.00  0.00     0.193 HD
BRANCH  20  23
HETATM   23  C7  UNL     1      -6.016   2.203  17.384  1.00  0.00     0.173 C
HETATM   24 CL1  UNL     1      -7.534   1.318  17.101  1.00  0.00    -0.124 Cl
ENDBRANCH  20  23
BRANCH  21  25
HETATM   25  O2  UNL     1      -6.858   4.537  16.291  1.00  0.00    -0.290 OA
ATOM     26  H2  UNL     1      -7.559   5.016  15.865  1.00  0.00     0.244 HD
ENDBRANCH  21  25
ENDBRANCH  17  20
ENDBRANCH  13  17
BRANCH  15  27
HETATM   27  C10 UNL     1      -4.013  -0.118  11.034  1.00  0.00     0.197 C
BRANCH  27  28
HETATM   28  O3  UNL     1      -3.582   0.395   9.802  1.00  0.00    -0.398 OA
ATOM     29  H3  UNL     1      -3.666  -0.315   9.175  1.00  0.00     0.209 HD
ENDBRANCH  27  28
ENDBRANCH  15  27
ENDBRANCH   4  11
TORSDOF 9
ENDMDL