MODEL 1
REMARK VINA RESULT: -3.940353794      0.000      0.000
REMARK  1 active torsions:
REMARK  status: ('A' for Active; 'I' for Inactive)
REMARK    1  A    between atoms: N1_1  and  C1_5
ROOT
HETATM    1  C1  UNL     1       3.987  -2.018  42.894  1.00  0.00     0.209 C
HETATM    2  C2  UNL     1       5.106  -1.468  41.976  1.00  0.00     0.061 C
HETATM    3  C3  UNL     1       4.277  -0.219  42.201  1.00  0.00     0.103 A
HETATM    4  N2  UNL     1       3.039   0.090  41.708  1.00  0.00    -0.407 N
ATOM      5  H2  UNL     1       2.425   0.844  41.397  1.00  0.00     0.154 HD
HETATM    6  C4  UNL     1       3.152  -1.261  41.897  1.00  0.00     0.129 A
ENDROOT
BRANCH   1   7
HETATM    7  N1  UNL     1       3.940  -3.431  42.773  1.00  0.00    -0.073 N
ATOM      8  H13 UNL     1       4.043  -3.741  41.807  1.00  0.00     0.274 HD
ATOM      9  H12 UNL     1       4.771  -3.880  43.157  1.00  0.00     0.274 HD
ATOM     10  H11 UNL     1       3.080  -3.774  43.200  1.00  0.00     0.274 HD
ENDBRANCH   1   7
TORSDOF 1
ENDMDL