MODEL 5
REMARK VINA RESULT: -3.513819953      8.316      9.130
REMARK  0 active torsions:
REMARK  status: ('A' for Active; 'I' for Inactive)
ROOT
HETATM    1  C1  UNL     1      11.005   3.278  47.796  1.00  0.00     0.179 C
HETATM    2  N1  UNL     1      10.809   3.634  46.386  1.00  0.00    -0.282 N
HETATM    3  N2  UNL     1      11.437   4.571  45.703  1.00  0.00    -0.308 N
ATOM      4  H2  UNL     1      12.160   5.179  46.089  1.00  0.00     0.186 HD
HETATM    5  C2  UNL     1      11.002   4.621  44.434  1.00  0.00     0.111 A
HETATM    6  C3  UNL     1      10.034   3.645  44.320  1.00  0.00     0.068 A
HETATM    7  C4  UNL     1       9.935   3.046  45.554  1.00  0.00     0.116 A
HETATM    8  N3  UNL     1       9.127   2.073  45.856  1.00  0.00    -0.384 N
ATOM      9  H31 UNL     1       8.463   1.626  45.223  1.00  0.00     0.157 HD
ATOM     10  H32 UNL     1       9.052   1.629  46.771  1.00  0.00     0.157 HD
ENDROOT
TORSDOF 0
ENDMDL