MODEL 2
REMARK VINA RESULT: -4.276988653      1.097      2.225
REMARK  1 active torsions:
REMARK  status: ('A' for Active; 'I' for Inactive)
REMARK    1  A    between atoms: C4_9  and  N3_10
ROOT
HETATM    1  N1  UNL     1       3.051  -3.882  43.132  1.00  0.00    -0.387 N
ATOM      2  H11 UNL     1       3.510  -4.785  43.256  1.00  0.00     0.157 HD
ATOM      3  H12 UNL     1       2.080  -4.006  43.419  1.00  0.00     0.157 HD
HETATM    4  C1  UNL     1       3.628  -2.815  42.693  1.00  0.00     0.105 A
HETATM    5  N2  UNL     1       2.990  -1.558  42.521  1.00  0.00    -0.358 N
ATOM      6  H2  UNL     1       2.001  -1.399  42.718  1.00  0.00     0.166 HD
HETATM    7  C2  UNL     1       3.768  -0.654  42.098  1.00  0.00     0.064 A
HETATM    8  C3  UNL     1       5.108  -1.202  41.917  1.00  0.00     0.085 A
HETATM    9  C4  UNL     1       5.022  -2.638  42.281  1.00  0.00     0.254 A
ENDROOT
BRANCH   9  10
HETATM   10  N3  UNL     1       5.964  -2.918  43.336  1.00  0.00    -0.068 N
ATOM     11  H33 UNL     1       6.524  -2.094  43.553  1.00  0.00     0.275 HD
ATOM     12  H32 UNL     1       5.485  -3.034  44.229  1.00  0.00     0.275 HD
ATOM     13  H31 UNL     1       6.561  -3.721  43.136  1.00  0.00     0.275 HD
ENDBRANCH   9  10
TORSDOF 1
ENDMDL