MODEL 3
REMARK VINA RESULT: -3.866479474      0.890      1.600
REMARK  0 active torsions:
REMARK  status: ('A' for Active; 'I' for Inactive)
ROOT
HETATM    1  N1  UNL     1       6.038  -0.244  51.211  1.00  0.00    -0.106 NA
HETATM    2  C1  UNL     1       6.163   1.124  51.544  1.00  0.00     0.047 C
HETATM    3  C2  UNL     1       6.709   2.106  50.845  1.00  0.00     0.024 C
HETATM    4  C3  UNL     1       6.568   3.335  51.667  1.00  0.00     0.261 C
HETATM    5  N2  UNL     1       5.337   3.044  52.379  1.00  0.00    -0.067 N
ATOM      6  H21 UNL     1       4.475   3.153  51.845  1.00  0.00     0.277 HD
ATOM      7  H22 UNL     1       5.068   3.714  53.100  1.00  0.00     0.277 HD
HETATM    8  C4  UNL     1       5.642   1.678  52.845  1.00  0.00     0.286 C
ENDROOT
TORSDOF 0
ENDMDL