MODEL 3
REMARK VINA RESULT: -3.494269574      9.885     10.802
REMARK  1 active torsions:
REMARK  status: ('A' for Active; 'I' for Inactive)
REMARK    1  A    between atoms: C3_5  and  N3_6
ROOT
HETATM    1  C1  UNL     1       6.553   3.662  52.441  1.00  0.00     0.301 C
HETATM    2  N1  UNL     1       6.054   2.295  52.444  1.00  0.00     0.051 N
HETATM    3  C2  UNL     1       4.747   2.086  52.978  1.00  0.00     0.301 C
HETATM    4  N2  UNL     1       7.056   1.341  52.594  1.00  0.00     0.021 NA
HETATM    5  C3  UNL     1       6.463   1.416  51.347  1.00  0.00     0.524 A
ENDROOT
BRANCH   5   6
HETATM    6  N3  UNL     1       7.008   2.143  50.225  1.00  0.00    -0.032 N
ATOM      7  H33 UNL     1       7.923   1.777  49.962  1.00  0.00     0.278 HD
ATOM      8  H32 UNL     1       6.495   1.933  49.369  1.00  0.00     0.278 HD
ATOM      9  H31 UNL     1       7.050   3.148  50.390  1.00  0.00     0.278 HD
ENDBRANCH   5   6
TORSDOF 1
ENDMDL