MODEL 3
REMARK VINA RESULT: -3.636900634      1.524      2.056
REMARK  1 active torsions:
REMARK  status: ('A' for Active; 'I' for Inactive)
REMARK    1  A    between atoms: N2_6  and  N3_8
ROOT
HETATM    1  C1  UNL     1       4.382  -0.027  41.940  1.00  0.00     0.040 C
HETATM    2  C2  UNL     1       3.972  -1.482  41.934  1.00  0.00     0.147 A
HETATM    3  N1  UNL     1       2.951  -1.937  42.826  1.00  0.00    -0.366 N
ATOM      4  H1  UNL     1       1.973  -1.954  43.114  1.00  0.00     0.161 HD
HETATM    5  C3  UNL     1       4.349  -2.364  43.025  1.00  0.00     0.114 A
HETATM    6  N2  UNL     1       5.189  -3.045  43.720  1.00  0.00    -0.294 N
ATOM      7  H2  UNL     1       4.851  -3.572  44.525  1.00  0.00     0.187 HD
ENDROOT
BRANCH   6   8
HETATM    8  N3  UNL     1       6.550  -3.087  43.405  1.00  0.00    -0.344 N
ATOM      9  H32 UNL     1       6.834  -3.613  42.579  1.00  0.00     0.176 HD
ATOM     10  H31 UNL     1       7.251  -2.611  43.973  1.00  0.00     0.176 HD
ENDBRANCH   6   8
TORSDOF 1
ENDMDL