MODEL 2
REMARK VINA RESULT: -4.102531617      1.373      2.009
REMARK  1 active torsions:
REMARK  status: ('A' for Active; 'I' for Inactive)
REMARK    1  A    between atoms: N1_1  and  C1_5
ROOT
HETATM    1  C1  UNL     1       5.066  -2.274  43.211  1.00  0.00     0.283 C
HETATM    2  C2  UNL     1       5.201  -1.481  41.942  1.00  0.00     0.073 C
HETATM    3  C3  UNL     1       3.821  -0.882  41.655  1.00  0.00     0.124 C
HETATM    4  N2  UNL     1       2.951  -2.014  41.389  1.00  0.00    -0.386 N
ATOM      5  H2  UNL     1       2.351  -2.037  40.564  1.00  0.00     0.160 HD
HETATM    6  C4  UNL     1       2.966  -3.085  42.316  1.00  0.00     0.172 C
HETATM    7  N3  UNL     1       3.946  -3.174  43.134  1.00  0.00    -0.359 N
ATOM      8  H3  UNL     1       3.931  -3.954  43.791  1.00  0.00     0.162 HD
ENDROOT
BRANCH   1   9
HETATM    9  N1  UNL     1       6.253  -3.113  43.441  1.00  0.00    -0.058 N
ATOM     10  H13 UNL     1       6.181  -4.008  42.957  1.00  0.00     0.276 HD
ATOM     11  H12 UNL     1       7.073  -2.742  42.961  1.00  0.00     0.276 HD
ATOM     12  H11 UNL     1       6.427  -3.239  44.437  1.00  0.00     0.276 HD
ENDBRANCH   1   9
TORSDOF 1
ENDMDL