MODEL 4
REMARK VINA RESULT: -3.265724983      1.987      2.925
REMARK  3 active torsions:
REMARK  status: ('A' for Active; 'I' for Inactive)
REMARK    1  A    between atoms: N1_1  and  C1_5
REMARK    2  A    between atoms: C1_5  and  C2_6
REMARK    3  A    between atoms: C4_8  and  N2_9
ROOT
HETATM    1  C2  UNL     1       4.661  -2.544  42.761  1.00  0.00    -0.023 A
HETATM    2  C3  UNL     1       3.515  -1.792  42.278  1.00  0.00     0.017 A
HETATM    3  C4  UNL     1       3.291  -2.843  43.206  1.00  0.00     0.237 A
ENDROOT
BRANCH   1   4
HETATM    4  C1  UNL     1       6.113  -2.671  42.666  1.00  0.00     0.266 C
BRANCH   4   5
HETATM    5  N1  UNL     1       6.710  -3.424  43.739  1.00  0.00    -0.076 N
ATOM      6  H13 UNL     1       6.174  -3.308  44.599  1.00  0.00     0.274 HD
ATOM      7  H12 UNL     1       6.581  -4.425  43.588  1.00  0.00     0.274 HD
ATOM      8  H11 UNL     1       7.694  -3.210  43.900  1.00  0.00     0.274 HD
ENDBRANCH   4   5
ENDBRANCH   1   4
BRANCH   3   9
HETATM    9  N2  UNL     1       2.952  -2.553  44.570  1.00  0.00    -0.068 N
ATOM     10  H23 UNL     1       2.509  -3.371  44.987  1.00  0.00     0.275 HD
ATOM     11  H22 UNL     1       3.807  -2.494  45.123  1.00  0.00     0.275 HD
ATOM     12  H21 UNL     1       2.378  -1.730  44.753  1.00  0.00     0.275 HD
ENDBRANCH   3   9
TORSDOF 3
ENDMDL