MODEL 2
REMARK VINA RESULT: -4.296075362      1.282      1.935
REMARK  0 active torsions:
REMARK  status: ('A' for Active; 'I' for Inactive)
ROOT
HETATM    1  C1  UNL     1      11.015   3.329  47.217  1.00  0.00     0.173 C
HETATM    2  N1  UNL     1      10.151   3.181  46.046  1.00  0.00    -0.304 N
HETATM    3  N2  UNL     1       9.171   2.384  45.884  1.00  0.00    -0.231 N
ATOM      4  H2  UNL     1       8.843   1.712  46.577  1.00  0.00     0.205 HD
HETATM    5  N3  UNL     1       8.611   2.566  44.613  1.00  0.00    -0.014 NA
HETATM    6  N4  UNL     1       8.932   3.894  44.301  1.00  0.00    -0.104 NA
HETATM    7  C2  UNL     1      10.281   3.950  44.829  1.00  0.00     0.275 C
ENDROOT
TORSDOF 0
ENDMDL