MODEL 1
REMARK VINA RESULT: -3.900085218      0.000      0.000
REMARK  0 active torsions:
REMARK  status: ('A' for Active; 'I' for Inactive)
ROOT
HETATM    1  C1  UNL     1       5.328  -2.259  42.670  1.00  0.00     0.082 C
HETATM    2  N1  UNL     1       5.314  -1.405  41.733  1.00  0.00    -0.399 N
ATOM      3  H1  UNL     1       6.176  -1.224  41.219  1.00  0.00     0.158 HD
HETATM    4  C2  UNL     1       4.131  -0.686  41.372  1.00  0.00     0.146 C
HETATM    5  C3  UNL     1       2.953  -1.601  41.660  1.00  0.00     0.252 C
HETATM    6  N2  UNL     1       2.982  -1.798  43.113  1.00  0.00    -0.069 N
ATOM      7  H21 UNL     1       2.111  -2.200  43.463  1.00  0.00     0.277 HD
ATOM      8  H22 UNL     1       2.952  -0.914  43.621  1.00  0.00     0.277 HD
HETATM    9  C4  UNL     1       4.140  -2.600  43.479  1.00  0.00     0.276 C
ENDROOT
TORSDOF 0
ENDMDL