MODEL 3
REMARK VINA RESULT: -5.772455116      3.666      4.712
REMARK  2 active torsions:
REMARK  status: ('A' for Active; 'I' for Inactive)
REMARK    1  A    between atoms: C5_6  and  S1_7
REMARK    2  A    between atoms: S1_7  and  C6_8
ROOT
HETATM    1  C6  UNL     1      -5.115  59.293  30.494  1.00  0.00     0.136 C
HETATM    2  N1  UNL     1      -5.167  58.074  30.850  1.00  0.00    -0.369 N
ATOM      3  H1  UNL     1      -4.347  57.490  31.012  1.00  0.00     0.161 HD
HETATM    4  C7  UNL     1      -6.531  57.614  30.997  1.00  0.00     0.141 C
HETATM    5  C8  UNL     1      -7.321  58.668  30.291  1.00  0.00     0.141 C
HETATM    6  N2  UNL     1      -6.425  59.827  30.351  1.00  0.00    -0.369 N
ATOM      7  H2  UNL     1      -6.687  60.812  30.301  1.00  0.00     0.161 HD
ENDROOT
BRANCH   1   8
HETATM    8  S1  UNL     1      -3.650  60.308  30.184  1.00  0.00    -0.087 SA
BRANCH   8   9
HETATM    9  C5  UNL     1      -2.238  59.464  30.964  1.00  0.00     0.089 C
HETATM   10  C1  UNL     1      -1.073  60.362  31.173  1.00  0.00     0.184 C
HETATM   11  F1  UNL     1      -0.840  60.434  32.551  1.00  0.00    -0.248 F
HETATM   12  C2  UNL     1       0.129  59.688  30.565  1.00  0.00     0.038 C
HETATM   13  C3  UNL     1      -0.287  58.312  30.147  1.00  0.00     0.004 C
HETATM   14  C4  UNL     1      -1.791  58.388  29.976  1.00  0.00     0.018 C
ENDBRANCH   8   9
ENDBRANCH   1   8
TORSDOF 2
ENDMDL