MODEL 3
REMARK VINA RESULT: -5.563777545      2.817      5.358
REMARK  2 active torsions:
REMARK  status: ('A' for Active; 'I' for Inactive)
REMARK    1  A    between atoms: C2_2  and  O1_5
REMARK    2  A    between atoms: O1_5  and  N1_6
ROOT
HETATM    1  N1  UNL     1      -3.903  59.890  30.008  1.00  0.00    -0.249 N
ATOM      2  H1  UNL     1      -3.676  60.860  29.788  1.00  0.00     0.196 HD
HETATM    3  C3  UNL     1      -5.023  59.655  30.561  1.00  0.00     0.097 C
HETATM    4  C4  UNL     1      -5.260  58.208  30.842  1.00  0.00     0.078 C
HETATM    5  C5  UNL     1      -6.756  57.903  30.793  1.00  0.00     0.007 C
HETATM    6  C6  UNL     1      -7.328  58.801  29.702  1.00  0.00     0.002 C
HETATM    7  C7  UNL     1      -8.098  59.939  30.326  1.00  0.00     0.020 C
HETATM    8  C8  UNL     1      -7.221  60.822  31.152  1.00  0.00     0.121 C
HETATM    9  N2  UNL     1      -5.835  60.776  30.810  1.00  0.00    -0.378 N
ATOM     10  H2  UNL     1      -5.370  61.681  30.735  1.00  0.00     0.160 HD
ENDROOT
BRANCH   1  11
HETATM   11  O1  UNL     1      -2.978  58.926  29.688  1.00  0.00    -0.203 OA
BRANCH  11  12
HETATM   12  C2  UNL     1      -1.699  59.044  30.291  1.00  0.00     0.370 C
HETATM   13  C1  UNL     1      -1.721  60.014  31.451  1.00  0.00     0.128 C
HETATM   14  F1  UNL     1      -1.345  57.772  30.708  1.00  0.00    -0.174 F
HETATM   15  F2  UNL     1      -0.838  59.503  29.308  1.00  0.00    -0.174 F
ENDBRANCH  11  12
ENDBRANCH   1  11
TORSDOF 2
ENDMDL