MODEL 1
REMARK VINA RESULT: -6.972215464      0.000      0.000
REMARK  1 active torsions:
REMARK  status: ('A' for Active; 'I' for Inactive)
REMARK    1  A    between atoms: C6_7  and  C7_8
ROOT
HETATM    1  C7  UNL     1      -2.517  61.910  31.726  1.00  0.00     0.117 A
HETATM    2  N1  UNL     1      -1.862  63.015  32.127  1.00  0.00    -0.272 N
ATOM      3  H1  UNL     1      -0.887  63.042  32.426  1.00  0.00     0.190 HD
HETATM    4  N2  UNL     1      -2.672  64.068  32.073  1.00  0.00    -0.227 N
ATOM      5  H2  UNL     1      -2.445  65.031  32.318  1.00  0.00     0.210 HD
HETATM    6  N3  UNL     1      -3.832  63.613  31.638  1.00  0.00    -0.227 N
ATOM      7  H3  UNL     1      -4.666  64.180  31.488  1.00  0.00     0.210 HD
HETATM    8  N4  UNL     1      -3.748  62.289  31.422  1.00  0.00    -0.272 N
ATOM      9  H4  UNL     1      -4.498  61.686  31.084  1.00  0.00     0.190 HD
ENDROOT
BRANCH   1  10
HETATM   10  C6  UNL     1      -1.850  60.580  31.686  1.00  0.00     0.059 C
HETATM   11  C5  UNL     1      -2.867  59.531  31.539  1.00  0.00     0.012 C
HETATM   12  C4  UNL     1      -2.980  58.918  30.176  1.00  0.00     0.001 C
HETATM   13  C3  UNL     1      -2.023  57.774  30.082  1.00  0.00     0.003 C
HETATM   14  C2  UNL     1      -0.725  58.138  30.765  1.00  0.00     0.037 C
HETATM   15  C1  UNL     1      -0.134  59.403  30.259  1.00  0.00     0.171 C
HETATM   16  F1  UNL     1      -0.037  59.288  28.864  1.00  0.00    -0.249 F
HETATM   17  C8  UNL     1      -0.787  60.650  30.649  1.00  0.00     0.049 C
ENDBRANCH   1  10
TORSDOF 1
ENDMDL