MODEL 1
REMARK VINA RESULT: -4.300839879      0.000      0.000
REMARK  0 active torsions:
REMARK  status: ('A' for Active; 'I' for Inactive)
ROOT
HETATM    1  N1  UNL     1      -3.299  63.496  31.892  1.00  0.00    -0.374 N
ATOM      2  H11 UNL     1      -4.113  64.017  31.566  1.00  0.00     0.158 HD
ATOM      3  H12 UNL     1      -2.781  64.147  32.481  1.00  0.00     0.158 HD
HETATM    4  C1  UNL     1      -2.953  62.302  31.652  1.00  0.00     0.181 C
HETATM    5  O1  UNL     1      -1.859  61.601  32.089  1.00  0.00    -0.291 OA
HETATM    6  C2  UNL     1      -1.551  60.478  31.384  1.00  0.00     0.072 C
HETATM    7  C3  UNL     1      -0.347  60.045  31.051  1.00  0.00     0.089 C
HETATM    8 BR1  UNL     1      -0.049  58.447  30.057  1.00  0.00    -0.061 Br
HETATM    9  C4  UNL     1      -2.781  59.707  30.983  1.00  0.00     0.148 C
HETATM   10  S1  UNL     1      -3.860  61.163  30.621  1.00  0.00    -0.080 SA
ENDROOT
TORSDOF 0
ENDMDL