MODEL 4
REMARK VINA RESULT: -6.087698027      2.935      3.914
REMARK  1 active torsions:
REMARK  status: ('A' for Active; 'I' for Inactive)
REMARK    1  A    between atoms: C5_6  and  C6_7
ROOT
HETATM    1 CL1  UNL     1       1.159  58.833  30.142  1.00  0.00    -0.125 Cl
HETATM    2  C1  UNL     1      -0.478  58.907  30.773  1.00  0.00     0.083 C
HETATM    3  C2  UNL     1      -1.511  58.485  29.725  1.00  0.00     0.020 C
HETATM    4  C3  UNL     1      -2.828  58.403  30.403  1.00  0.00     0.002 C
HETATM    5  C4  UNL     1      -3.235  59.554  31.215  1.00  0.00     0.012 C
HETATM    6  C5  UNL     1      -2.187  60.423  31.780  1.00  0.00     0.057 C
HETATM    7  C7  UNL     1      -0.847  60.336  31.123  1.00  0.00     0.032 C
ENDROOT
BRANCH   6   8
HETATM    8  C6  UNL     1      -2.617  61.855  31.706  1.00  0.00     0.111 A
HETATM    9  N1  UNL     1      -3.758  62.368  31.213  1.00  0.00    -0.274 N
HETATM   10  N2  UNL     1      -3.761  63.691  31.330  1.00  0.00    -0.007 NA
ATOM     11  H1  UNL     1      -4.515  61.817  30.806  1.00  0.00     0.185 HD
HETATM   12  N3  UNL     1      -2.618  64.035  31.900  1.00  0.00    -0.007 NA
HETATM   13  N4  UNL     1      -1.917  62.934  32.132  1.00  0.00    -0.274 N
ATOM     14  H4  UNL     1      -0.993  62.904  32.564  1.00  0.00     0.185 HD
ENDBRANCH   6   8
TORSDOF 1
ENDMDL