MODEL 1
REMARK VINA RESULT: -5.214722290      0.000      0.000
REMARK  4 active torsions:
REMARK  status: ('A' for Active; 'I' for Inactive)
REMARK    1  A    between atoms: C2_2  and  C3_4
REMARK    2  A    between atoms: C3_4  and  N2_9
REMARK    3  A    between atoms: N1_5  and  O1_7
REMARK    4  A    between atoms: N2_9  and  C4_11
ROOT
HETATM    1  C3  UNL     1      -5.827  58.991  30.398  1.00  0.00     0.142 C
HETATM    2  N1  UNL     1      -5.608  57.850  30.919  1.00  0.00    -0.252 N
ATOM      3  H1  UNL     1      -4.631  57.571  31.011  1.00  0.00     0.196 HD
ENDROOT
BRANCH   1   4
HETATM    4  C2  UNL     1      -7.203  59.444  30.239  1.00  0.00     0.070 C
HETATM    5  C1  UNL     1      -7.734  60.254  31.128  1.00  0.00     0.041 C
HETATM    6 CL1  UNL     1      -8.160  58.921  28.872  1.00  0.00    -0.081 Cl
ENDBRANCH   1   4
BRANCH   1   7
HETATM    7  N2  UNL     1      -4.735  59.820  29.973  1.00  0.00    -0.369 N
ATOM      8  H2  UNL     1      -4.814  60.410  29.144  1.00  0.00     0.161 HD
BRANCH   7   9
HETATM    9  C4  UNL     1      -3.542  59.792  30.742  1.00  0.00     0.083 C
HETATM   10  C5  UNL     1      -2.974  61.135  31.064  1.00  0.00     0.025 C
HETATM   11  C6  UNL     1      -1.623  60.772  31.647  1.00  0.00     0.002 C
HETATM   12  C7  UNL     1      -1.191  59.578  30.839  1.00  0.00     0.002 C
HETATM   13  C8  UNL     1      -2.386  59.094  30.068  1.00  0.00     0.025 C
ENDBRANCH   7   9
ENDBRANCH   1   7
BRANCH   2  14
HETATM   14  O1  UNL     1      -6.529  56.968  31.363  1.00  0.00    -0.288 OA
ATOM     15  H1  UNL     1      -6.503  56.472  32.173  1.00  0.00     0.244 HD
ENDBRANCH   2  14
TORSDOF 4
ENDMDL