MODEL 3
REMARK VINA RESULT: -5.578982270      3.560      4.053
REMARK  1 active torsions:
REMARK  status: ('A' for Active; 'I' for Inactive)
REMARK    1  A    between atoms: C2_4  and  C3_5
ROOT
HETATM    1  C3  UNL     1      -2.766  59.229  31.009  1.00  0.00     0.283 C
HETATM    2  N2  UNL     1      -2.119  60.476  30.636  1.00  0.00    -0.058 N
ATOM      3  H21 UNL     1      -2.669  61.301  30.876  1.00  0.00     0.278 HD
ATOM      4  H22 UNL     1      -2.092  60.628  29.627  1.00  0.00     0.278 HD
HETATM    5  C4  UNL     1      -0.821  60.471  31.238  1.00  0.00     0.235 C
HETATM    6  C5  UNL     1       0.197  59.669  30.484  1.00  0.00     0.038 C
HETATM    7  C6  UNL     1      -0.143  58.242  30.294  1.00  0.00     0.078 C
HETATM    8  S1  UNL     1      -1.920  57.959  30.007  1.00  0.00    -0.131 SA
ENDROOT
BRANCH   1   9
HETATM    9  C2  UNL     1      -4.216  59.246  30.770  1.00  0.00     0.019 A
HETATM   10  C1  UNL     1      -5.125  58.214  30.696  1.00  0.00     0.160 A
HETATM   11  N1  UNL     1      -6.344  58.729  30.460  1.00  0.00    -0.130 N
HETATM   12  F1  UNL     1      -7.504  58.059  30.318  1.00  0.00    -0.077 F
HETATM   13  N3  UNL     1      -6.228  60.031  30.385  1.00  0.00    -0.282 N
HETATM   14  C7  UNL     1      -4.941  60.401  30.569  1.00  0.00     0.121 A
ATOM     15  H3  UNL     1      -7.000  60.675  30.213  1.00  0.00     0.188 HD
ENDBRANCH   1   9
TORSDOF 1
ENDMDL