MODEL 2
REMARK VINA RESULT: -3.706999748      2.330      4.019
REMARK  1 active torsions:
REMARK  status: ('A' for Active; 'I' for Inactive)
REMARK    1  A    between atoms: N1_2  and  C2_4
ROOT
HETATM    1  C2  UNL     1      -9.532  59.326  29.599  1.00  0.00     0.158 C
HETATM    2  C3  UNL     1      -9.887  60.517  28.804  1.00  0.00     0.094 C
HETATM    3  N2  UNL     1     -10.163  61.457  28.152  1.00  0.00    -0.194 NA
HETATM    4  C4  UNL     1      -8.081  58.990  29.326  1.00  0.00     0.087 C
HETATM    5  C5  UNL     1      -7.421  59.047  30.672  1.00  0.00     0.059 C
HETATM    6  C6  UNL     1      -6.503  60.223  30.829  1.00  0.00     0.045 C
HETATM    7  C7  UNL     1      -6.569  57.783  30.832  1.00  0.00     0.045 C
HETATM    8  O1  UNL     1      -8.422  58.995  31.624  1.00  0.00    -0.357 OA
HETATM    9  C8  UNL     1      -9.507  59.653  31.063  1.00  0.00     0.260 C
HETATM   10 CL1  UNL     1      -9.191  61.400  31.214  1.00  0.00    -0.091 Cl
ENDROOT
BRANCH   1  11
HETATM   11  N1  UNL     1     -10.445  58.293  29.246  1.00  0.00    -0.402 N
HETATM   12  C1  UNL     1     -10.327  57.789  27.923  1.00  0.00     0.141 C
ATOM     13  H1  UNL     1     -11.141  57.937  29.902  1.00  0.00     0.154 HD
ENDBRANCH   1  11
TORSDOF 1
ENDMDL