MODEL 5
REMARK VINA RESULT: -3.888560502      2.982      4.295
REMARK  2 active torsions:
REMARK  status: ('A' for Active; 'I' for Inactive)
REMARK    1  A    between atoms: O1_1  and  C1_3
REMARK    2  A    between atoms: C1_3  and  C2_5
ROOT
HETATM    1  C2  UNL     1      -2.083  61.024  30.912  1.00  0.00     0.100 C
HETATM    2  C3  UNL     1      -3.048  59.958  30.514  1.00  0.00     0.092 C
HETATM    3  S1  UNL     1      -2.284  58.351  30.255  1.00  0.00    -0.167 SA
HETATM    4  C4  UNL     1      -0.569  58.481  29.702  1.00  0.00     0.084 C
HETATM    5  C5  UNL     1       0.298  59.239  30.677  1.00  0.00     0.084 C
HETATM    6  S2  UNL     1      -0.687  60.283  31.758  1.00  0.00    -0.159 SA
ENDROOT
BRANCH   1   7
HETATM    7  C1  UNL     1      -2.741  62.035  31.835  1.00  0.00     0.228 C
HETATM    8 CL1  UNL     1      -4.225  62.697  31.083  1.00  0.00    -0.094 Cl
BRANCH   7   9
HETATM    9  O1  UNL     1      -1.926  63.096  32.132  1.00  0.00    -0.379 OA
ATOM     10  H1  UNL     1      -1.043  62.857  31.874  1.00  0.00     0.211 HD
ENDBRANCH   7   9
ENDBRANCH   1   7
TORSDOF 2
ENDMDL