MODEL 2
REMARK VINA RESULT: -5.755944450      0.644      1.257
REMARK  1 active torsions:
REMARK  status: ('A' for Active; 'I' for Inactive)
REMARK    1  A    between atoms: C2_5  and  C3_6
ROOT
HETATM    1  O1  UNL     1      -4.555  64.623  31.130  1.00  0.00    -0.236 OA
HETATM    2  C1  UNL     1      -3.616  63.822  31.467  1.00  0.00     0.388 A
HETATM    3  N1  UNL     1      -3.640  62.484  31.454  1.00  0.00    -0.289 N
ATOM      4  H1  UNL     1      -4.425  61.898  31.169  1.00  0.00     0.172 HD
HETATM    5  C2  UNL     1      -2.443  62.053  31.887  1.00  0.00     0.110 A
HETATM    6  N2  UNL     1      -1.705  63.152  32.157  1.00  0.00    -0.243 N
ATOM      7  H2  UNL     1      -0.746  63.167  32.504  1.00  0.00     0.196 HD
HETATM    8  O2  UNL     1      -2.433  64.170  31.897  1.00  0.00    -0.179 OA
ENDROOT
BRANCH   5   9
HETATM    9  C3  UNL     1      -2.037  60.606  32.030  1.00  0.00     0.055 C
HETATM   10  C4  UNL     1      -0.681  60.428  31.471  1.00  0.00     0.012 C
HETATM   11  C5  UNL     1      -0.577  59.763  30.155  1.00  0.00     0.001 C
HETATM   12  C6  UNL     1      -1.623  58.708  29.898  1.00  0.00     0.000 C
HETATM   13  C7  UNL     1      -2.971  59.428  30.047  1.00  0.00     0.001 C
HETATM   14  C8  UNL     1      -3.095  59.704  31.530  1.00  0.00     0.012 C
ENDBRANCH   5   9
TORSDOF 1
ENDMDL