MODEL 5
REMARK VINA RESULT: -6.348535192      3.347      4.048
REMARK  6 active torsions:
REMARK  status: ('A' for Active; 'I' for Inactive)
REMARK       I    between atoms: N1_5  and  C5_6
REMARK    1  A    between atoms: C5_6  and  C6_8
REMARK    2  A    between atoms: C6_8  and  C7_9
REMARK    3  A    between atoms: C7_9  and  C8_10
REMARK    4  A    between atoms: C8_10  and  C9_11
REMARK    5  A    between atoms: C9_11  and  C10_12
REMARK    6  A    between atoms: C10_12  and  C11_13
REMARK       I    between atoms: C11_13  and  N2_15
ROOT
HETATM    1  C7  UNL     1      -7.267  -3.874 -30.238  1.00  0.00     0.009 C
ENDROOT
BRANCH   1   2
HETATM    2  C6  UNL     1      -5.806  -3.594 -30.514  1.00  0.00     0.103 C
BRANCH   2   3
HETATM    3  C5  UNL     1      -4.966  -4.809 -30.585  1.00  0.00     0.219 C
HETATM    4  N1  UNL     1      -3.562  -4.686 -30.455  1.00  0.00    -0.352 N
HETATM    5  C4  UNL     1      -2.733  -5.847 -30.521  1.00  0.00     0.126 C
HETATM    6  C13 UNL     1      -2.942  -3.396 -30.259  1.00  0.00     0.126 C
HETATM    7  C3  UNL     1      -1.466  -5.626 -31.319  1.00  0.00     0.024 C
HETATM    8  C2  UNL     1      -0.796  -4.326 -30.956  1.00  0.00    -0.015 C
HETATM    9  C1  UNL     1       0.613  -4.597 -30.473  1.00  0.00     0.010 C
HETATM   10  C14 UNL     1      -1.524  -3.619 -29.831  1.00  0.00     0.024 C
HETATM   11  O1  UNL     1      -5.475  -5.936 -30.758  1.00  0.00    -0.273 OA
ENDBRANCH   2   3
ENDBRANCH   1   2
BRANCH   1  12
HETATM   12  C8  UNL     1      -8.222  -2.963 -30.869  1.00  0.00     0.001 C
BRANCH  12  13
HETATM   13  C9  UNL     1      -7.803  -1.706 -31.503  1.00  0.00     0.009 C
BRANCH  13  14
HETATM   14  C10 UNL     1      -7.762  -1.736 -32.988  1.00  0.00     0.103 C
BRANCH  14  15
HETATM   15  C11 UNL     1      -8.721  -0.942 -33.703  1.00  0.00     0.223 C
HETATM   16  O2  UNL     1      -9.663  -0.239 -33.237  1.00  0.00    -0.273 OA
HETATM   17  N2  UNL     1      -8.659  -0.909 -35.160  1.00  0.00    -0.304 N
HETATM   18  C12 UNL     1      -9.332  -1.790 -35.784  1.00  0.00     0.203 C
ATOM     19  H2  UNL     1      -8.103  -0.212 -35.656  1.00  0.00     0.171 HD
HETATM   20  N3  UNL     1     -10.094  -2.746 -35.083  1.00  0.00    -0.066 NA
HETATM   21  N4  UNL     1      -9.312  -1.811 -37.197  1.00  0.00    -0.066 NA
ENDBRANCH  14  15
ENDBRANCH  13  14
ENDBRANCH  12  13
ENDBRANCH   1  12
TORSDOF 6
ENDMDL