MODEL 5
REMARK VINA RESULT: -5.334606383      2.268      3.624
REMARK  6 active torsions:
REMARK  status: ('A' for Active; 'I' for Inactive)
REMARK    1  A    between atoms: N3_4  and  C2_6
REMARK    2  A    between atoms: C2_6  and  C3_7
REMARK    3  A    between atoms: C3_7  and  C4_8
REMARK    4  A    between atoms: C4_8  and  N4_9
REMARK    5  A    between atoms: N4_9  and  C5_10
REMARK       I    between atoms: N4_9  and  C6_12
REMARK    6  A    between atoms: C6_12  and  C7_14
ROOT
HETATM    1  N4  UNL     1      -7.004  -3.838 -30.621  1.00  0.00    -0.295 N
HETATM    2  C6  UNL     1      -7.613  -2.648 -31.050  1.00  0.00     0.230 C
HETATM    3  O2  UNL     1      -6.816  -1.674 -31.347  1.00  0.00    -0.273 OA
ENDROOT
BRANCH   1   4
HETATM    4  C4  UNL     1      -5.561  -3.916 -30.571  1.00  0.00     0.136 C
BRANCH   4   5
HETATM    5  C3  UNL     1      -5.088  -5.369 -30.629  1.00  0.00     0.040 C
BRANCH   5   6
HETATM    6  C2  UNL     1      -3.616  -5.418 -30.288  1.00  0.00     0.123 C
BRANCH   6   7
HETATM    7  N3  UNL     1      -3.090  -4.072 -30.216  1.00  0.00    -0.367 N
HETATM    8  C1  UNL     1      -1.827  -3.842 -30.102  1.00  0.00     0.196 C
HETATM    9  N1  UNL     1      -0.949  -4.951 -30.047  1.00  0.00    -0.067 NA
HETATM   10  N2  UNL     1      -1.401  -2.491 -30.038  1.00  0.00    -0.067 NA
ATOM     11  H3  UNL     1      -3.735  -3.284 -30.257  1.00  0.00     0.161 HD
ENDBRANCH   6   7
ENDBRANCH   5   6
ENDBRANCH   4   5
ENDBRANCH   1   4
BRANCH   1  12
HETATM   12  C5  UNL     1      -7.760  -4.949 -30.221  1.00  0.00     0.357 C
HETATM   13  O1  UNL     1      -8.322  -4.915 -29.060  1.00  0.00    -0.283 OA
ENDBRANCH   1  12
BRANCH   2  14
HETATM   14  C7  UNL     1      -9.059  -2.376 -31.203  1.00  0.00     0.083 C
HETATM   15  C8  UNL     1      -9.209  -0.969 -31.714  1.00  0.00     0.014 C
HETATM   16  C9  UNL     1      -8.972  -0.760 -33.155  1.00  0.00     0.001 C
HETATM   17  C10 UNL     1      -8.873  -1.971 -34.014  1.00  0.00     0.005 C
HETATM   18  C11 UNL     1      -9.871  -2.992 -33.522  1.00  0.00    -0.010 C
HETATM   19  C12 UNL     1     -11.280  -2.526 -33.624  1.00  0.00     0.005 C
HETATM   20  C15 UNL     1      -9.662  -3.398 -32.120  1.00  0.00     0.003 C
HETATM   21  C13 UNL     1     -12.001  -3.550 -32.740  1.00  0.00     0.001 C
HETATM   22  C14 UNL     1     -11.039  -3.765 -31.614  1.00  0.00     0.006 C
ENDBRANCH   2  14
TORSDOF 6
ENDMDL