MODEL 3
REMARK VINA RESULT: -6.282285952      1.687      3.129
REMARK  6 active torsions:
REMARK  status: ('A' for Active; 'I' for Inactive)
REMARK    1  A    between atoms: N1_2  and  C2_3
REMARK    2  A    between atoms: C2_3  and  C3_4
REMARK    3  A    between atoms: C3_4  and  C4_5
REMARK    4  A    between atoms: C4_5  and  C5_6
REMARK    5  A    between atoms: C5_6  and  C6_7
REMARK    6  A    between atoms: C6_7  and  N2_8
ROOT
HETATM    1  C5  UNL     1      -5.575  -3.077 -30.554  1.00  0.00     0.020 C
ENDROOT
BRANCH   1   2
HETATM    2  C4  UNL     1      -6.432  -2.633 -31.708  1.00  0.00     0.003 C
BRANCH   2   3
HETATM    3  C3  UNL     1      -7.645  -1.842 -31.276  1.00  0.00     0.028 C
BRANCH   3   4
HETATM    4  C2  UNL     1      -8.861  -2.263 -32.065  1.00  0.00     0.237 C
BRANCH   4   5
HETATM    5  N1  UNL     1      -9.803  -3.010 -31.248  1.00  0.00    -0.071 N
HETATM    6  C1  UNL     1     -11.134  -2.645 -31.746  1.00  0.00     0.272 C
HETATM    7  C11 UNL     1      -9.598  -4.403 -31.347  1.00  0.00     0.237 C
HETATM    8  C12 UNL     1      -8.907  -5.096 -30.239  1.00  0.00     0.028 C
HETATM    9  C13 UNL     1      -9.047  -4.501 -28.885  1.00  0.00     0.003 C
HETATM   10  C14 UNL     1     -10.204  -3.505 -28.915  1.00  0.00     0.028 C
HETATM   11  C15 UNL     1      -9.715  -2.455 -29.921  1.00  0.00     0.237 C
ENDBRANCH   4   5
ENDBRANCH   3   4
ENDBRANCH   2   3
ENDBRANCH   1   2
BRANCH   1  12
HETATM   12  C6  UNL     1      -5.302  -4.573 -30.562  1.00  0.00     0.127 C
BRANCH  12  13
HETATM   13  N2  UNL     1      -3.839  -4.705 -30.542  1.00  0.00    -0.333 N
HETATM   14  C7  UNL     1      -3.079  -3.485 -30.391  1.00  0.00     0.136 C
HETATM   15  C8  UNL     1      -1.697  -3.782 -29.810  1.00  0.00     0.123 C
HETATM   16  C9  UNL     1      -1.084  -4.926 -30.535  1.00  0.00     0.227 C
HETATM   17  O1  UNL     1       0.094  -4.844 -31.023  1.00  0.00    -0.273 OA
HETATM   18  N3  UNL     1      -1.857  -6.112 -30.666  1.00  0.00    -0.279 N
HETATM   19  C10 UNL     1      -3.272  -5.999 -30.669  1.00  0.00     0.325 C
ATOM     20  H3  UNL     1      -1.405  -7.022 -30.755  1.00  0.00     0.173 HD
HETATM   21  O2  UNL     1      -3.955  -7.049 -30.784  1.00  0.00    -0.247 OA
ENDBRANCH  12  13
ENDBRANCH   1  12
TORSDOF 6
ENDMDL