MODEL 4
REMARK VINA RESULT: -3.869405387      2.055      2.683
REMARK  8 active torsions:
REMARK  status: ('A' for Active; 'I' for Inactive)
REMARK    1  A    between atoms: C2_2  and  C3_3
REMARK    2  A    between atoms: C3_3  and  N1_4
REMARK    3  A    between atoms: N2_7  and  C5_8
REMARK    4  A    between atoms: C5_8  and  C6_9
REMARK    5  A    between atoms: C6_9  and  C7_10
REMARK    6  A    between atoms: C10_13  and  C11_14
REMARK    7  A    between atoms: C11_14  and  C12_15
REMARK    8  A    between atoms: C12_15  and  O1_16
ROOT
HETATM    1  C7  UNL     1      -7.095  -2.529 -31.368  1.00  0.00    -0.105 C
HETATM    2  C8  UNL     1      -6.101  -3.094 -30.983  1.00  0.00    -0.111 C
HETATM    3  C9  UNL     1      -4.894  -3.791 -30.539  1.00  0.00     0.112 C
ENDROOT
BRANCH   1   4
HETATM    4  C6  UNL     1      -8.329  -1.843 -31.867  1.00  0.00     0.113 C
BRANCH   4   5
HETATM    5  C5  UNL     1      -8.913  -1.176 -30.648  1.00  0.00     0.138 C
BRANCH   5   6
HETATM    6  N2  UNL     1     -10.128  -1.734 -30.148  1.00  0.00    -0.350 N
HETATM    7  C4  UNL     1     -11.407  -1.084 -30.249  1.00  0.00     0.173 C
HETATM    8  N1  UNL     1     -12.286  -1.668 -29.260  1.00  0.00    -0.344 N
HETATM    9  S1  UNL     1     -11.937   0.096 -31.232  1.00  0.00    -0.041 SA
HETATM   10  C13 UNL     1     -11.459  -2.523 -28.443  1.00  0.00     0.048 C
HETATM   11  C10 UNL     1     -10.410  -2.963 -29.476  1.00  0.00     0.116 C
HETATM   12  C14 UNL     1     -12.217  -3.674 -27.877  1.00  0.00     0.040 C
HETATM   13  C15 UNL     1     -10.825  -1.685 -27.376  1.00  0.00     0.040 C
BRANCH   8  14
HETATM   14  C3  UNL     1     -13.695  -1.459 -29.105  1.00  0.00     0.152 C
BRANCH  14  15
HETATM   15  C2  UNL     1     -13.936  -0.341 -28.162  1.00  0.00    -0.017 C
HETATM   16  C1  UNL     1     -14.403  -0.545 -26.949  1.00  0.00     0.008 C
ENDBRANCH  14  15
ENDBRANCH   8  14
BRANCH  11  17
HETATM   17  C11 UNL     1      -9.366  -3.683 -28.747  1.00  0.00     0.054 C
BRANCH  17  18
HETATM   18  C12 UNL     1      -8.954  -5.030 -29.249  1.00  0.00     0.166 C
BRANCH  18  19
HETATM   19  O1  UNL     1      -9.622  -6.049 -28.520  1.00  0.00    -0.401 OA
ATOM     20  H1  UNL     1     -10.339  -6.400 -29.034  1.00  0.00     0.209 HD
ENDBRANCH  18  19
ENDBRANCH  17  18
ENDBRANCH  11  17
ENDBRANCH   5   6
ENDBRANCH   4   5
ENDBRANCH   1   4
TORSDOF 8
ENDMDL