MODEL 2
REMARK VINA RESULT: -4.215619599      2.736      4.646
REMARK  8 active torsions:
REMARK  status: ('A' for Active; 'I' for Inactive)
REMARK    1  A    between atoms: C3_3  and  C4_4
REMARK    2  A    between atoms: C3_3  and  C5_7
REMARK    3  A    between atoms: C3_3  and  O2_16
REMARK    4  A    between atoms: C4_4  and  O1_5
REMARK    5  A    between atoms: C5_7  and  N1_8
REMARK    6  A    between atoms: N1_8  and  C8_11
REMARK    7  A    between atoms: C8_11  and  C9_12
REMARK    8  A    between atoms: O2_16  and  C10_17
ROOT
HETATM    1  C1  UNL     1     -12.907  -3.466 -31.968  1.00  0.00     0.100 C
HETATM    2  C2  UNL     1     -12.687  -2.987 -30.861  1.00  0.00    -0.146 C
HETATM    3  C3  UNL     1     -12.400  -2.402 -29.549  1.00  0.00     0.157 C
ENDROOT
BRANCH   3   4
HETATM    4  C4  UNL     1     -12.961  -0.990 -29.610  1.00  0.00     0.216 C
BRANCH   4   5
HETATM    5  O1  UNL     1     -12.003  -0.022 -29.401  1.00  0.00    -0.397 OA
ATOM      6  H1  UNL     1     -11.467   0.141 -30.168  1.00  0.00     0.209 HD
ENDBRANCH   4   5
ENDBRANCH   3   4
BRANCH   3   7
HETATM    7  C5  UNL     1     -12.957  -3.219 -28.449  1.00  0.00     0.289 C
BRANCH   7   8
HETATM    8  N1  UNL     1     -13.165  -2.758 -27.157  1.00  0.00    -0.067 N
HETATM    9  C6  UNL     1     -13.995  -1.642 -26.896  1.00  0.00     0.272 C
HETATM   10  C7  UNL     1     -13.891  -3.883 -26.495  1.00  0.00     0.272 C
BRANCH   8  11
HETATM   11  C8  UNL     1     -11.947  -2.684 -26.328  1.00  0.00     0.280 C
BRANCH  11  12
HETATM   12  C9  UNL     1     -11.600  -1.239 -26.118  1.00  0.00     0.080 C
HETATM   13  N2  UNL     1     -10.624  -0.688 -26.735  1.00  0.00    -0.410 N
ATOM     14  H22 UNL     1     -10.079  -1.258 -27.382  1.00  0.00     0.155 HD
ATOM     15  H21 UNL     1     -10.387   0.294 -26.593  1.00  0.00     0.155 HD
ENDBRANCH  11  12
ENDBRANCH   8  11
ENDBRANCH   7   8
ENDBRANCH   3   7
BRANCH   3  16
HETATM   16  O2  UNL     1     -11.093  -2.312 -29.288  1.00  0.00    -0.359 OA
BRANCH  16  17
HETATM   17  C10 UNL     1     -10.076  -2.950 -29.735  1.00  0.00     0.124 C
HETATM   18  C11 UNL     1      -9.033  -2.241 -30.572  1.00  0.00     0.036 C
HETATM   19  C12 UNL     1      -8.101  -3.261 -31.200  1.00  0.00    -0.012 C
HETATM   20  C13 UNL     1      -8.843  -4.447 -31.764  1.00  0.00     0.005 C
HETATM   21  C16 UNL     1      -7.269  -3.939 -30.102  1.00  0.00     0.009 C
HETATM   22  C14 UNL     1      -9.021  -5.407 -30.627  1.00  0.00     0.005 C
HETATM   23  C15 UNL     1      -8.373  -4.776 -29.440  1.00  0.00    -0.012 C
HETATM   24  C17 UNL     1      -9.265  -3.783 -28.722  1.00  0.00     0.036 C
ENDBRANCH  16  17
ENDBRANCH   3  16
TORSDOF 8
ENDMDL