MODEL 5
REMARK VINA RESULT: -4.591564041      5.047      6.958
REMARK  7 active torsions:
REMARK  status: ('A' for Active; 'I' for Inactive)
REMARK    1  A    between atoms: C2_2  and  N1_3
REMARK       I    between atoms: N1_3  and  C3_4
REMARK    2  A    between atoms: N1_3  and  C4_9
REMARK    3  A    between atoms: C4_9  and  C5_10
REMARK    4  A    between atoms: C7_12  and  O1_13
REMARK    5  A    between atoms: C7_12  and  N4_15
REMARK    6  A    between atoms: C9_17  and  C10_18
REMARK    7  A    between atoms: C11_21  and  C12_22
ROOT
HETATM    1  C4  UNL     1     -10.322  -2.561 -28.556  1.00  0.00     0.088 C
HETATM    2  C7  UNL     1     -10.450  -1.701 -29.658  1.00  0.00     0.166 C
ENDROOT
BRANCH   2   3
HETATM    3  O1  UNL     1     -11.398  -0.745 -29.552  1.00  0.00    -0.344 OA
ATOM      4  H1  UNL     1     -11.120   0.073 -29.157  1.00  0.00     0.219 HD
ENDBRANCH   2   3
BRANCH   2   5
HETATM    5  N4  UNL     1      -9.809  -1.580 -30.898  1.00  0.00    -0.354 N
HETATM    6  C8  UNL     1     -10.392  -2.006 -32.234  1.00  0.00     0.143 C
HETATM    7  C9  UNL     1      -9.608  -0.865 -32.795  1.00  0.00     0.127 C
HETATM    8  C11 UNL     1      -8.665  -1.227 -31.676  1.00  0.00     0.102 C
BRANCH   7   9
HETATM    9  C10 UNL     1      -9.157  -0.931 -34.156  1.00  0.00     0.180 C
HETATM   10  O2  UNL     1      -9.203  -1.919 -34.934  1.00  0.00    -0.648 OA
HETATM   11  O3  UNL     1      -8.594   0.215 -34.723  1.00  0.00    -0.648 OA
ENDBRANCH   7   9
BRANCH   8  12
HETATM   12  C12 UNL     1      -7.763  -2.385 -31.923  1.00  0.00     0.022 C
HETATM   13  C13 UNL     1      -6.461  -2.266 -31.176  1.00  0.00     0.007 C
ENDBRANCH   8  12
ENDBRANCH   2   5
BRANCH   1  14
HETATM   14  N1  UNL     1     -11.385  -2.339 -27.504  1.00  0.00    -0.294 N
HETATM   15  C3  UNL     1     -11.346  -1.158 -26.745  1.00  0.00     0.193 C
HETATM   16  N2  UNL     1     -10.338  -0.974 -25.943  1.00  0.00    -0.373 N
HETATM   17  N3  UNL     1     -12.350  -0.166 -26.818  1.00  0.00    -0.063 NA
ATOM     18  H22 UNL     1      -9.613  -1.690 -25.891  1.00  0.00     0.158 HD
ATOM     19  H21 UNL     1     -10.309  -0.117 -25.392  1.00  0.00     0.158 HD
BRANCH  14  20
HETATM   20  C2  UNL     1     -12.376  -3.316 -27.317  1.00  0.00     0.090 C
HETATM   21  C1  UNL     1     -12.584  -3.873 -26.141  1.00  0.00     0.030 C
ENDBRANCH  14  20
ENDBRANCH   1  14
BRANCH   1  22
HETATM   22  C5  UNL     1      -9.541  -3.520 -28.256  1.00  0.00     0.003 C
HETATM   23  C6  UNL     1      -9.006  -4.568 -29.116  1.00  0.00     0.038 C
ENDBRANCH   1  22
TORSDOF 7
ENDMDL