MODEL 3
REMARK VINA RESULT: -6.153704293      2.147      2.639
REMARK  6 active torsions:
REMARK  status: ('A' for Active; 'I' for Inactive)
REMARK    1  A    between atoms: C3_6  and  C4_7
REMARK    2  A    between atoms: C4_7  and  C5_8
REMARK    3  A    between atoms: C5_8  and  C6_9
REMARK    4  A    between atoms: C6_9  and  C7_10
REMARK    5  A    between atoms: C7_10  and  N2_11
REMARK    6  A    between atoms: N3_14  and  C10_15
ROOT
HETATM    1  C6  UNL     1      -7.409  -4.549 -30.173  1.00  0.00     0.020 C
ENDROOT
BRANCH   1   2
HETATM    2  C5  UNL     1      -8.502  -3.587 -30.651  1.00  0.00     0.004 C
BRANCH   2   3
HETATM    3  C4  UNL     1      -7.959  -2.641 -31.693  1.00  0.00     0.027 C
BRANCH   3   4
HETATM    4  C3  UNL     1      -8.512  -1.270 -31.431  1.00  0.00     0.104 C
HETATM    5  C2  UNL     1      -9.623  -1.295 -30.399  1.00  0.00     0.149 C
HETATM    6  N1  UNL     1     -10.571  -0.359 -30.923  1.00  0.00    -0.341 N
HETATM    7  C1  UNL     1     -10.195   0.052 -32.225  1.00  0.00     0.316 C
ATOM      8  H1  UNL     1     -11.401  -0.034 -30.427  1.00  0.00     0.164 HD
HETATM    9  O1  UNL     1     -10.729   0.983 -32.883  1.00  0.00    -0.247 OA
HETATM   10  N4  UNL     1      -9.120  -0.776 -32.634  1.00  0.00    -0.337 N
ATOM     11  H4  UNL     1      -8.836  -0.980 -33.591  1.00  0.00     0.164 HD
ENDBRANCH   3   4
ENDBRANCH   2   3
ENDBRANCH   1   2
BRANCH   1  12
HETATM   12  C7  UNL     1      -6.119  -3.764 -30.192  1.00  0.00     0.127 C
BRANCH  12  13
HETATM   13  N2  UNL     1      -5.001  -4.643 -30.479  1.00  0.00    -0.333 N
HETATM   14  C8  UNL     1      -4.976  -6.005 -30.925  1.00  0.00     0.147 C
HETATM   15  C9  UNL     1      -3.672  -6.514 -30.327  1.00  0.00     0.148 C
HETATM   16  N3  UNL     1      -2.797  -5.354 -30.262  1.00  0.00    -0.328 N
HETATM   17  C14 UNL     1      -3.646  -4.234 -30.344  1.00  0.00     0.321 C
HETATM   18  O2  UNL     1      -3.231  -3.043 -30.299  1.00  0.00    -0.247 OA
BRANCH  16  19
HETATM   19  C10 UNL     1      -1.382  -5.451 -30.142  1.00  0.00     0.089 C
HETATM   20  C11 UNL     1      -0.621  -4.276 -29.642  1.00  0.00     0.025 C
HETATM   21  C12 UNL     1       0.340  -4.449 -30.823  1.00  0.00     0.004 C
HETATM   22  C13 UNL     1      -0.736  -5.224 -31.515  1.00  0.00     0.025 C
ENDBRANCH  16  19
ENDBRANCH  12  13
ENDBRANCH   1  12
TORSDOF 6
ENDMDL