MODEL 2
REMARK VINA RESULT: -6.355815272      1.267      2.175
REMARK  7 active torsions:
REMARK  status: ('A' for Active; 'I' for Inactive)
REMARK    1  A    between atoms: C2_2  and  C3_3
REMARK    2  A    between atoms: C3_3  and  C4_4
REMARK    3  A    between atoms: C4_4  and  N1_5
REMARK    4  A    between atoms: C6_9  and  N3_10
REMARK    5  A    between atoms: N3_10  and  C7_12
REMARK    6  A    between atoms: N5_20  and  C13_22
REMARK    7  A    between atoms: C13_22  and  C14_23
ROOT
HETATM    1  N1  UNL     1      -3.978  -4.292 -30.703  1.00  0.00    -0.178 N
HETATM    2  C5  UNL     1      -4.493  -3.036 -30.721  1.00  0.00     0.218 A
HETATM    3  N2  UNL     1      -5.798  -2.755 -30.639  1.00  0.00    -0.187 N
ATOM      4  H2  UNL     1      -6.128  -1.791 -30.659  1.00  0.00     0.185 HD
HETATM    5  C6  UNL     1      -6.662  -3.778 -30.529  1.00  0.00     0.693 A
HETATM    6  N4  UNL     1      -6.206  -5.029 -30.507  1.00  0.00    -0.022 N
ATOM      7  H4  UNL     1      -6.870  -5.799 -30.424  1.00  0.00     0.203 HD
HETATM    8  C12 UNL     1      -4.851  -5.307 -30.592  1.00  0.00     0.695 A
HETATM    9  N5  UNL     1      -4.549  -6.502 -30.542  1.00  0.00    -0.225 N
ATOM     10  H5  UNL     1      -5.417  -7.030 -30.462  1.00  0.00     0.177 HD
ENDROOT
BRANCH   5  11
HETATM   11  N3  UNL     1      -7.956  -3.533 -30.447  1.00  0.00    -0.221 N
ATOM     12  H3  UNL     1      -8.269  -2.562 -30.446  1.00  0.00     0.178 HD
BRANCH  11  13
HETATM   13  C7  UNL     1      -8.944  -4.573 -30.358  1.00  0.00     0.099 C
HETATM   14  C8  UNL     1     -10.274  -3.928 -30.776  1.00  0.00     0.026 C
HETATM   15  C9  UNL     1     -10.503  -2.970 -29.633  1.00  0.00     0.002 C
HETATM   16  C10 UNL     1      -9.837  -3.589 -28.424  1.00  0.00     0.002 C
HETATM   17  C11 UNL     1      -9.276  -4.926 -28.906  1.00  0.00     0.026 C
ENDBRANCH  11  13
ENDBRANCH   5  11
BRANCH   1  18
HETATM   18  C4  UNL     1      -2.569  -4.414 -30.824  1.00  0.00     0.152 C
BRANCH  18  19
HETATM   19  C3  UNL     1      -1.814  -3.354 -30.037  1.00  0.00     0.047 C
BRANCH  19  20
HETATM   20  C2  UNL     1      -0.422  -3.853 -29.860  1.00  0.00    -0.035 C
HETATM   21  C1  UNL     1       0.109  -4.675 -30.735  1.00  0.00     0.007 C
ENDBRANCH  19  20
ENDBRANCH  18  19
ENDBRANCH   1  18
BRANCH   9  22
HETATM   22  C13 UNL     1      -3.522  -7.408 -30.551  1.00  0.00     0.142 C
BRANCH  22  23
HETATM   23  C14 UNL     1      -3.546  -8.378 -31.739  1.00  0.00     0.004 A
HETATM   24  C15 UNL     1      -3.587  -9.824 -31.305  1.00  0.00     0.007 A
HETATM   25  C16 UNL     1      -2.381  -9.232 -32.026  1.00  0.00     0.007 A
ENDBRANCH  22  23
ENDBRANCH   9  22
TORSDOF 7
ENDMDL