MODEL 4
REMARK VINA RESULT: -4.773193294      2.651      6.972
REMARK  6 active torsions:
REMARK  status: ('A' for Active; 'I' for Inactive)
REMARK    1  A    between atoms: C2_2  and  C3_3
REMARK    2  A    between atoms: C3_3  and  N1_4
REMARK    3  A    between atoms: N1_4  and  C4_5
REMARK       I    between atoms: N1_4  and  C12_14
REMARK    4  A    between atoms: C4_5  and  C5_6
REMARK    5  A    between atoms: C5_6  and  N2_7
REMARK       I    between atoms: C12_14  and  N4_18
REMARK    6  A    between atoms: N4_18  and  C13_20
ROOT
HETATM    1  N1  UNL     1      -8.000  -3.289 -31.207  1.00  0.00    -0.217 N
HETATM    2  C12 UNL     1      -6.933  -3.792 -30.366  1.00  0.00     0.670 C
HETATM    3  N3  UNL     1      -7.258  -4.172 -29.196  1.00  0.00    -0.235 N
ATOM      4  H31 UNL     1      -6.507  -4.526 -28.604  1.00  0.00     0.174 HD
ATOM      5  H32 UNL     1      -8.198  -4.156 -28.800  1.00  0.00     0.174 HD
HETATM    6  N4  UNL     1      -5.633  -3.814 -30.912  1.00  0.00    -0.218 N
ATOM      7  H4  UNL     1      -5.453  -3.367 -31.810  1.00  0.00     0.178 HD
ENDROOT
BRANCH   1   8
HETATM    8  C3  UNL     1      -7.994  -1.894 -31.527  1.00  0.00     0.141 C
BRANCH   8   9
HETATM    9  C2  UNL     1      -7.597  -1.756 -33.000  1.00  0.00     0.016 C
HETATM   10  C1  UNL     1      -8.663  -0.952 -33.747  1.00  0.00     0.006 C
ENDBRANCH   8   9
ENDBRANCH   1   8
BRANCH   1  11
HETATM   11  C4  UNL     1      -9.036  -4.196 -31.703  1.00  0.00     0.169 C
BRANCH  11  12
HETATM   12  C5  UNL     1     -10.335  -3.469 -31.593  1.00  0.00     0.257 C
BRANCH  12  13
HETATM   13  N2  UNL     1     -11.105  -3.737 -30.397  1.00  0.00    -0.069 N
HETATM   14  C6  UNL     1     -12.491  -3.917 -30.870  1.00  0.00     0.272 C
HETATM   15  C7  UNL     1     -11.143  -2.690 -29.442  1.00  0.00     0.237 C
HETATM   16  C8  UNL     1     -10.432  -3.034 -28.132  1.00  0.00     0.028 C
HETATM   17  C9  UNL     1     -11.248  -4.211 -27.595  1.00  0.00     0.003 C
HETATM   18  C10 UNL     1     -10.883  -5.351 -28.495  1.00  0.00     0.028 C
HETATM   19  C11 UNL     1     -10.698  -5.025 -29.915  1.00  0.00     0.237 C
ENDBRANCH  12  13
ENDBRANCH  11  12
ENDBRANCH   1  11
BRANCH   6  20
HETATM   20  C13 UNL     1      -4.565  -4.461 -30.215  1.00  0.00     0.147 C
HETATM   21  C14 UNL     1      -4.242  -5.869 -30.592  1.00  0.00     0.195 C
HETATM   22  O1  UNL     1      -2.890  -5.573 -30.503  1.00  0.00    -0.387 OA
HETATM   23  C15 UNL     1      -3.193  -4.250 -30.801  1.00  0.00     0.195 C
ENDBRANCH   6  20
TORSDOF 6
ENDMDL