MODEL 4
REMARK VINA RESULT: -7.112601077      2.048      3.617
REMARK  5 active torsions:
REMARK  status: ('A' for Active; 'I' for Inactive)
REMARK    1  A    between atoms: C3_3  and  O1_4
REMARK    2  A    between atoms: O1_4  and  C4_5
REMARK    3  A    between atoms: C4_5  and  N1_6
REMARK    4  A    between atoms: C5_7  and  N2_8
REMARK    5  A    between atoms: C8_16  and  N4_17
ROOT
HETATM    1  C1  UNL     1      18.907  32.527  72.516  1.00  0.00     0.014 C
HETATM    2  C2  UNL     1      18.980  31.584  73.267  1.00  0.00    -0.091 C
HETATM    3  C3  UNL     1      19.080  30.455  74.198  1.00  0.00     0.262 C
ENDROOT
BRANCH   3   4
HETATM    4  O1  UNL     1      17.841  29.942  74.534  1.00  0.00    -0.359 OA
BRANCH   4   5
HETATM    5  C4  UNL     1      17.692  28.614  74.129  1.00  0.00     0.320 C
BRANCH   5   6
HETATM    6  N1  UNL     1      16.941  27.907  75.142  1.00  0.00    -0.145 N
HETATM    7  C5  UNL     1      17.602  27.333  76.149  1.00  0.00     0.684 A
HETATM    8  N3  UNL     1      16.907  26.674  77.089  1.00  0.00    -0.155 N
HETATM    9  C6  UNL     1      15.544  26.607  76.989  1.00  0.00     0.277 A
ATOM     10  H3  UNL     1      17.390  26.229  77.869  1.00  0.00     0.187 HD
HETATM   11  O2  UNL     1      14.895  25.991  77.867  1.00  0.00    -0.266 OA
HETATM   12  C7  UNL     1      14.857  27.201  75.946  1.00  0.00     0.121 A
HETATM   13  C8  UNL     1      13.479  27.153  75.816  1.00  0.00     0.119 A
HETATM   14  C10 UNL     1      15.609  27.869  75.002  1.00  0.00     0.146 A
HETATM   15  N5  UNL     1      12.918  27.785  74.731  1.00  0.00    -0.338 N
HETATM   16  C9  UNL     1      13.666  28.425  73.829  1.00  0.00     0.183 A
ATOM     17  H5  UNL     1      11.905  27.764  74.613  1.00  0.00     0.168 HD
HETATM   18  N6  UNL     1      15.002  28.473  73.955  1.00  0.00    -0.337 N
ATOM     19  H6  UNL     1      15.561  28.965  73.259  1.00  0.00     0.168 HD
BRANCH   7  20
HETATM   20  N2  UNL     1      18.862  27.396  76.244  1.00  0.00    -0.234 N
ATOM     21  H22 UNL     1      19.277  27.985  76.965  1.00  0.00     0.174 HD
ATOM     22  H21 UNL     1      19.477  26.876  75.618  1.00  0.00     0.174 HD
ENDBRANCH   7  20
BRANCH  13  23
HETATM   23  N4  UNL     1      12.746  26.567  76.632  1.00  0.00    -0.385 N
ATOM     24  H42 UNL     1      13.124  25.802  77.190  1.00  0.00     0.157 HD
ATOM     25  H41 UNL     1      11.767  26.819  76.775  1.00  0.00     0.157 HD
ENDBRANCH  13  23
ENDBRANCH   5   6
ENDBRANCH   4   5
ENDBRANCH   3   4
TORSDOF 5
ENDMDL