MODEL 2
REMARK VINA RESULT: -8.072699507      0.052      1.142
REMARK  4 active torsions:
REMARK  status: ('A' for Active; 'I' for Inactive)
REMARK    1  A    between atoms: N1_1  and  C1_4
REMARK    2  A    between atoms: C2_11  and  N5_12
REMARK    3  A    between atoms: N5_12  and  C3_14
REMARK    4  A    between atoms: C6_17  and  C7_18
ROOT
HETATM    1  C1  UNL     1       9.874  29.291  76.210  1.00  0.00     0.706 A
HETATM    2  N2  UNL     1       9.702  28.475  77.264  1.00  0.00    -0.117 N
ATOM      3  H2  UNL     1       9.046  28.725  78.005  1.00  0.00     0.207 HD
HETATM    4  N3  UNL     1      10.389  27.348  77.336  1.00  0.00    -0.214 N
ATOM      5  H3  UNL     1      10.256  26.731  78.137  1.00  0.00     0.209 HD
HETATM    6  N4  UNL     1      11.257  27.002  76.373  1.00  0.00    -0.116 N
ATOM      7  H4  UNL     1      11.772  26.125  76.458  1.00  0.00     0.207 HD
HETATM    8  C2  UNL     1      11.462  27.784  75.299  1.00  0.00     0.713 A
HETATM    9  N6  UNL     1      10.760  28.927  75.238  1.00  0.00    -0.020 N
ATOM     10  H6  UNL     1      10.892  29.544  74.437  1.00  0.00     0.203 HD
ENDROOT
BRANCH   8  11
HETATM   11  N5  UNL     1      12.288  27.429  74.407  1.00  0.00    -0.190 N
ATOM     12  H5  UNL     1      11.938  26.801  73.684  1.00  0.00     0.184 HD
BRANCH  11  13
HETATM   13  C3  UNL     1      13.634  27.810  74.312  1.00  0.00     0.049 A
HETATM   14  C4  UNL     1      14.129  28.534  73.245  1.00  0.00     0.031 A
HETATM   15  C5  UNL     1      15.461  28.902  73.166  1.00  0.00     0.020 A
HETATM   16  C6  UNL     1      16.343  28.558  74.153  1.00  0.00     0.041 A
HETATM   17  C8  UNL     1      15.879  27.838  75.225  1.00  0.00     0.020 A
HETATM   18  C9  UNL     1      14.537  27.471  75.300  1.00  0.00     0.031 A
BRANCH  16  19
HETATM   19  C7  UNL     1      17.755  28.952  74.062  1.00  0.00     0.209 C
HETATM   20  O1  UNL     1      18.643  28.224  74.574  1.00  0.00    -0.644 OA
HETATM   21  O2  UNL     1      18.089  30.130  73.410  1.00  0.00    -0.644 OA
ENDBRANCH  16  19
ENDBRANCH  11  13
ENDBRANCH   8  11
BRANCH   1  22
HETATM   22  N1  UNL     1       9.212  30.388  76.131  1.00  0.00    -0.233 N
ATOM     23  H12 UNL     1       8.694  30.752  76.931  1.00  0.00     0.174 HD
ATOM     24  H11 UNL     1       9.198  30.914  75.258  1.00  0.00     0.174 HD
ENDBRANCH   1  22
TORSDOF 4
ENDMDL