MODEL 4
REMARK VINA RESULT: -6.856461446      1.783      2.210
REMARK  3 active torsions:
REMARK  status: ('A' for Active; 'I' for Inactive)
REMARK    1  A    between atoms: C2_7  and  C3_8
REMARK       I    between atoms: C3_8  and  N3_10
REMARK    2  A    between atoms: N3_10  and  N4_12
REMARK    3  A    between atoms: C4_14  and  C5_15
ROOT
HETATM    1  C3  UNL     1      14.231  26.867  76.437  1.00  0.00     0.304 C
HETATM    2  O1  UNL     1      15.226  27.235  75.772  1.00  0.00    -0.263 OA
HETATM    3  N3  UNL     1      14.362  26.134  77.642  1.00  0.00    -0.264 N
ATOM      4  H3  UNL     1      13.520  25.856  78.146  1.00  0.00     0.190 HD
ENDROOT
BRANCH   1   5
HETATM    5  C2  UNL     1      12.907  27.230  75.909  1.00  0.00     0.192 A
HETATM    6  N2  UNL     1      11.897  27.514  76.751  1.00  0.00    -0.171 N
HETATM    7  C1  UNL     1      10.666  27.852  76.350  1.00  0.00     0.678 A
ATOM      8  H2  UNL     1      12.081  27.468  77.754  1.00  0.00     0.186 HD
HETATM    9  N1  UNL     1       9.716  28.119  77.184  1.00  0.00    -0.234 N
HETATM   10  N8  UNL     1      10.432  27.908  75.031  1.00  0.00    -0.188 N
ATOM     11  H12 UNL     1       9.893  28.076  78.187  1.00  0.00     0.174 HD
ATOM     12  H11 UNL     1       8.778  28.377  76.878  1.00  0.00     0.174 HD
HETATM   13  C8  UNL     1      11.438  27.625  74.180  1.00  0.00     0.199 A
ATOM     14  H8  UNL     1       9.509  28.162  74.678  1.00  0.00     0.185 HD
HETATM   15  N7  UNL     1      12.669  27.287  74.591  1.00  0.00    -0.333 N
ATOM     16  H7  UNL     1      13.406  27.078  73.917  1.00  0.00     0.168 HD
ENDBRANCH   1   5
BRANCH   3  17
HETATM   17  N4  UNL     1      15.593  25.784  78.153  1.00  0.00    -0.308 N
HETATM   18  C4  UNL     1      15.870  24.522  78.276  1.00  0.00     0.121 C
ATOM     19  H4  UNL     1      16.268  26.498  78.426  1.00  0.00     0.186 HD
BRANCH  18  20
HETATM   20  C5  UNL     1      17.160  24.100  78.812  1.00  0.00     0.014 A
HETATM   21  C6  UNL     1      17.946  24.750  79.737  1.00  0.00     0.121 A
HETATM   22  N5  UNL     1      19.041  24.006  79.938  1.00  0.00    -0.311 N
HETATM   23  N6  UNL     1      19.022  22.907  79.200  1.00  0.00    -0.311 N
ATOM     24  H5  UNL     1      19.795  24.254  80.578  1.00  0.00     0.186 HD
HETATM   25  C7  UNL     1      17.873  22.945  78.500  1.00  0.00     0.121 A
ATOM     26  H6  UNL     1      19.735  22.178  79.169  1.00  0.00     0.186 HD
ENDBRANCH  18  20
ENDBRANCH   3  17
TORSDOF 3
ENDMDL