MODEL 5
REMARK VINA RESULT: -6.772365136      2.992      7.011
REMARK  3 active torsions:
REMARK  status: ('A' for Active; 'I' for Inactive)
REMARK    1  A    between atoms: C5_10  and  C6_11
REMARK       I    between atoms: C6_11  and  N3_13
REMARK    2  A    between atoms: N3_13  and  N4_15
REMARK    3  A    between atoms: C7_17  and  C8_18
ROOT
HETATM    1  C6  UNL     1      14.363  27.436  76.646  1.00  0.00     0.273 C
HETATM    2  O1  UNL     1      15.476  28.031  76.679  1.00  0.00    -0.266 OA
HETATM    3  N3  UNL     1      14.196  26.215  77.371  1.00  0.00    -0.266 N
ATOM      4  H3  UNL     1      13.281  25.770  77.315  1.00  0.00     0.190 HD
ENDROOT
BRANCH   1   5
HETATM    5  C5  UNL     1      13.208  27.932  75.885  1.00  0.00     0.077 A
HETATM    6  C1  UNL     1      12.475  29.046  76.159  1.00  0.00     0.114 A
HETATM    7  N1  UNL     1      12.874  29.857  77.060  1.00  0.00    -0.385 N
HETATM    8  N2  UNL     1      11.333  29.325  75.455  1.00  0.00    -0.352 N
ATOM      9  H12 UNL     1      12.325  30.691  77.265  1.00  0.00     0.157 HD
ATOM     10  H11 UNL     1      13.725  29.649  77.584  1.00  0.00     0.157 HD
HETATM   11  C2  UNL     1      10.905  28.522  74.482  1.00  0.00     0.089 A
ATOM     12  H2  UNL     1      10.799  30.166  75.681  1.00  0.00     0.166 HD
HETATM   13  C3  UNL     1      11.626  27.368  74.161  1.00  0.00     0.018 A
HETATM   14  C4  UNL     1      12.774  27.086  74.869  1.00  0.00     0.022 A
ENDBRANCH   1   5
BRANCH   3  15
HETATM   15  N4  UNL     1      15.146  25.579  78.138  1.00  0.00    -0.305 N
HETATM   16  C7  UNL     1      15.490  24.377  77.892  1.00  0.00     0.157 C
ATOM     17  H4  UNL     1      15.581  26.077  78.915  1.00  0.00     0.186 HD
BRANCH  16  18
HETATM   18  C8  UNL     1      16.486  23.688  78.689  1.00  0.00     0.148 A
HETATM   19  N5  UNL     1      16.413  23.497  80.025  1.00  0.00    -0.269 N
HETATM   20  N6  UNL     1      17.486  22.805  80.363  1.00  0.00    -0.007 NA
ATOM     21  H5  UNL     1      15.675  23.822  80.649  1.00  0.00     0.185 HD
HETATM   22  N7  UNL     1      18.222  22.564  79.276  1.00  0.00    -0.007 NA
HETATM   23  N8  UNL     1      17.609  23.110  78.233  1.00  0.00    -0.269 N
ATOM     24  H8  UNL     1      17.932  23.093  77.266  1.00  0.00     0.185 HD
ENDBRANCH  16  18
ENDBRANCH   3  15
TORSDOF 3
ENDMDL