MODEL 2
REMARK VINA RESULT: -7.452277221      2.460      2.913
REMARK  4 active torsions:
REMARK  status: ('A' for Active; 'I' for Inactive)
REMARK    1  A    between atoms: N1_1  and  N2_4
REMARK       I    between atoms: N3_6  and  C1_8
REMARK    2  A    between atoms: N5_10  and  N6_12
REMARK    3  A    between atoms: C2_14  and  C3_15
REMARK    4  A    between atoms: C7_20  and  N8_21
ROOT
HETATM    1  N6  UNL     1      15.492  26.311  78.392  1.00  0.00    -0.309 N
ATOM      2  H6  UNL     1      16.303  26.878  78.640  1.00  0.00     0.186 HD
HETATM    3  C2  UNL     1      15.133  26.310  77.155  1.00  0.00     0.118 C
ENDROOT
BRANCH   1   4
HETATM    4  N5  UNL     1      14.878  25.614  79.408  1.00  0.00    -0.273 N
HETATM    5  C1  UNL     1      15.241  25.730  80.640  1.00  0.00     0.223 C
HETATM    6  N3  UNL     1      14.496  24.933  81.581  1.00  0.00    -0.258 N
HETATM    7  N4  UNL     1      16.292  26.570  81.079  1.00  0.00    -0.061 NA
HETATM    8  N2  UNL     1      13.684  25.505  82.351  1.00  0.00    -0.247 N
ATOM      9  H3  UNL     1      14.625  23.922  81.621  1.00  0.00     0.191 HD
ATOM     10  H2  UNL     1      13.544  26.515  82.324  1.00  0.00     0.207 HD
ATOM     11  H5  UNL     1      14.110  24.985  79.179  1.00  0.00     0.189 HD
BRANCH   8  12
HETATM   12  N1  UNL     1      12.981  24.691  83.250  1.00  0.00    -0.331 N
ATOM     13  H12 UNL     1      12.950  23.680  83.121  1.00  0.00     0.178 HD
ATOM     14  H11 UNL     1      12.510  25.159  84.025  1.00  0.00     0.178 HD
ENDBRANCH   8  12
ENDBRANCH   1   4
BRANCH   3  15
HETATM   15  C3  UNL     1      15.909  27.112  76.229  1.00  0.00    -0.017 A
HETATM   16  C4  UNL     1      15.370  27.667  75.094  1.00  0.00     0.015 A
HETATM   17  C5  UNL     1      16.159  28.418  74.257  1.00  0.00     0.030 A
HETATM   18  C6  UNL     1      17.489  28.617  74.547  1.00  0.00     0.079 A
HETATM   19  N7  UNL     1      18.272  29.393  73.666  1.00  0.00    -0.100 NA
HETATM   20  C7  UNL     1      18.050  28.070  75.677  1.00  0.00     0.127 A
HETATM   21  C8  UNL     1      17.238  27.325  76.497  1.00  0.00     0.051 A
BRANCH  20  22
HETATM   22  N8  UNL     1      19.427  28.310  75.926  1.00  0.00    -0.114 N
HETATM   23  O1  UNL     1      20.237  27.442  75.547  1.00  0.00    -0.532 OA
HETATM   24  O2  UNL     1      19.867  29.443  76.554  1.00  0.00    -0.532 OA
ENDBRANCH  20  22
ENDBRANCH   3  15
TORSDOF 4
ENDMDL