MODEL 2
REMARK VINA RESULT: -7.160245365      3.771      7.304
REMARK  5 active torsions:
REMARK  status: ('A' for Active; 'I' for Inactive)
REMARK    1  A    between atoms: N1_1  and  C1_4
REMARK    2  A    between atoms: C4_9  and  N3_10
REMARK    3  A    between atoms: N3_10  and  N4_12
REMARK       I    between atoms: N4_12  and  C5_14
REMARK    4  A    between atoms: C5_14  and  C6_16
REMARK    5  A    between atoms: C8_18  and  C9_19
ROOT
HETATM    1  N3  UNL     1      13.623  26.100  76.624  1.00  0.00    -0.282 N
ATOM      2  H3  UNL     1      13.737  25.141  76.298  1.00  0.00     0.188 HD
ENDROOT
BRANCH   1   3
HETATM    3  C4  UNL     1      12.632  26.746  76.169  1.00  0.00     0.136 A
HETATM    4  C3  UNL     1      12.588  27.084  74.834  1.00  0.00     0.068 A
HETATM    5  C2  UNL     1      11.519  27.790  74.302  1.00  0.00     0.110 A
HETATM    6  N2  UNL     1      10.486  28.162  75.107  1.00  0.00    -0.202 N
HETATM    7  C1  UNL     1      10.547  27.823  76.405  1.00  0.00     0.677 A
ATOM      8  H2  UNL     1       9.691  28.682  74.736  1.00  0.00     0.183 HD
HETATM    9  N6  UNL     1      11.587  27.134  76.933  1.00  0.00    -0.176 N
ATOM     10  H6  UNL     1      11.581  26.904  77.927  1.00  0.00     0.186 HD
BRANCH   7  11
HETATM   11  N1  UNL     1       9.582  28.168  77.173  1.00  0.00    -0.234 N
ATOM     12  H12 UNL     1       9.559  27.803  78.125  1.00  0.00     0.174 HD
ATOM     13  H11 UNL     1       8.869  28.798  76.807  1.00  0.00     0.174 HD
ENDBRANCH   7  11
ENDBRANCH   1   3
BRANCH   1  14
HETATM   14  N4  UNL     1      14.561  26.569  77.517  1.00  0.00    -0.263 N
HETATM   15  C5  UNL     1      15.841  27.055  77.161  1.00  0.00     0.288 C
HETATM   16  O1  UNL     1      16.167  27.069  75.954  1.00  0.00    -0.264 OA
ATOM     17  H4  UNL     1      14.315  26.567  78.507  1.00  0.00     0.190 HD
BRANCH  15  18
HETATM   18  C6  UNL     1      16.764  27.530  78.178  1.00  0.00     0.127 A
HETATM   19  C7  UNL     1      17.665  28.579  78.095  1.00  0.00     0.079 A
HETATM   20  C8  UNL     1      18.350  28.690  79.289  1.00  0.00     0.138 A
HETATM   21  O3  UNL     1      17.861  27.733  80.043  1.00  0.00    -0.234 OA
HETATM   22  N5  UNL     1      16.945  27.047  79.430  1.00  0.00    -0.255 N
ATOM     23  H5  UNL     1      16.436  26.260  79.832  1.00  0.00     0.195 HD
BRANCH  20  24
HETATM   24  C9  UNL     1      19.380  29.664  79.609  1.00  0.00     0.297 C
HETATM   25  O2  UNL     1      19.366  30.348  80.653  1.00  0.00    -0.299 OA
ENDBRANCH  20  24
ENDBRANCH  15  18
ENDBRANCH   1  14
TORSDOF 5
ENDMDL