MODEL 2
REMARK VINA RESULT: -7.629299970      1.336      1.421
REMARK  3 active torsions:
REMARK  status: ('A' for Active; 'I' for Inactive)
REMARK    1  A    between atoms: N3_4  and  N4_6
REMARK    2  A    between atoms: C2_8  and  C3_9
REMARK    3  A    between atoms: C8_16  and  N7_17
ROOT
HETATM    1  C3  UNL     1      14.253  27.242  75.949  1.00  0.00     0.016 A
HETATM    2  C4  UNL     1      12.969  27.187  75.346  1.00  0.00     0.043 A
HETATM    3  C5  UNL     1      12.771  27.783  74.126  1.00  0.00     0.071 A
HETATM    4  N5  UNL     1      11.450  27.694  73.560  1.00  0.00    -0.100 NA
HETATM    5  C6  UNL     1      13.788  28.437  73.466  1.00  0.00     0.072 A
HETATM    6  N6  UNL     1      13.526  29.030  72.214  1.00  0.00    -0.100 NA
HETATM    7  C7  UNL     1      15.007  28.472  74.074  1.00  0.00     0.065 A
HETATM    8  C8  UNL     1      15.273  27.876  75.334  1.00  0.00     0.116 A
ENDROOT
BRANCH   1   9
HETATM    9  C2  UNL     1      14.375  26.501  77.197  1.00  0.00     0.121 C
HETATM   10  N4  UNL     1      15.169  25.568  77.446  1.00  0.00    -0.309 N
ATOM     11  H4  UNL     1      15.777  25.335  76.661  1.00  0.00     0.186 HD
BRANCH  10  12
HETATM   12  N3  UNL     1      15.386  24.820  78.514  1.00  0.00    -0.276 N
HETATM   13  C1  UNL     1      16.151  23.882  78.772  1.00  0.00     0.215 C
HETATM   14  N1  UNL     1      17.091  23.310  77.885  1.00  0.00    -0.065 NA
HETATM   15  N2  UNL     1      16.074  23.317  80.097  1.00  0.00    -0.065 NA
ATOM     16  H3  UNL     1      14.790  25.073  79.301  1.00  0.00     0.189 HD
ENDBRANCH  10  12
ENDBRANCH   1   9
BRANCH   8  17
HETATM   17  N7  UNL     1      16.575  27.998  75.846  1.00  0.00    -0.115 N
HETATM   18  O1  UNL     1      17.459  27.181  76.008  1.00  0.00    -0.532 OA
HETATM   19  O2  UNL     1      16.875  29.299  76.339  1.00  0.00    -0.532 OA
ENDBRANCH   8  17
TORSDOF 3
ENDMDL