MODEL 3
REMARK VINA RESULT: -6.931870001      1.091      1.348
REMARK  5 active torsions:
REMARK  status: ('A' for Active; 'I' for Inactive)
REMARK    1  A    between atoms: N1_1  and  C1_4
REMARK    2  A    between atoms: N5_18  and  C7_19
REMARK    3  A    between atoms: C7_19  and  C8_20
REMARK    4  A    between atoms: C8_20  and  C9_21
REMARK    5  A    between atoms: C9_21  and  N6_22
ROOT
HETATM    1  C1  UNL     1      13.363  26.744  76.511  1.00  0.00     0.118 A
HETATM    2  N2  UNL     1      14.072  26.244  77.536  1.00  0.00    -0.338 N
ATOM      3  H2  UNL     1      13.582  25.759  78.287  1.00  0.00     0.168 HD
HETATM    4  C2  UNL     1      15.429  26.366  77.600  1.00  0.00     0.183 A
HETATM    5  N3  UNL     1      16.062  27.013  76.594  1.00  0.00    -0.336 N
ATOM      6  H3  UNL     1      17.076  27.105  76.642  1.00  0.00     0.168 HD
HETATM    7  C3  UNL     1      15.427  27.537  75.542  1.00  0.00     0.141 A
HETATM    8  C4  UNL     1      14.053  27.399  75.501  1.00  0.00     0.109 A
HETATM    9  C5  UNL     1      13.408  27.942  74.412  1.00  0.00     0.258 A
HETATM   10  O1  UNL     1      12.151  27.819  74.371  1.00  0.00    -0.281 OA
HETATM   11  C6  UNL     1      14.116  28.590  73.418  1.00  0.00     0.311 A
HETATM   12  O2  UNL     1      13.516  29.084  72.428  1.00  0.00    -0.262 OA
HETATM   13  N4  UNL     1      15.457  28.699  73.503  1.00  0.00    -0.259 N
ATOM     14  H4  UNL     1      15.981  29.178  72.770  1.00  0.00     0.190 HD
HETATM   15  N5  UNL     1      16.089  28.182  74.543  1.00  0.00    -0.273 N
ENDROOT
BRANCH  15  16
HETATM   16  C7  UNL     1      17.526  28.303  74.625  1.00  0.00     0.152 C
BRANCH  16  17
HETATM   17  C8  UNL     1      18.055  29.128  73.446  1.00  0.00     0.049 C
BRANCH  17  18
HETATM   18  C9  UNL     1      18.698  30.404  73.943  1.00  0.00     0.231 C
BRANCH  18  19
HETATM   19  N6  UNL     1      18.715  31.363  72.870  1.00  0.00    -0.079 N
ATOM     20  H63 UNL     1      19.653  31.710  72.674  1.00  0.00     0.274 HD
ATOM     21  H62 UNL     1      18.529  30.935  71.963  1.00  0.00     0.274 HD
ATOM     22  H61 UNL     1      18.059  32.112  73.090  1.00  0.00     0.274 HD
ENDBRANCH  18  19
ENDBRANCH  17  18
ENDBRANCH  16  17
ENDBRANCH  15  16
BRANCH   1  23
HETATM   23  N1  UNL     1      12.080  26.635  76.440  1.00  0.00    -0.385 N
ATOM     24  H12 UNL     1      11.489  27.351  76.862  1.00  0.00     0.157 HD
ATOM     25  H11 UNL     1      11.623  25.852  75.973  1.00  0.00     0.157 HD
ENDBRANCH   1  23
TORSDOF 5
ENDMDL