MODEL 4
REMARK VINA RESULT: -7.281837725      2.675      3.617
REMARK  4 active torsions:
REMARK  status: ('A' for Active; 'I' for Inactive)
REMARK    1  A    between atoms: N1_1  and  N2_4
REMARK       I    between atoms: N2_4  and  C1_6
REMARK    2  A    between atoms: C1_6  and  C2_8
REMARK    3  A    between atoms: C4_10  and  C5_11
REMARK    4  A    between atoms: C6_12  and  C7_13
ROOT
HETATM    1  C2  UNL     1      12.736  28.189  74.735  1.00  0.00     0.119 A
HETATM    2  C3  UNL     1      13.920  27.841  75.338  1.00  0.00     0.067 A
HETATM    3  C4  UNL     1      14.950  28.224  74.519  1.00  0.00     0.050 A
HETATM    4  N6  UNL     1      14.392  28.794  73.442  1.00  0.00    -0.300 N
ATOM      5  H6  UNL     1      14.903  29.182  72.649  1.00  0.00     0.187 HD
HETATM    6  N7  UNL     1      13.076  28.773  73.566  1.00  0.00    -0.295 N
ATOM      7  H7  UNL     1      12.416  29.144  72.882  1.00  0.00     0.187 HD
ENDROOT
BRANCH   3   8
HETATM    8  C5  UNL     1      16.403  28.056  74.754  1.00  0.00     0.035 C
HETATM    9  C6  UNL     1      16.824  27.535  75.867  1.00  0.00     0.051 C
BRANCH   9  10
HETATM   10  C7  UNL     1      18.210  27.323  76.204  1.00  0.00     0.109 A
HETATM   11  N3  UNL     1      18.573  26.526  77.259  1.00  0.00    -0.294 N
HETATM   12  C8  UNL     1      19.856  26.313  77.592  1.00  0.00     0.326 A
ATOM     13  H3  UNL     1      17.841  26.077  77.811  1.00  0.00     0.172 HD
HETATM   14  O2  UNL     1      20.196  25.586  78.556  1.00  0.00    -0.247 OA
HETATM   15  N4  UNL     1      20.799  26.912  76.852  1.00  0.00    -0.305 N
HETATM   16  C9  UNL     1      20.478  27.711  75.794  1.00  0.00     0.186 A
ATOM     17  H4  UNL     1      21.780  26.767  77.085  1.00  0.00     0.171 HD
HETATM   18  N5  UNL     1      19.172  27.910  75.480  1.00  0.00    -0.338 N
ATOM     19  H5  UNL     1      18.922  28.506  74.691  1.00  0.00     0.168 HD
ENDBRANCH   9  10
ENDBRANCH   3   8
BRANCH   1  20
HETATM   20  C1  UNL     1      11.368  27.976  75.239  1.00  0.00     0.287 C
HETATM   21  N2  UNL     1      11.037  28.261  76.589  1.00  0.00    -0.271 N
ATOM     22  H2  UNL     1      11.761  28.617  77.214  1.00  0.00     0.189 HD
HETATM   23  O1  UNL     1      10.503  27.537  74.446  1.00  0.00    -0.264 OA
BRANCH  21  24
HETATM   24  N1  UNL     1       9.747  28.065  77.083  1.00  0.00    -0.342 N
ATOM     25  H12 UNL     1       8.960  28.318  76.486  1.00  0.00     0.176 HD
ATOM     26  H11 UNL     1       9.583  27.682  78.014  1.00  0.00     0.176 HD
ENDBRANCH  21  24
ENDBRANCH   1  20
TORSDOF 4
ENDMDL