MODEL 2
REMARK VINA RESULT: -6.835483938      0.683      1.124
REMARK  4 active torsions:
REMARK  status: ('A' for Active; 'I' for Inactive)
REMARK    1  A    between atoms: N1_1  and  C1_4
REMARK    2  A    between atoms: C2_11  and  C3_12
REMARK       I    between atoms: C3_12  and  N5_14
REMARK    3  A    between atoms: N5_14  and  N6_16
REMARK    4  A    between atoms: C4_18  and  C5_19
ROOT
HETATM    1  C3  UNL     1      13.294  28.443  76.100  1.00  0.00     0.291 C
HETATM    2  O1  UNL     1      13.784  29.153  75.209  1.00  0.00    -0.264 OA
HETATM    3  N5  UNL     1      14.130  27.798  77.056  1.00  0.00    -0.265 N
ATOM      4  H5  UNL     1      13.729  27.213  77.788  1.00  0.00     0.190 HD
ENDROOT
BRANCH   1   5
HETATM    5  C2  UNL     1      11.831  28.261  76.175  1.00  0.00     0.164 A
HETATM    6  C1  UNL     1      10.846  28.596  75.294  1.00  0.00     0.149 A
HETATM    7  N2  UNL     1       9.644  28.212  75.835  1.00  0.00    -0.269 N
HETATM    8  N3  UNL     1       9.906  27.668  76.996  1.00  0.00    -0.240 N
ATOM      9  H2  UNL     1       8.722  28.327  75.412  1.00  0.00     0.190 HD
HETATM   10  N4  UNL     1      11.192  27.677  77.237  1.00  0.00    -0.278 N
ATOM     11  H3  UNL     1       9.203  27.288  77.628  1.00  0.00     0.208 HD
ATOM     12  H4  UNL     1      11.644  27.311  78.076  1.00  0.00     0.189 HD
BRANCH   6  13
HETATM   13  N1  UNL     1      10.971  29.167  74.154  1.00  0.00    -0.382 N
ATOM     14  H12 UNL     1      10.574  28.876  73.260  1.00  0.00     0.157 HD
ATOM     15  H11 UNL     1      11.506  30.022  73.998  1.00  0.00     0.157 HD
ENDBRANCH   6  13
ENDBRANCH   1   5
BRANCH   3  16
HETATM   16  N6  UNL     1      15.501  27.981  76.969  1.00  0.00    -0.308 N
HETATM   17  C4  UNL     1      16.253  27.057  76.484  1.00  0.00     0.119 C
ATOM     18  H6  UNL     1      15.917  28.854  77.293  1.00  0.00     0.186 HD
BRANCH  17  19
HETATM   19  C5  UNL     1      17.730  27.224  76.379  1.00  0.00    -0.012 A
HETATM   20  C6  UNL     1      18.581  26.629  77.228  1.00  0.00     0.020 A
HETATM   21  C7  UNL     1      19.921  26.856  77.032  1.00  0.00     0.050 A
HETATM   22  S1  UNL     1      19.947  27.887  75.678  1.00  0.00    -0.113 SA
HETATM   23  C8  UNL     1      18.273  28.006  75.393  1.00  0.00     0.062 A
ENDBRANCH  17  19
ENDBRANCH   3  16
TORSDOF 4
ENDMDL