MODEL 3
REMARK VINA RESULT: -6.245741317      1.454      4.988
REMARK  3 active torsions:
REMARK  status: ('A' for Active; 'I' for Inactive)
REMARK    1  A    between atoms: N1_1  and  C1_5
REMARK    2  A    between atoms: N4_11  and  N5_12
REMARK    3  A    between atoms: N5_12  and  C3_14
ROOT
HETATM    1  C1  UNL     1      -9.962 -29.120 -26.222  1.00  0.00     0.518 C
HETATM    2  N2  UNL     1      -9.399 -28.556 -27.432  1.00  0.00    -0.011 N
ATOM      3  H21 UNL     1      -8.419 -28.801 -27.572  1.00  0.00     0.283 HD
ATOM      4  H22 UNL     1      -9.274 -27.545 -27.384  1.00  0.00     0.283 HD
HETATM    5  C2  UNL     1     -10.244 -28.968 -28.512  1.00  0.00     0.373 C
HETATM    6  N3  UNL     1     -11.393 -29.582 -27.918  1.00  0.00    -0.091 NA
HETATM    7  N4  UNL     1     -11.355 -29.312 -26.544  1.00  0.00    -0.165 N
ENDROOT
BRANCH   7   8
HETATM    8  N5  UNL     1     -12.502 -29.268 -25.770  1.00  0.00    -0.113 N
ATOM      9  H5  UNL     1     -12.450 -29.680 -24.839  1.00  0.00     0.207 HD
BRANCH   8  10
HETATM   10  C3  UNL     1     -13.613 -28.761 -26.116  1.00  0.00     0.712 A
HETATM   11  N6  UNL     1     -14.274 -28.999 -27.246  1.00  0.00    -0.198 N
HETATM   12  C4  UNL     1     -15.435 -28.442 -27.565  1.00  0.00     0.124 A
ATOM     13  H6  UNL     1     -13.861 -29.652 -27.911  1.00  0.00     0.183 HD
HETATM   14  C5  UNL     1     -16.008 -27.559 -26.684  1.00  0.00     0.125 A
HETATM   15  N7  UNL     1     -15.338 -27.316 -25.536  1.00  0.00    -0.296 N
HETATM   16  N8  UNL     1     -14.186 -27.883 -25.246  1.00  0.00    -0.131 N
ATOM     17  H7  UNL     1     -15.743 -26.664 -24.865  1.00  0.00     0.186 HD
ATOM     18  H8  UNL     1     -13.721 -27.664 -24.365  1.00  0.00     0.205 HD
ENDBRANCH   8  10
ENDBRANCH   7   8
BRANCH   1  19
HETATM   19  N1  UNL     1      -9.313 -30.377 -25.868  1.00  0.00    -0.030 N
ATOM     20  H13 UNL     1      -9.335 -31.039 -26.643  1.00  0.00     0.279 HD
ATOM     21  H12 UNL     1      -8.302 -30.264 -25.784  1.00  0.00     0.279 HD
ATOM     22  H11 UNL     1      -9.716 -30.779 -25.021  1.00  0.00     0.279 HD
ENDBRANCH   1  19
TORSDOF 3
ENDMDL