MODEL 1
REMARK VINA RESULT: -6.700304369      0.000      0.000
REMARK  4 active torsions:
REMARK  status: ('A' for Active; 'I' for Inactive)
REMARK    1  A    between atoms: N1_1  and  N2_4
REMARK    2  A    between atoms: N2_4  and  C1_6
REMARK    3  A    between atoms: C2_9  and  S1_10
REMARK    4  A    between atoms: S1_10  and  N4_11
ROOT
HETATM    1  C1  UNL     1     -10.056 -29.112 -26.442  1.00  0.00     0.712 A
HETATM    2  N3  UNL     1     -11.357 -29.186 -26.105  1.00  0.00    -0.175 N
ATOM      3  H3  UNL     1     -11.636 -29.671 -25.252  1.00  0.00     0.185 HD
HETATM    4  C2  UNL     1     -12.287 -28.623 -26.889  1.00  0.00     0.180 A
HETATM    5  C3  UNL     1     -11.841 -27.986 -28.024  1.00  0.00     0.151 A
HETATM    6  N5  UNL     1     -10.516 -27.932 -28.333  1.00  0.00    -0.295 N
ATOM      7  H5  UNL     1     -10.217 -27.452 -29.182  1.00  0.00     0.186 HD
HETATM    8  N6  UNL     1      -9.614 -28.493 -27.547  1.00  0.00    -0.131 N
ATOM      9  H6  UNL     1      -8.619 -28.456 -27.772  1.00  0.00     0.205 HD
ENDROOT
BRANCH   4  10
HETATM   10  S1  UNL     1     -14.000 -28.652 -26.559  1.00  0.00     0.274 S
HETATM   11  O1  UNL     1     -14.443 -30.077 -26.344  1.00  0.00    -0.199 OA
HETATM   12  O2  UNL     1     -14.756 -28.079 -27.710  1.00  0.00    -0.199 OA
BRANCH  10  13
HETATM   13  N4  UNL     1     -14.383 -27.677 -25.169  1.00  0.00    -0.323 N
ATOM     14  H42 UNL     1     -14.151 -26.687 -25.091  1.00  0.00     0.169 HD
ATOM     15  H41 UNL     1     -14.864 -28.228 -24.458  1.00  0.00     0.169 HD
ENDBRANCH  10  13
ENDBRANCH   4  10
BRANCH   1  16
HETATM   16  N2  UNL     1      -9.136 -29.654 -25.691  1.00  0.00    -0.137 N
ATOM     17  H2  UNL     1      -8.327 -29.095 -25.420  1.00  0.00     0.205 HD
BRANCH  16  18
HETATM   18  N1  UNL     1      -9.226 -30.979 -25.245  1.00  0.00    -0.331 N
ATOM     19  H12 UNL     1     -10.115 -31.464 -25.362  1.00  0.00     0.177 HD
ATOM     20  H11 UNL     1      -8.436 -31.460 -24.815  1.00  0.00     0.177 HD
ENDBRANCH  16  18
ENDBRANCH   1  16
TORSDOF 4
ENDMDL