MODEL 5
REMARK VINA RESULT: -6.013887279      2.719      3.368
REMARK  2 active torsions:
REMARK  status: ('A' for Active; 'I' for Inactive)
REMARK    1  A    between atoms: N2_4  and  N3_6
REMARK    2  A    between atoms: C2_11  and  N6_12
ROOT
HETATM    1  N3  UNL     1     -11.025 -29.061 -28.592  1.00  0.00    -0.147 N
HETATM    2  N4  UNL     1     -10.561 -27.811 -28.521  1.00  0.00     0.004 NA
HETATM    3  N5  UNL     1     -11.246 -27.122 -27.604  1.00  0.00    -0.275 N
ATOM      4  H5  UNL     1     -11.088 -26.145 -27.358  1.00  0.00     0.184 HD
HETATM    5  C1  UNL     1     -12.173 -27.922 -27.059  1.00  0.00     0.137 A
HETATM    6  C2  UNL     1     -13.134 -27.737 -26.086  1.00  0.00     0.132 A
HETATM    7  N7  UNL     1     -13.902 -28.792 -25.793  1.00  0.00    -0.337 N
ATOM      8  H7  UNL     1     -14.623 -28.693 -25.078  1.00  0.00     0.168 HD
HETATM    9  C3  UNL     1     -13.756 -29.975 -26.407  1.00  0.00     0.183 A
HETATM   10  N8  UNL     1     -12.827 -30.146 -27.345  1.00  0.00    -0.334 N
ATOM     11  H8  UNL     1     -12.729 -31.053 -27.802  1.00  0.00     0.168 HD
HETATM   12  C4  UNL     1     -12.020 -29.139 -27.693  1.00  0.00     0.177 A
ENDROOT
BRANCH   1  13
HETATM   13  N2  UNL     1     -10.545 -30.057 -29.442  1.00  0.00    -0.228 N
HETATM   14  N1  UNL     1     -10.919 -30.206 -30.630  1.00  0.00    -0.329 N
ATOM     15  H12 UNL     1     -11.617 -29.551 -30.979  1.00  0.00     0.178 HD
ATOM     16  H11 UNL     1     -10.567 -30.934 -31.251  1.00  0.00     0.178 HD
ATOM     17  H2  UNL     1      -9.846 -30.703 -29.075  1.00  0.00     0.209 HD
ENDBRANCH   1  13
BRANCH   6  18
HETATM   18  N6  UNL     1     -13.302 -26.614 -25.476  1.00  0.00    -0.383 N
ATOM     19  H62 UNL     1     -13.009 -25.739 -25.910  1.00  0.00     0.157 HD
ATOM     20  H61 UNL     1     -13.725 -26.547 -24.551  1.00  0.00     0.157 HD
ENDBRANCH   6  18
TORSDOF 2
ENDMDL