MODEL 2
REMARK VINA RESULT: -6.329022819      1.922      2.639
REMARK  1 active torsions:
REMARK  status: ('A' for Active; 'I' for Inactive)
REMARK    1  A    between atoms: N1_3  and  N2_4
ROOT
HETATM    1  N2  UNL     1     -11.087 -27.687 -26.950  1.00  0.00    -0.271 N
ATOM      2  H2  UNL     1     -10.530 -26.887 -27.248  1.00  0.00     0.190 HD
HETATM    3  C3  UNL     1     -10.452 -28.722 -26.554  1.00  0.00     0.224 C
HETATM    4  N3  UNL     1      -9.027 -28.808 -26.511  1.00  0.00    -0.255 N
ATOM      5  H3  UNL     1      -8.356 -28.227 -27.014  1.00  0.00     0.187 HD
HETATM    6  N4  UNL     1      -8.742 -29.873 -25.618  1.00  0.00    -0.006 NA
HETATM    7  N5  UNL     1      -9.848 -30.685 -25.602  1.00  0.00    -0.006 NA
HETATM    8  N6  UNL     1     -10.929 -29.955 -26.091  1.00  0.00    -0.255 N
ATOM      9  H6  UNL     1     -11.901 -30.265 -26.109  1.00  0.00     0.187 HD
ENDROOT
BRANCH   1  10
HETATM   10  N1  UNL     1     -12.453 -27.553 -27.012  1.00  0.00    -0.321 N
HETATM   11  C2  UNL     1     -13.215 -28.284 -27.975  1.00  0.00     0.168 C
HETATM   12  C1  UNL     1     -14.616 -28.604 -27.503  1.00  0.00     0.189 C
HETATM   13  O1  UNL     1     -15.204 -27.599 -26.788  1.00  0.00    -0.388 OA
HETATM   14  C5  UNL     1     -14.493 -27.144 -25.710  1.00  0.00     0.189 C
HETATM   15  C4  UNL     1     -13.102 -26.649 -26.069  1.00  0.00     0.168 C
ENDBRANCH   1  10
TORSDOF 1
ENDMDL