MODEL 1
REMARK VINA RESULT: -5.781949623      0.000      0.000
REMARK  6 active torsions:
REMARK  status: ('A' for Active; 'I' for Inactive)
REMARK    1  A    between atoms: N1_1  and  O1_4
REMARK    2  A    between atoms: O1_4  and  C1_5
REMARK    3  A    between atoms: C1_5  and  N2_6
REMARK    4  A    between atoms: C1_5  and  C2_10
REMARK    5  A    between atoms: C2_10  and  O2_11
REMARK    6  A    between atoms: N3_17  and  N4_18
ROOT
HETATM    1  C2  UNL     1     -11.680 -28.411 -27.849  1.00  0.00     0.223 C
HETATM    2  C3  UNL     1     -11.456 -27.652 -26.532  1.00  0.00     0.234 C
HETATM    3  O3  UNL     1     -12.546 -26.823 -26.285  1.00  0.00    -0.384 OA
HETATM    4  C4  UNL     1     -13.690 -27.562 -26.064  1.00  0.00     0.189 C
HETATM    5  C5  UNL     1     -14.031 -28.303 -27.363  1.00  0.00     0.172 C
HETATM    6  N3  UNL     1     -12.912 -29.102 -27.717  1.00  0.00    -0.292 N
ENDROOT
BRANCH   1   7
HETATM    7  C1  UNL     1     -10.502 -29.274 -28.116  1.00  0.00     0.405 C
BRANCH   7   8
HETATM    8  O1  UNL     1     -10.147 -29.133 -29.457  1.00  0.00    -0.248 OA
BRANCH   8   9
HETATM    9  N1  UNL     1     -10.874 -29.983 -30.197  1.00  0.00    -0.309 N
ATOM     10  H12 UNL     1     -10.580 -30.926 -30.452  1.00  0.00     0.184 HD
ATOM     11  H11 UNL     1     -11.753 -29.535 -30.455  1.00  0.00     0.184 HD
ENDBRANCH   8   9
ENDBRANCH   7   8
BRANCH   7  12
HETATM   12  N2  UNL     1      -9.413 -28.764 -27.259  1.00  0.00    -0.045 N
ATOM     13  H23 UNL     1      -9.075 -29.470 -26.606  1.00  0.00     0.277 HD
ATOM     14  H22 UNL     1      -8.548 -28.621 -27.781  1.00  0.00     0.277 HD
ATOM     15  H21 UNL     1      -9.720 -27.916 -26.783  1.00  0.00     0.277 HD
ENDBRANCH   7  12
ENDBRANCH   1   7
BRANCH   1  16
HETATM   16  O2  UNL     1     -11.835 -27.424 -28.823  1.00  0.00    -0.364 OA
ATOM     17  H2  UNL     1     -10.999 -27.069 -29.104  1.00  0.00     0.213 HD
ENDBRANCH   1  16
BRANCH   6  18
HETATM   18  N4  UNL     1     -12.866 -30.364 -27.210  1.00  0.00    -0.344 N
ATOM     19  H42 UNL     1     -12.100 -30.581 -26.572  1.00  0.00     0.176 HD
ATOM     20  H41 UNL     1     -13.159 -31.124 -27.824  1.00  0.00     0.176 HD
ENDBRANCH   6  18
TORSDOF 6
ENDMDL