MODEL 2
REMARK VINA RESULT: -7.249195723      1.367      1.893
REMARK  4 active torsions:
REMARK  status: ('A' for Active; 'I' for Inactive)
REMARK    1  A    between atoms: N1_3  and  C3_5
REMARK    2  A    between atoms: C4_10  and  C5_11
REMARK       I    between atoms: C5_11  and  N4_13
REMARK    3  A    between atoms: N4_13  and  N5_14
REMARK    4  A    between atoms: N6_17  and  N7_18
ROOT
HETATM    1  C1  UNL     1     -15.794 -26.420 -25.547  1.00  0.00     0.037 C
HETATM    2  C2  UNL     1     -15.060 -27.300 -25.948  1.00  0.00     0.015 C
HETATM    3  N1  UNL     1     -14.212 -28.324 -26.445  1.00  0.00    -0.146 N
ATOM      4  H1  UNL     1     -14.612 -29.149 -26.892  1.00  0.00     0.195 HD
ENDROOT
BRANCH   3   5
HETATM    5  C3  UNL     1     -12.929 -28.205 -26.328  1.00  0.00     0.727 A
HETATM    6  N2  UNL     1     -12.265 -27.076 -26.008  1.00  0.00    -0.128 N
HETATM    7  N3  UNL     1     -10.975 -27.392 -25.989  1.00  0.00    -0.264 N
ATOM      8  H2  UNL     1     -12.672 -26.161 -25.817  1.00  0.00     0.205 HD
HETATM    9  C4  UNL     1     -10.825 -28.678 -26.288  1.00  0.00     0.244 A
ATOM     10  H3  UNL     1     -10.214 -26.745 -25.778  1.00  0.00     0.189 HD
HETATM   11  N6  UNL     1     -12.040 -29.189 -26.499  1.00  0.00    -0.066 N
BRANCH   9  12
HETATM   12  C5  UNL     1      -9.503 -29.365 -26.347  1.00  0.00     0.382 C
HETATM   13  O1  UNL     1      -8.721 -28.882 -27.187  1.00  0.00    -0.246 OA
HETATM   14  N4  UNL     1      -9.283 -30.408 -25.521  1.00  0.00    -0.285 NA
BRANCH  14  15
HETATM   15  N5  UNL     1      -9.070 -31.428 -24.712  1.00  0.00    -0.276 N
ATOM     16  H52 UNL     1      -9.264 -30.621 -25.303  1.00  0.00     0.191 HD
ATOM     17  H51 UNL     1      -8.904 -32.217 -24.088  1.00  0.00     0.191 HD
ENDBRANCH  14  15
ENDBRANCH   9  12
BRANCH  11  18
HETATM   18  N7  UNL     1     -12.251 -30.540 -26.829  1.00  0.00    -0.322 N
ATOM     19  H72 UNL     1     -13.142 -31.013 -26.679  1.00  0.00     0.178 HD
ATOM     20  H71 UNL     1     -11.609 -31.216 -27.244  1.00  0.00     0.178 HD
ENDBRANCH  11  18
ENDBRANCH   3   5
TORSDOF 4
ENDMDL