MODEL 2
REMARK VINA RESULT: -6.724031154      0.110      1.033
REMARK  2 active torsions:
REMARK  status: ('A' for Active; 'I' for Inactive)
REMARK       I    between atoms: C2_5  and  N3_6
REMARK       I    between atoms: C2_5  and  N8_15
REMARK    1  A    between atoms: N3_6  and  C3_8
REMARK    2  A    between atoms: N8_15  and  N9_17
ROOT
HETATM    1  N1  UNL     1     -16.985 -27.837 -26.850  1.00  0.00    -0.171 NA
HETATM    2  C1  UNL     1     -15.931 -28.314 -26.898  1.00  0.00     0.196 C
HETATM    3  N2  UNL     1     -14.649 -28.870 -26.948  1.00  0.00    -0.124 N
ATOM      4  H2  UNL     1     -14.471 -29.707 -27.503  1.00  0.00     0.197 HD
HETATM    5  C2  UNL     1     -13.690 -28.308 -26.283  1.00  0.00     0.720 C
HETATM    6  N3  UNL     1     -12.372 -28.798 -26.276  1.00  0.00    -0.018 N
ATOM      7  H3  UNL     1     -12.026 -29.193 -25.402  1.00  0.00     0.203 HD
HETATM    8  N8  UNL     1     -13.944 -27.132 -25.504  1.00  0.00    -0.137 N
ATOM      9  H8  UNL     1     -13.625 -26.231 -25.862  1.00  0.00     0.205 HD
ENDROOT
BRANCH   6  10
HETATM   10  C3  UNL     1     -11.573 -28.789 -27.269  1.00  0.00     0.722 A
HETATM   11  N4  UNL     1     -11.079 -27.689 -27.858  1.00  0.00    -0.116 N
HETATM   12  N5  UNL     1     -10.277 -28.032 -28.864  1.00  0.00     0.006 NA
ATOM     13  H4  UNL     1     -11.287 -26.732 -27.576  1.00  0.00     0.202 HD
HETATM   14  N6  UNL     1     -10.267 -29.357 -28.909  1.00  0.00     0.006 NA
HETATM   15  N7  UNL     1     -11.054 -29.829 -27.942  1.00  0.00    -0.116 N
ATOM     16  H7  UNL     1     -11.231 -30.814 -27.747  1.00  0.00     0.202 HD
ENDBRANCH   6  10
BRANCH   8  17
HETATM   17  N9  UNL     1     -14.604 -27.163 -24.284  1.00  0.00    -0.331 N
ATOM     18  H92 UNL     1     -14.494 -27.999 -23.710  1.00  0.00     0.177 HD
ATOM     19  H91 UNL     1     -15.184 -26.395 -23.947  1.00  0.00     0.177 HD
ENDBRANCH   8  17
TORSDOF 2
ENDMDL