MODEL 3
REMARK VINA RESULT: -6.297135301      1.218      1.306
REMARK  4 active torsions:
REMARK  status: ('A' for Active; 'I' for Inactive)
REMARK    1  A    between atoms: C3_6  and  C4_7
REMARK    2  A    between atoms: N4_9  and  O1_11
REMARK    3  A    between atoms: N5_13  and  N6_14
REMARK    4  A    between atoms: C5_17  and  N7_18
ROOT
HETATM    1  C1  UNL     1     -14.506 -28.320 -27.879  1.00  0.00     0.176 C
HETATM    2  N1  UNL     1     -13.246 -28.793 -27.324  1.00  0.00    -0.182 N
HETATM    3  C2  UNL     1     -13.249 -29.632 -26.260  1.00  0.00     0.202 A
HETATM    4  N2  UNL     1     -12.057 -30.028 -25.799  1.00  0.00    -0.333 N
ATOM      5  H2  UNL     1     -12.038 -30.659 -24.998  1.00  0.00     0.168 HD
HETATM    6  C3  UNL     1     -10.885 -29.644 -26.328  1.00  0.00     0.189 A
HETATM    7  N5  UNL     1     -10.935 -28.812 -27.382  1.00  0.00    -0.073 N
HETATM    8  C5  UNL     1     -12.106 -28.370 -27.902  1.00  0.00     0.701 A
ENDROOT
BRANCH   6   9
HETATM    9  C4  UNL     1      -9.601 -30.099 -25.796  1.00  0.00     0.182 C
HETATM   10  N3  UNL     1      -8.418 -29.348 -25.869  1.00  0.00    -0.077 NA
HETATM   11  N4  UNL     1      -9.579 -31.259 -25.234  1.00  0.00    -0.252 N
ATOM     12  H4  UNL     1     -10.438 -31.808 -25.181  1.00  0.00     0.195 HD
BRANCH  11  13
HETATM   13  O1  UNL     1      -8.418 -31.768 -24.705  1.00  0.00    -0.288 OA
ATOM     14  H1  UNL     1      -8.433 -32.326 -23.938  1.00  0.00     0.244 HD
ENDBRANCH  11  13
ENDBRANCH   6   9
BRANCH   7  15
HETATM   15  N6  UNL     1      -9.757 -28.393 -27.957  1.00  0.00    -0.322 N
ATOM     16  H62 UNL     1      -9.090 -29.096 -28.275  1.00  0.00     0.178 HD
ATOM     17  H61 UNL     1      -9.581 -27.392 -28.051  1.00  0.00     0.178 HD
ENDBRANCH   7  15
BRANCH   8  18
HETATM   18  N7  UNL     1     -12.099 -27.564 -28.926  1.00  0.00    -0.233 N
ATOM     19  H72 UNL     1     -12.972 -27.147 -29.250  1.00  0.00     0.174 HD
ATOM     20  H71 UNL     1     -11.244 -27.325 -29.428  1.00  0.00     0.174 HD
ENDBRANCH   8  18
TORSDOF 4
ENDMDL