MODEL 3
REMARK VINA RESULT: -5.338738142      2.789      4.338
REMARK  3 active torsions:
REMARK  status: ('A' for Active; 'I' for Inactive)
REMARK    1  A    between atoms: N5_10  and  C4_11
REMARK    2  A    between atoms: N6_12  and  N7_13
REMARK    3  A    between atoms: N6_12  and  O1_16
ROOT
HETATM    1  C1  UNL     1     -12.895 -26.595 -25.894  1.00  0.00     0.181 C
HETATM    2  N1  UNL     1     -14.168 -27.168 -26.343  1.00  0.00    -0.263 N
HETATM    3  C2  UNL     1     -15.338 -26.633 -25.721  1.00  0.00     0.223 C
HETATM    4  N2  UNL     1     -15.254 -25.617 -24.738  1.00  0.00    -0.060 NA
HETATM    5  N3  UNL     1     -16.490 -27.116 -26.093  1.00  0.00    -0.275 N
ATOM      6  H3  UNL     1     -17.351 -26.763 -25.675  1.00  0.00     0.189 HD
HETATM    7  N4  UNL     1     -16.542 -28.099 -27.049  1.00  0.00    -0.314 N
ATOM      8  H4  UNL     1     -17.450 -28.292 -27.472  1.00  0.00     0.182 HD
HETATM    9  C3  UNL     1     -15.419 -28.887 -27.506  1.00  0.00     0.289 C
HETATM   10  N5  UNL     1     -14.177 -28.166 -27.315  1.00  0.00    -0.261 N
ENDROOT
BRANCH  10  11
HETATM   11  C4  UNL     1     -13.001 -28.417 -28.050  1.00  0.00     0.254 C
HETATM   12  N6  UNL     1     -12.246 -29.439 -27.875  1.00  0.00    -0.164 N
BRANCH  12  13
HETATM   13  N7  UNL     1     -12.528 -30.432 -26.907  1.00  0.00    -0.318 N
ATOM     14  H72 UNL     1     -11.715 -30.936 -26.555  1.00  0.00     0.179 HD
ATOM     15  H71 UNL     1     -13.477 -30.626 -26.585  1.00  0.00     0.179 HD
ENDBRANCH  12  13
BRANCH  12  16
HETATM   16  O1  UNL     1     -11.105 -29.651 -28.610  1.00  0.00    -0.267 OA
ATOM     17  H1  UNL     1     -10.521 -30.384 -28.451  1.00  0.00     0.247 HD
ENDBRANCH  12  16
ENDBRANCH  10  11
TORSDOF 3
ENDMDL