MODEL 3
REMARK VINA RESULT: -5.576840565      3.098      4.544
REMARK  6 active torsions:
REMARK  status: ('A' for Active; 'I' for Inactive)
REMARK    1  A    between atoms: N1_1  and  C1_4
REMARK    2  A    between atoms: C3_9  and  N4_10
REMARK    3  A    between atoms: C6_15  and  N5_16
REMARK    4  A    between atoms: C6_15  and  C7_20
REMARK    5  A    between atoms: C7_20  and  O3_21
REMARK    6  A    between atoms: C7_20  and  O4_23
ROOT
HETATM    1  C1  UNL     1      16.578  11.803  30.116  1.00  0.00     0.150 A
HETATM    2  N2  UNL     1      16.777  12.851  29.300  1.00  0.00    -0.267 N
ATOM      3  H2  UNL     1      16.218  13.705  29.285  1.00  0.00     0.190 HD
HETATM    4  N3  UNL     1      17.824  12.597  28.512  1.00  0.00    -0.179 N
HETATM    5  C2  UNL     1      18.334  11.401  28.783  1.00  0.00     0.083 A
HETATM    6  C3  UNL     1      17.563  10.880  29.792  1.00  0.00     0.172 A
HETATM    7  C4  UNL     1      19.501  10.802  28.100  1.00  0.00     0.066 C
HETATM    8  C5  UNL     1      20.422  11.815  27.474  1.00  0.00     0.069 C
HETATM    9  C6  UNL     1      19.684  12.575  26.396  1.00  0.00     0.293 C
HETATM   10  S1  UNL     1      18.500  13.602  27.279  1.00  0.00     0.290 S
HETATM   11  O5  UNL     1      19.191  14.742  27.941  1.00  0.00    -0.201 OA
HETATM   12  O6  UNL     1      17.445  14.116  26.342  1.00  0.00    -0.201 OA
ENDROOT
BRANCH   9  13
HETATM   13  N5  UNL     1      18.932  11.716  25.504  1.00  0.00    -0.050 N
ATOM     14  H53 UNL     1      19.471  10.885  25.261  1.00  0.00     0.276 HD
ATOM     15  H52 UNL     1      18.155  11.274  25.996  1.00  0.00     0.276 HD
ATOM     16  H51 UNL     1      18.605  12.195  24.665  1.00  0.00     0.276 HD
ENDBRANCH   9  13
BRANCH   9  17
HETATM   17  C7  UNL     1      20.573  13.438  25.543  1.00  0.00     0.307 C
BRANCH  17  18
HETATM   18  O3  UNL     1      21.260  14.294  26.440  1.00  0.00    -0.368 OA
ATOM     19  H3  UNL     1      21.724  14.920  25.898  1.00  0.00     0.212 HD
ENDBRANCH  17  18
BRANCH  17  20
HETATM   20  O4  UNL     1      19.808  14.327  24.762  1.00  0.00    -0.368 OA
ATOM     21  H4  UNL     1      19.559  13.925  23.939  1.00  0.00     0.212 HD
ENDBRANCH  17  20
ENDBRANCH   9  17
BRANCH   6  22
HETATM   22  N4  UNL     1      17.660   9.631  30.462  1.00  0.00    -0.110 N
HETATM   23  O1  UNL     1      17.846   9.624  31.680  1.00  0.00    -0.532 OA
HETATM   24  O2  UNL     1      17.552   8.407  29.820  1.00  0.00    -0.532 OA
ENDBRANCH   6  22
BRANCH   1  25
HETATM   25  N1  UNL     1      15.651  11.686  31.022  1.00  0.00    -0.382 N
ATOM     26  H12 UNL     1      14.932  12.367  31.264  1.00  0.00     0.157 HD
ATOM     27  H11 UNL     1      15.497  10.887  31.637  1.00  0.00     0.157 HD
ENDBRANCH   1  25
TORSDOF 6
ENDMDL