MODEL 4
REMARK VINA RESULT: -5.054060693      2.571      4.415
REMARK  6 active torsions:
REMARK  status: ('A' for Active; 'I' for Inactive)
REMARK       I    between atoms: C2_2  and  N1_4
REMARK    1  A    between atoms: N1_4  and  C3_6
REMARK    2  A    between atoms: C4_9  and  N3_10
REMARK    3  A    between atoms: N5_20  and  O2_21
REMARK    4  A    between atoms: O2_21  and  S1_22
REMARK    5  A    between atoms: S1_22  and  N6_23
REMARK    6  A    between atoms: S1_22  and  N7_26
ROOT
HETATM    1  C3  UNL     1      17.722  11.271  27.518  1.00  0.00     0.709 C
HETATM    2  N2  UNL     1      17.975  12.244  26.614  1.00  0.00    -0.171 N
ATOM      3  H2  UNL     1      17.260  12.524  25.943  1.00  0.00     0.181 HD
HETATM    4  C4  UNL     1      19.257  12.872  26.610  1.00  0.00     0.499 C
HETATM    5  N4  UNL     1      20.241  11.816  26.902  1.00  0.00     0.000 N
ATOM      6  H41 UNL     1      21.200  12.057  26.653  1.00  0.00     0.284 HD
ATOM      7  H42 UNL     1      20.171  10.999  26.295  1.00  0.00     0.284 HD
HETATM    8  C5  UNL     1      20.040  11.522  28.342  1.00  0.00     0.239 C
HETATM    9  C6  UNL     1      20.278  12.800  29.116  1.00  0.00     0.073 C
HETATM   10  C7  UNL     1      21.116  10.537  28.748  1.00  0.00     0.073 C
HETATM   11  N5  UNL     1      18.712  10.965  28.479  1.00  0.00    -0.034 N
ENDROOT
BRANCH  11  12
HETATM   12  O2  UNL     1      18.465  10.167  29.511  1.00  0.00    -0.132 OA
BRANCH  12  13
HETATM   13  S1  UNL     1      17.572  10.669  30.778  1.00  0.00     0.248 S
HETATM   14  O3  UNL     1      16.287  11.337  30.468  1.00  0.00    -0.197 OA
BRANCH  13  15
HETATM   15  N6  UNL     1      17.136   9.427  31.699  1.00  0.00    -0.322 N
ATOM     16  H62 UNL     1      16.231   8.960  31.631  1.00  0.00     0.169 HD
ATOM     17  H61 UNL     1      17.881   9.177  32.349  1.00  0.00     0.169 HD
ENDBRANCH  13  15
BRANCH  13  18
HETATM   18  N7  UNL     1      18.544  11.614  31.893  1.00  0.00    -0.322 N
ATOM     19  H72 UNL     1      18.511  12.632  31.949  1.00  0.00     0.169 HD
ATOM     20  H71 UNL     1      19.133  11.010  32.464  1.00  0.00     0.169 HD
ENDBRANCH  13  18
ENDBRANCH  12  13
ENDBRANCH  11  12
BRANCH   1  21
HETATM   21  N1  UNL     1      16.441  10.725  27.417  1.00  0.00    -0.158 N
HETATM   22  C2  UNL     1      15.185  11.190  27.052  1.00  0.00     0.232 C
HETATM   23  C1  UNL     1      14.001  10.223  27.053  1.00  0.00     0.118 C
HETATM   24  O1  UNL     1      14.929  12.350  26.716  1.00  0.00    -0.273 OA
ATOM     25  H1  UNL     1      16.424   9.739  27.676  1.00  0.00     0.187 HD
ENDBRANCH   1  21
BRANCH   4  26
HETATM   26  N3  UNL     1      19.583  13.339  25.266  1.00  0.00    -0.032 N
ATOM     27  H33 UNL     1      19.146  12.764  24.546  1.00  0.00     0.279 HD
ATOM     28  H32 UNL     1      19.127  14.225  25.048  1.00  0.00     0.279 HD
ATOM     29  H31 UNL     1      20.596  13.392  25.149  1.00  0.00     0.279 HD
ENDBRANCH   4  26
TORSDOF 6
ENDMDL