MODEL 2
REMARK VINA RESULT: -7.130751735      0.915      2.078
REMARK  5 active torsions:
REMARK  status: ('A' for Active; 'I' for Inactive)
REMARK    1  A    between atoms: C2_2  and  O1_3
REMARK    2  A    between atoms: C2_2  and  N1_5
REMARK    3  A    between atoms: N1_5  and  C3_7
REMARK    4  A    between atoms: C4_16  and  N6_17
REMARK    5  A    between atoms: N6_17  and  C5_19
ROOT
HETATM    1  N6  UNL     1      16.953  11.610  27.852  1.00  0.00    -0.321 N
ATOM      2  H6  UNL     1      16.596  12.333  28.477  1.00  0.00     0.169 HD
ENDROOT
BRANCH   1   3
HETATM    3  C4  UNL     1      16.431  10.413  27.853  1.00  0.00     0.169 A
HETATM    4  C3  UNL     1      15.247  10.198  27.196  1.00  0.00     0.165 A
HETATM    5  N2  UNL     1      14.712   8.985  27.194  1.00  0.00    -0.267 N
HETATM    6  N3  UNL     1      15.343   7.995  27.837  1.00  0.00    -0.227 N
ATOM      7  H2  UNL     1      13.833   8.809  26.709  1.00  0.00     0.190 HD
HETATM    8  N4  UNL     1      16.483   8.186  28.473  1.00  0.00    -0.227 N
ATOM      9  H3  UNL     1      14.930   7.063  27.834  1.00  0.00     0.210 HD
HETATM   10  N5  UNL     1      17.021   9.388  28.480  1.00  0.00    -0.267 N
ATOM     11  H4  UNL     1      16.941   7.412  28.954  1.00  0.00     0.210 HD
ATOM     12  H5  UNL     1      17.902   9.540  28.972  1.00  0.00     0.190 HD
BRANCH   4  13
HETATM   13  N1  UNL     1      14.678  11.157  26.600  1.00  0.00    -0.346 N
ATOM     14  H1  UNL     1      15.305  11.893  26.274  1.00  0.00     0.163 HD
BRANCH  13  15
HETATM   15  C2  UNL     1      13.304  11.371  26.313  1.00  0.00     0.215 C
HETATM   16  C1  UNL     1      12.913  10.546  25.114  1.00  0.00     0.063 C
BRANCH  15  17
HETATM   17  O1  UNL     1      12.983  12.707  26.065  1.00  0.00    -0.377 OA
ATOM     18  H1  UNL     1      13.677  13.258  26.408  1.00  0.00     0.212 HD
ENDBRANCH  15  17
ENDBRANCH  13  15
ENDBRANCH   4  13
ENDBRANCH   1   3
BRANCH   1  19
HETATM   19  C5  UNL     1      18.024  11.886  26.969  1.00  0.00     0.156 A
HETATM   20  N7  UNL     1      18.326  11.199  25.837  1.00  0.00    -0.268 N
HETATM   21  N8  UNL     1      19.375  11.789  25.340  1.00  0.00    -0.234 N
ATOM     22  H7  UNL     1      17.834  10.391  25.456  1.00  0.00     0.190 HD
HETATM   23  N9  UNL     1      19.776  12.810  26.071  1.00  0.00    -0.244 N
ATOM     24  H8  UNL     1      19.837  11.493  24.480  1.00  0.00     0.209 HD
HETATM   25  C6  UNL     1      20.777  13.694  25.969  1.00  0.00     0.135 A
HETATM   26  C9  UNL     1      18.933  12.909  27.132  1.00  0.00     0.146 A
HETATM   27  C7  UNL     1      20.940  14.673  26.918  1.00  0.00     0.109 A
HETATM   28  N10 UNL     1      20.120  14.788  27.970  1.00  0.00    -0.349 N
HETATM   29  C8  UNL     1      19.097  13.899  28.091  1.00  0.00     0.132 A
ATOM     30  H10 UNL     1      20.259  15.523  28.664  1.00  0.00     0.167 HD
HETATM   31  N11 UNL     1      18.327  14.014  29.089  1.00  0.00    -0.383 N
ATOM     32 2H11 UNL     1      18.448  14.742  29.794  1.00  0.00     0.157 HD
ATOM     33 1H11 UNL     1      17.560  13.348  29.180  1.00  0.00     0.157 HD
ENDBRANCH   1  19
TORSDOF 5
ENDMDL