MODEL 1
REMARK VINA RESULT: -5.512725041      0.000      0.000
REMARK  8 active torsions:
REMARK  status: ('A' for Active; 'I' for Inactive)
REMARK    1  A    between atoms: C2_4  and  N3_5
REMARK    2  A    between atoms: N3_5  and  N4_6
REMARK    3  A    between atoms: N3_5  and  O1_9
REMARK    4  A    between atoms: C5_13  and  N5_14
REMARK    5  A    between atoms: C6_19  and  C7_20
REMARK    6  A    between atoms: C7_20  and  O3_22
REMARK    7  A    between atoms: O3_22  and  N7_23
REMARK    8  A    between atoms: N8_26  and  O4_27
ROOT
HETATM    1  N1  UNL     1      16.836  14.453  26.760  1.00  0.00    -0.171 NA
HETATM    2  C1  UNL     1      16.836  13.366  27.175  1.00  0.00     0.192 C
HETATM    3  N2  UNL     1      16.856  12.073  27.683  1.00  0.00    -0.211 N
HETATM    4  C2  UNL     1      17.871  11.548  28.398  1.00  0.00     0.169 A
HETATM    5  C3  UNL     1      17.539  10.242  28.734  1.00  0.00     0.073 A
HETATM    6  C4  UNL     1      16.295  10.014  28.194  1.00  0.00     0.059 A
HETATM    7  C5  UNL     1      15.445   8.926  28.184  1.00  0.00     0.115 A
HETATM    8  N6  UNL     1      14.272   8.987  27.569  1.00  0.00    -0.321 N
ATOM      9  H6  UNL     1      13.668   8.165  27.581  1.00  0.00     0.169 HD
HETATM   10  C6  UNL     1      13.848  10.095  26.927  1.00  0.00     0.214 A
HETATM   11  N8  UNL     1      14.667  11.159  26.931  1.00  0.00    -0.183 N
HETATM   12  C8  UNL     1      15.869  11.151  27.541  1.00  0.00     0.167 A
ENDROOT
BRANCH   4  13
HETATM   13  N3  UNL     1      19.068  12.202  28.751  1.00  0.00    -0.152 N
BRANCH  13  14
HETATM   14  N4  UNL     1      19.131  13.026  29.877  1.00  0.00    -0.317 N
ATOM     15  H42 UNL     1      19.838  12.824  30.583  1.00  0.00     0.179 HD
ATOM     16  H41 UNL     1      18.486  13.809  29.990  1.00  0.00     0.179 HD
ENDBRANCH  13  14
BRANCH  13  17
HETATM   17  O1  UNL     1      20.098  12.062  28.070  1.00  0.00    -0.267 OA
ATOM     18  H1  UNL     1      20.099  12.255  27.140  1.00  0.00     0.247 HD
ENDBRANCH  13  17
ENDBRANCH   4  13
BRANCH  11  19
HETATM   19  O4  UNL     1      14.289  12.304  26.299  1.00  0.00    -0.279 OA
ATOM     20  H4  UNL     1      14.541  13.146  26.659  1.00  0.00     0.245 HD
ENDBRANCH  11  19
BRANCH   7  21
HETATM   21  N5  UNL     1      15.786   7.838  28.775  1.00  0.00    -0.385 N
ATOM     22  H52 UNL     1      15.592   6.944  28.324  1.00  0.00     0.157 HD
ATOM     23  H51 UNL     1      16.246   7.875  29.684  1.00  0.00     0.157 HD
ENDBRANCH   7  21
BRANCH  10  24
HETATM   24  C7  UNL     1      12.545  10.110  26.264  1.00  0.00     0.351 C
HETATM   25  O2  UNL     1      12.435   9.440  25.206  1.00  0.00    -0.254 OA
BRANCH  24  26
HETATM   26  O3  UNL     1      11.465  10.804  26.732  1.00  0.00    -0.200 OA
BRANCH  26  27
HETATM   27  N7  UNL     1      11.435  12.171  26.922  1.00  0.00    -0.302 N
ATOM     28  H72 UNL     1      12.270  12.594  27.327  1.00  0.00     0.184 HD
ATOM     29  H71 UNL     1      10.645  12.770  26.686  1.00  0.00     0.184 HD
ENDBRANCH  26  27
ENDBRANCH  24  26
ENDBRANCH  10  24
TORSDOF 8
ENDMDL