MODEL 3
REMARK VINA RESULT: -6.165942469      3.154      8.013
REMARK  6 active torsions:
REMARK  status: ('A' for Active; 'I' for Inactive)
REMARK    1  A    between atoms: C6_11  and  C7_12
REMARK    2  A    between atoms: C7_12  and  O1_13
REMARK    3  A    between atoms: C7_12  and  O2_15
REMARK    4  A    between atoms: C8_17  and  N4_18
REMARK    5  A    between atoms: N4_18  and  N5_20
REMARK    6  A    between atoms: N5_20  and  C9_22
ROOT
HETATM    1  C1  UNL     1      16.808   9.788  30.016  1.00  0.00     0.074 C
HETATM    2  C2  UNL     1      16.959  10.493  28.724  1.00  0.00     0.086 A
HETATM    3  C3  UNL     1      16.036  10.422  27.701  1.00  0.00     0.154 A
HETATM    4  C4  UNL     1      14.792   9.690  27.663  1.00  0.00     0.120 C
HETATM    5  N1  UNL     1      13.783   9.118  27.636  1.00  0.00    -0.190 NA
HETATM    6  N2  UNL     1      16.511  11.185  26.697  1.00  0.00    -0.178 N
ATOM      7  H2  UNL     1      16.046  11.328  25.801  1.00  0.00     0.185 HD
HETATM    8  C5  UNL     1      17.700  11.734  27.052  1.00  0.00     0.705 A
HETATM    9  N3  UNL     1      18.573  12.545  26.453  1.00  0.00    -0.185 N
ATOM     10  H3  UNL     1      18.371  12.870  25.508  1.00  0.00     0.184 HD
HETATM   11  C6  UNL     1      19.710  12.949  27.045  1.00  0.00     0.127 A
HETATM   12  C8  UNL     1      19.976  12.504  28.319  1.00  0.00     0.164 A
HETATM   13  N8  UNL     1      19.087  11.686  28.914  1.00  0.00    -0.261 N
ATOM     14  H8  UNL     1      19.280  11.355  29.859  1.00  0.00     0.190 HD
HETATM   15  N9  UNL     1      17.966  11.294  28.315  1.00  0.00    -0.086 N
ENDROOT
BRANCH  12  16
HETATM   16  N4  UNL     1      21.074  12.889  28.905  1.00  0.00    -0.281 N
ATOM     17  H4  UNL     1      21.949  12.449  28.621  1.00  0.00     0.188 HD
BRANCH  16  18
HETATM   18  N5  UNL     1      21.122  13.853  29.884  1.00  0.00    -0.275 N
ATOM     19  H5  UNL     1      20.289  13.986  30.458  1.00  0.00     0.189 HD
BRANCH  18  20
HETATM   20  C9  UNL     1      22.249  14.681  30.157  1.00  0.00     0.196 C
HETATM   21  N6  UNL     1      23.095  15.026  29.257  1.00  0.00    -0.376 N
ATOM     22  H62 UNL     1      22.942  14.685  28.308  1.00  0.00     0.158 HD
ATOM     23  H61 UNL     1      23.902  15.619  29.452  1.00  0.00     0.158 HD
HETATM   24  C10 UNL     1      22.465  15.162  31.497  1.00  0.00     0.137 C
HETATM   25  N7  UNL     1      22.655  15.542  32.572  1.00  0.00    -0.188 NA
ENDBRANCH  18  20
ENDBRANCH  16  18
ENDBRANCH  12  16
BRANCH  11  26
HETATM   26  C7  UNL     1      20.607  13.842  26.304  1.00  0.00     0.309 C
BRANCH  26  27
HETATM   27  O1  UNL     1      20.079  14.196  25.054  1.00  0.00    -0.366 OA
ATOM     28  H1  UNL     1      19.309  14.746  25.137  1.00  0.00     0.213 HD
ENDBRANCH  26  27
BRANCH  26  29
HETATM   29  O2  UNL     1      20.790  15.036  26.999  1.00  0.00    -0.366 OA
ATOM     30  H2  UNL     1      20.031  15.226  27.537  1.00  0.00     0.213 HD
ENDBRANCH  26  29
ENDBRANCH  11  26
TORSDOF 6
ENDMDL