MODEL 3
REMARK VINA RESULT: -6.181485863      2.502      3.938
REMARK  4 active torsions:
REMARK  status: ('A' for Active; 'I' for Inactive)
REMARK    1  A    between atoms: C2_7  and  C3_8
REMARK    2  A    between atoms: C5_12  and  N5_13
REMARK    3  A    between atoms: N5_13  and  C6_15
REMARK    4  A    between atoms: C7_19  and  N7_20
ROOT
HETATM    1  C3  UNL     1      18.166  12.734  28.264  1.00  0.00     0.155 A
HETATM    2  N4  UNL     1      19.292  12.153  28.703  1.00  0.00    -0.334 N
ATOM      3  H4  UNL     1      19.379  11.136  28.691  1.00  0.00     0.168 HD
HETATM    4  C4  UNL     1      20.324  12.918  29.166  1.00  0.00     0.110 A
HETATM    5  C5  UNL     1      21.489  12.363  29.621  1.00  0.00     0.152 A
HETATM    6  N6  UNL     1      22.501  13.132  30.076  1.00  0.00    -0.174 N
ATOM      7  H6  UNL     1      23.365  12.708  30.413  1.00  0.00     0.186 HD
HETATM    8  C7  UNL     1      22.347  14.468  30.077  1.00  0.00     0.678 A
HETATM    9  N8  UNL     1      21.224  15.080  29.641  1.00  0.00    -0.186 N
ATOM     10  H8  UNL     1      21.137  16.096  29.653  1.00  0.00     0.184 HD
HETATM   11  C8  UNL     1      20.220  14.295  29.189  1.00  0.00     0.123 A
HETATM   12  C9  UNL     1      19.054  14.860  28.734  1.00  0.00     0.130 A
HETATM   13  N9  UNL     1      18.869  16.134  28.718  1.00  0.00    -0.384 N
ATOM     14  H91 UNL     1      18.003  16.554  28.380  1.00  0.00     0.157 HD
ATOM     15  H92 UNL     1      19.626  16.727  29.059  1.00  0.00     0.157 HD
HETATM   16  N10 UNL     1      18.046  14.071  28.280  1.00  0.00    -0.324 N
ATOM     17  H10 UNL     1      17.184  14.501  27.945  1.00  0.00     0.169 HD
ENDROOT
BRANCH   1  18
HETATM   18  C2  UNL     1      17.032  11.944  27.758  1.00  0.00     0.182 A
HETATM   19  N3  UNL     1      16.957  10.608  27.638  1.00  0.00    -0.265 N
HETATM   20  N2  UNL     1      15.781  10.264  27.146  1.00  0.00    -0.225 N
ATOM     21  H3  UNL     1      17.700   9.955  27.889  1.00  0.00     0.190 HD
HETATM   22  N1  UNL     1      15.110  11.384  26.956  1.00  0.00    -0.223 N
ATOM     23  H2  UNL     1      15.454   9.317  26.951  1.00  0.00     0.210 HD
HETATM   24  C1  UNL     1      13.765  11.506  26.429  1.00  0.00     0.202 C
HETATM   25  N11 UNL     1      15.848  12.417  27.320  1.00  0.00    -0.264 N
ATOM     26  H11 UNL     1      15.573  13.398  27.278  1.00  0.00     0.190 HD
ENDBRANCH   1  18
BRANCH   5  27
HETATM   27  N5  UNL     1      21.625  11.090  29.616  1.00  0.00    -0.318 N
ATOM     28  H5  UNL     1      20.967  10.556  29.049  1.00  0.00     0.169 HD
BRANCH  27  29
HETATM   29  C6  UNL     1      22.597  10.364  30.320  1.00  0.00     0.354 C
HETATM   30  O1  UNL     1      23.798  10.460  29.923  1.00  0.00    -0.283 OA
ENDBRANCH  27  29
ENDBRANCH   5  27
BRANCH   8  31
HETATM   31  N7  UNL     1      23.292  15.249  30.505  1.00  0.00    -0.234 N
ATOM     32  H72 UNL     1      23.554  15.140  31.485  1.00  0.00     0.174 HD
ATOM     33  H71 UNL     1      23.734  15.927  29.884  1.00  0.00     0.174 HD
ENDBRANCH   8  31
TORSDOF 4
ENDMDL