MODEL 2
REMARK VINA RESULT: -5.789526466      2.037      2.463
REMARK  6 active torsions:
REMARK  status: ('A' for Active; 'I' for Inactive)
REMARK    1  A    between atoms: C1_2  and  O2_7
REMARK    2  A    between atoms: N2_3  and  O1_5
REMARK    3  A    between atoms: O2_7  and  C2_8
REMARK    4  A    between atoms: C2_8  and  C3_9
REMARK    5  A    between atoms: C3_9  and  N3_10
REMARK    6  A    between atoms: C3_9  and  C4_14
ROOT
HETATM    1  C2  UNL     1      18.284  11.849  28.062  1.00  0.00     0.248 A
HETATM    2  S1  UNL     1      19.791  11.892  28.927  1.00  0.00    -0.046 SA
HETATM    3  C5  UNL     1      19.023  10.392  29.429  1.00  0.00     0.098 A
HETATM    4  C6  UNL     1      19.107   9.223  30.227  1.00  0.00     0.125 A
HETATM    5  N4  UNL     1      18.127   8.311  30.210  1.00  0.00    -0.368 N
ATOM      6  H4  UNL     1      18.207   7.478  30.792  1.00  0.00     0.164 HD
HETATM    7  C7  UNL     1      17.043   8.478  29.440  1.00  0.00     0.162 A
HETATM    8  C8  UNL     1      16.983   9.612  28.680  1.00  0.00     0.267 A
HETATM    9  O5  UNL     1      15.948   9.749  27.959  1.00  0.00    -0.266 OA
HETATM   10  N5  UNL     1      17.979  10.577  28.673  1.00  0.00    -0.260 N
ENDROOT
BRANCH   1  11
HETATM   11  O2  UNL     1      18.378  11.771  26.631  1.00  0.00    -0.277 OA
BRANCH  11  12
HETATM   12  C1  UNL     1      19.452  12.303  25.982  1.00  0.00     0.254 C
HETATM   13  N1  UNL     1      20.641  11.527  25.710  1.00  0.00    -0.054 NA
HETATM   14  N2  UNL     1      19.391  13.535  25.603  1.00  0.00    -0.235 N
ATOM     15  H2  UNL     1      18.540  14.059  25.808  1.00  0.00     0.197 HD
BRANCH  14  16
HETATM   16  O1  UNL     1      20.391  14.175  24.949  1.00  0.00    -0.287 OA
ATOM     17  H1  UNL     1      20.317  15.056  24.602  1.00  0.00     0.244 HD
ENDBRANCH  14  16
ENDBRANCH  11  12
ENDBRANCH   1  11
BRANCH   1  18
HETATM   18  C3  UNL     1      17.243  12.913  28.405  1.00  0.00     0.351 C
BRANCH  18  19
HETATM   19  N3  UNL     1      17.873  14.080  28.962  1.00  0.00    -0.059 N
ATOM     20  H33 UNL     1      18.768  13.855  29.399  1.00  0.00     0.275 HD
ATOM     21  H32 UNL     1      18.213  14.710  28.235  1.00  0.00     0.275 HD
ATOM     22  H31 UNL     1      17.245  14.555  29.609  1.00  0.00     0.275 HD
ENDBRANCH  18  19
BRANCH  18  23
HETATM   23  C4  UNL     1      16.430  13.293  27.255  1.00  0.00     0.210 C
HETATM   24  O3  UNL     1      15.440  12.643  26.827  1.00  0.00    -0.646 OA
HETATM   25  O4  UNL     1      16.748  14.449  26.562  1.00  0.00    -0.646 OA
ENDBRANCH  18  23
ENDBRANCH   1  18
TORSDOF 6
ENDMDL