MODEL 4
REMARK VINA RESULT: -6.475305736      2.686      3.918
REMARK  2 active torsions:
REMARK  status: ('A' for Active; 'I' for Inactive)
REMARK    1  A    between atoms: O1_2  and  N1_3
REMARK       I    between atoms: N1_3  and  C2_5
REMARK    2  A    between atoms: C2_5  and  C3_7
ROOT
HETATM    1  C3  UNL     1      17.911  11.709  27.535  1.00  0.00     0.147 A
HETATM    2  N2  UNL     1      18.723  10.877  28.163  1.00  0.00    -0.292 N
ATOM      3  H2  UNL     1      19.713  11.118  28.203  1.00  0.00     0.187 HD
HETATM    4  N3  UNL     1      18.337   9.752  28.745  1.00  0.00    -0.283 N
ATOM      5  H3  UNL     1      19.025   9.159  29.212  1.00  0.00     0.188 HD
HETATM    6  C4  UNL     1      17.037   9.385  28.724  1.00  0.00     0.145 A
HETATM    7  N4  UNL     1      16.592   8.314  29.277  1.00  0.00    -0.382 N
ATOM      8  H41 UNL     1      15.610   8.036  29.261  1.00  0.00     0.157 HD
ATOM      9  H42 UNL     1      17.256   7.704  29.752  1.00  0.00     0.157 HD
HETATM   10  C5  UNL     1      16.139  10.209  28.082  1.00  0.00     0.132 A
HETATM   11  C6  UNL     1      16.558  11.379  27.479  1.00  0.00     0.101 A
HETATM   12  N5  UNL     1      15.485  11.973  26.941  1.00  0.00    -0.334 N
ATOM     13  H5  UNL     1      15.470  12.854  26.429  1.00  0.00     0.168 HD
HETATM   14  C7  UNL     1      14.414  11.167  27.213  1.00  0.00     0.172 A
HETATM   15  C8  UNL     1      13.079  11.303  26.906  1.00  0.00     0.148 A
HETATM   16  N6  UNL     1      12.647  12.306  26.230  1.00  0.00    -0.382 N
ATOM     17  H61 UNL     1      11.658  12.406  26.003  1.00  0.00     0.157 HD
ATOM     18  H62 UNL     1      13.285  13.035  25.913  1.00  0.00     0.157 HD
HETATM   19  N7  UNL     1      12.232  10.336  27.328  1.00  0.00    -0.330 N
HETATM   20  C9  UNL     1      10.805  10.478  27.000  1.00  0.00     0.158 C
HETATM   21  C10 UNL     1      12.635   9.263  28.025  1.00  0.00     0.201 A
HETATM   22  N8  UNL     1      13.946   9.159  28.309  1.00  0.00    -0.287 N
ATOM     23  H8  UNL     1      14.281   8.353  28.837  1.00  0.00     0.188 HD
HETATM   24  N9  UNL     1      14.815  10.090  27.912  1.00  0.00    -0.229 N
ENDROOT
BRANCH   1  25
HETATM   25  C2  UNL     1      18.331  12.978  26.919  1.00  0.00     0.295 C
HETATM   26  N1  UNL     1      19.650  13.105  26.449  1.00  0.00    -0.230 N
ATOM     27  H1  UNL     1      20.248  12.286  26.558  1.00  0.00     0.197 HD
HETATM   28  O2  UNL     1      17.523  13.938  26.819  1.00  0.00    -0.264 OA
BRANCH  26  29
HETATM   29  O1  UNL     1      20.209  14.174  25.875  1.00  0.00    -0.282 OA
HETATM   30  C1  UNL     1      21.239  14.682  26.613  1.00  0.00     0.237 C
ENDBRANCH  26  29
ENDBRANCH   1  25
TORSDOF 2
ENDMDL