MODEL 2
REMARK VINA RESULT: -6.351279200      3.470      6.326
REMARK  2 active torsions:
REMARK  status: ('A' for Active; 'I' for Inactive)
REMARK    1  A    between atoms: N3_13  and  O4_15
REMARK    2  A    between atoms: O4_15  and  C4_16
ROOT
HETATM    1  N1  UNL     1      19.027  10.895  24.792  1.00  0.00    -0.387 N
ATOM      2  H11 UNL     1      18.205  10.438  24.397  1.00  0.00     0.157 HD
ATOM      3  H12 UNL     1      19.943  11.024  24.363  1.00  0.00     0.157 HD
HETATM    4  C1  UNL     1      18.906  11.379  25.994  1.00  0.00     0.116 C
HETATM    5  C2  UNL     1      20.112  12.050  26.572  1.00  0.00     0.268 C
HETATM    6  O1  UNL     1      19.917  13.403  26.745  1.00  0.00    -0.252 OA
HETATM    7  S1  UNL     1      19.195  13.784  28.198  1.00  0.00     0.376 S
HETATM    8  O2  UNL     1      18.918  15.272  28.186  1.00  0.00    -0.175 OA
HETATM    9  O3  UNL     1      20.086  13.518  29.368  1.00  0.00    -0.175 OA
HETATM   10  N2  UNL     1      17.687  12.979  28.407  1.00  0.00    -0.092 N
ATOM     11  H2  UNL     1      17.127  13.339  29.180  1.00  0.00     0.199 HD
HETATM   12  C3  UNL     1      17.077  11.901  27.696  1.00  0.00     0.714 C
HETATM   13  N3  UNL     1      15.890  11.529  28.110  1.00  0.00    -0.093 N
ATOM     14  H3  UNL     1      15.437  11.992  28.898  1.00  0.00     0.213 HD
HETATM   15  N6  UNL     1      17.628  11.200  26.592  1.00  0.00    -0.176 N
ATOM     16  H6  UNL     1      17.036  10.480  26.177  1.00  0.00     0.185 HD
ENDROOT
BRANCH  13  17
HETATM   17  O4  UNL     1      15.281  10.500  27.451  1.00  0.00    -0.232 OA
BRANCH  17  18
HETATM   18  C4  UNL     1      14.170  10.755  26.620  1.00  0.00     0.315 C
HETATM   19  C5  UNL     1      12.993  10.012  27.206  1.00  0.00     0.082 C
HETATM   20  C6  UNL     1      11.674  10.611  26.771  1.00  0.00     0.137 C
HETATM   21  N4  UNL     1      11.797  12.062  26.968  1.00  0.00    -0.120 NA
HETATM   22  N5  UNL     1      12.790  12.480  26.067  1.00  0.00     0.014 NA
HETATM   23  O5  UNL     1      13.975  12.130  26.605  1.00  0.00    -0.235 OA
ENDBRANCH  17  18
ENDBRANCH  13  17
TORSDOF 2
ENDMDL