MODEL 3
REMARK VINA RESULT: -6.788817934      1.555      1.707
REMARK  5 active torsions:
REMARK  status: ('A' for Active; 'I' for Inactive)
REMARK    1  A    between atoms: C2_2  and  O3_27
REMARK    2  A    between atoms: N1_3  and  N2_5
REMARK    3  A    between atoms: N2_5  and  C3_7
REMARK    4  A    between atoms: C6_14  and  N5_15
REMARK    5  A    between atoms: O3_27  and  N8_28
ROOT
HETATM    1  C3  UNL     1      16.578  12.133  28.076  1.00  0.00     0.138 C
HETATM    2  C4  UNL     1      17.139  11.937  29.319  1.00  0.00     0.139 C
HETATM    3  N3  UNL     1      18.245  12.509  29.878  1.00  0.00    -0.347 N
ATOM      4  H3  UNL     1      18.358  12.414  30.887  1.00  0.00     0.167 HD
HETATM    5  C5  UNL     1      19.206  13.191  29.209  1.00  0.00     0.142 A
HETATM    6  N4  UNL     1      20.237  13.527  30.004  1.00  0.00    -0.176 N
ATOM      7  H4  UNL     1      20.197  13.250  30.985  1.00  0.00     0.186 HD
HETATM    8  C6  UNL     1      21.319  14.208  29.583  1.00  0.00     0.680 A
HETATM    9  N6  UNL     1      21.388  14.581  28.299  1.00  0.00    -0.155 N
ATOM     10  H6  UNL     1      22.198  15.098  27.957  1.00  0.00     0.187 HD
HETATM   11  C7  UNL     1      20.367  14.265  27.452  1.00  0.00     0.279 A
HETATM   12  O1  UNL     1      20.406  14.603  26.243  1.00  0.00    -0.266 OA
HETATM   13  C8  UNL     1      19.264  13.569  27.885  1.00  0.00     0.145 A
HETATM   14  C9  UNL     1      18.335  13.335  26.908  1.00  0.00     0.266 C
HETATM   15  O2  UNL     1      18.633  13.782  25.761  1.00  0.00    -0.267 OA
HETATM   16  N7  UNL     1      17.133  12.691  26.990  1.00  0.00    -0.306 N
ATOM     17  H7  UNL     1      16.596  12.626  26.126  1.00  0.00     0.170 HD
ENDROOT
BRANCH   1  18
HETATM   18  N2  UNL     1      15.362  11.741  27.889  1.00  0.00    -0.282 N
ATOM     19  H2  UNL     1      14.693  11.827  28.655  1.00  0.00     0.188 HD
BRANCH  18  20
HETATM   20  N1  UNL     1      14.935  11.208  26.678  1.00  0.00    -0.280 N
HETATM   21  C2  UNL     1      13.683  11.127  26.414  1.00  0.00     0.159 C
HETATM   22  C1  UNL     1      13.254  10.551  25.106  1.00  0.00     0.101 C
ATOM     23  H1  UNL     1      15.620  10.880  25.998  1.00  0.00     0.189 HD
BRANCH  21  24
HETATM   24  O3  UNL     1      12.781  11.581  27.360  1.00  0.00    -0.208 OA
BRANCH  24  25
HETATM   25  N8  UNL     1      11.708  12.375  27.002  1.00  0.00    -0.207 N
HETATM   26  N9  UNL     1      10.519  11.992  27.016  1.00  0.00    -0.325 N
ATOM     27  H92 UNL     1      10.347  11.031  27.312  1.00  0.00     0.178 HD
ATOM     28  H91 UNL     1       9.726  12.578  26.752  1.00  0.00     0.178 HD
ATOM     29  H8  UNL     1      11.899  13.333  26.709  1.00  0.00     0.216 HD
ENDBRANCH  24  25
ENDBRANCH  21  24
ENDBRANCH  18  20
ENDBRANCH   1  18
BRANCH   8  30
HETATM   30  N5  UNL     1      22.281  14.508  30.373  1.00  0.00    -0.234 N
ATOM     31  H52 UNL     1      22.068  14.871  31.302  1.00  0.00     0.174 HD
ATOM     32  H51 UNL     1      23.258  14.395  30.102  1.00  0.00     0.174 HD
ENDBRANCH   8  30
TORSDOF 5
ENDMDL