MODEL 3
REMARK VINA RESULT: -9.395012664      1.105      2.748
REMARK  14 active torsions:
REMARK  status: ('A' for Active; 'I' for Inactive)
REMARK    1  A    between atoms: C2_2  and  O1_3
REMARK    2  A    between atoms: O1_3  and  C3_4
REMARK    3  A    between atoms: C5_6  and  O2_7
REMARK    4  A    between atoms: O2_7  and  C6_8
REMARK    5  A    between atoms: C6_8  and  C7_10
REMARK    6  A    between atoms: C9_12  and  O4_13
REMARK    7  A    between atoms: C11_16  and  C12_17
REMARK    8  A    between atoms: C12_17  and  C13_18
REMARK    9  A    between atoms: C13_18  and  C14_19
REMARK   10  A    between atoms: C14_19  and  C15_20
REMARK   11  A    between atoms: C15_20  and  N1_21
REMARK       I    between atoms: N1_21  and  C16_23
REMARK   12  A    between atoms: C16_23  and  C17_25
REMARK   13  A    between atoms: C26_36  and  O8_37
REMARK   14  A    between atoms: O8_37  and  C27_38
ROOT
HETATM    1  C6  UNL     1      21.059  31.474  13.347  1.00  0.00     0.288 C
HETATM    2  O3  UNL     1      21.463  32.648  13.457  1.00  0.00    -0.262 OA
ENDROOT
BRANCH   1   3
HETATM    3  O2  UNL     1      21.735  30.603  12.542  1.00  0.00    -0.314 OA
BRANCH   3   4
HETATM    4  C5  UNL     1      21.506  29.179  12.527  1.00  0.00     0.139 C
HETATM    5  C4  UNL     1      20.479  28.848  11.526  1.00  0.00     0.053 C
HETATM    6  C3  UNL     1      19.216  28.178  12.100  1.00  0.00     0.141 C
HETATM    7  C28 UNL     1      20.666  27.646  10.676  1.00  0.00     0.040 C
HETATM    8  C29 UNL     1      19.222  27.331  10.879  1.00  0.00     0.016 C
HETATM    9  C30 UNL     1      18.374  27.990   9.765  1.00  0.00     0.021 C
HETATM   10  C33 UNL     1      18.736  25.984  10.913  1.00  0.00    -0.076 C
HETATM   11  C31 UNL     1      18.477  26.826   8.752  1.00  0.00     0.028 C
HETATM   12  C32 UNL     1      18.295  25.659   9.680  1.00  0.00    -0.023 C
HETATM   13  C34 UNL     1      18.626  24.971  12.012  1.00  0.00     0.044 C
HETATM   14  C26 UNL     1      21.705  26.716  11.171  1.00  0.00     0.142 C
HETATM   15  C24 UNL     1      22.990  27.578  11.305  1.00  0.00     0.014 C
HETATM   16  C23 UNL     1      22.821  28.517  12.442  1.00  0.00     0.039 C
HETATM   17  C25 UNL     1      23.141  28.322  10.003  1.00  0.00     0.012 C
BRANCH   6  18
HETATM   18  O1  UNL     1      19.526  27.616  13.298  1.00  0.00    -0.385 OA
BRANCH  18  19
HETATM   19  C2  UNL     1      18.572  27.859  14.301  1.00  0.00     0.163 C
HETATM   20  C1  UNL     1      17.182  27.933  13.707  1.00  0.00     0.033 C
ENDBRANCH  18  19
ENDBRANCH   6  18
BRANCH  14  21
HETATM   21  O8  UNL     1      22.019  25.674  10.260  1.00  0.00    -0.300 OA
BRANCH  21  22
HETATM   22  C27 UNL     1      23.162  24.911  10.333  1.00  0.00     0.373 C
HETATM   23  N2  UNL     1      23.651  24.136   9.228  1.00  0.00    -0.032 NA
HETATM   24  O9  UNL     1      23.834  24.869  11.410  1.00  0.00    -0.242 OA
ENDBRANCH  21  22
ENDBRANCH  14  21
ENDBRANCH   3   4
ENDBRANCH   1   3
BRANCH   1  25
HETATM   25  C7  UNL     1      19.833  31.107  14.125  1.00  0.00     0.223 C
HETATM   26  C8  UNL     1      20.111  31.398  15.546  1.00  0.00     0.074 C
HETATM   27  C9  UNL     1      18.924  31.258  16.474  1.00  0.00     0.123 C
HETATM   28  C10 UNL     1      17.670  31.060  15.652  1.00  0.00     0.063 C
HETATM   29  C11 UNL     1      17.686  31.958  14.428  1.00  0.00     0.125 C
HETATM   30  O7  UNL     1      18.704  31.586  13.556  1.00  0.00    -0.370 OA
BRANCH  27  31
HETATM   31  O4  UNL     1      19.069  30.264  17.417  1.00  0.00    -0.395 OA
ATOM     32  H4  UNL     1      18.418  29.575  17.351  1.00  0.00     0.210 HD
ENDBRANCH  27  31
BRANCH  29  33
HETATM   33  C12 UNL     1      17.787  33.416  14.814  1.00  0.00     0.032 C
BRANCH  33  34
HETATM   34  C13 UNL     1      16.451  33.955  15.292  1.00  0.00     0.004 C
BRANCH  34  35
HETATM   35  C14 UNL     1      16.421  35.451  15.295  1.00  0.00     0.020 C
BRANCH  35  36
HETATM   36  C15 UNL     1      16.352  36.062  16.674  1.00  0.00     0.122 C
BRANCH  36  37
HETATM   37  N1  UNL     1      17.692  36.380  17.102  1.00  0.00    -0.359 N
HETATM   38  C16 UNL     1      18.364  35.553  18.004  1.00  0.00     0.247 C
HETATM   39  O5  UNL     1      17.814  34.529  18.454  1.00  0.00    -0.271 OA
ATOM     40  H1  UNL     1      18.153  37.216  16.743  1.00  0.00     0.162 HD
BRANCH  38  41
HETATM   41  C17 UNL     1      19.750  35.886  18.438  1.00  0.00     0.221 C
HETATM   42  O6  UNL     1      20.188  36.991  17.687  1.00  0.00    -0.367 OA
HETATM   43  C18 UNL     1      21.234  36.575  16.907  1.00  0.00     0.146 C
HETATM   44  C19 UNL     1      22.372  36.281  17.842  1.00  0.00     0.001 C
HETATM   45  C22 UNL     1      20.842  35.117  16.599  1.00  0.00     0.047 C
HETATM   46  C20 UNL     1      22.050  35.189  18.561  1.00  0.00    -0.020 C
HETATM   47  C21 UNL     1      20.720  34.779  18.099  1.00  0.00     0.049 C
ENDBRANCH  38  41
ENDBRANCH  36  37
ENDBRANCH  35  36
ENDBRANCH  34  35
ENDBRANCH  33  34
ENDBRANCH  29  33
ENDBRANCH   1  25
TORSDOF 14
ENDMDL