MODEL 2
REMARK VINA RESULT: -8.730054893      1.878      2.277
REMARK  17 active torsions:
REMARK  status: ('A' for Active; 'I' for Inactive)
REMARK    1  A    between atoms: C2_2  and  C3_3
REMARK    2  A    between atoms: C3_3  and  C4_4
REMARK    3  A    between atoms: C4_4  and  C5_5
REMARK    4  A    between atoms: C6_8  and  S1_9
REMARK    5  A    between atoms: S1_9  and  C7_10
REMARK    6  A    between atoms: C7_10  and  C8_11
REMARK    7  A    between atoms: C10_13  and  C11_14
REMARK    8  A    between atoms: C11_14  and  O1_15
REMARK    9  A    between atoms: C11_14  and  N2_17
REMARK   10  A    between atoms: N3_20  and  C14_21
REMARK   11  A    between atoms: C14_21  and  C15_22
REMARK   12  A    between atoms: C15_22  and  N4_23
REMARK   13  A    between atoms: C23_34  and  C24_35
REMARK   14  A    between atoms: C25_38  and  N7_39
REMARK   15  A    between atoms: N7_39  and  C26_40
REMARK   16  A    between atoms: C26_40  and  O4_41
REMARK   17  A    between atoms: C26_40  and  N8_43
ROOT
HETATM    1  C5  UNL     1      19.317  34.973  17.735  1.00  0.00     0.052 A
HETATM    2  N1  UNL     1      19.990  33.843  17.348  1.00  0.00    -0.351 N
ATOM      3  H1  UNL     1      19.500  32.949  17.310  1.00  0.00     0.166 HD
HETATM    4  C6  UNL     1      21.296  33.904  17.016  1.00  0.00     0.071 A
HETATM    5  C22 UNL     1      21.934  35.095  17.059  1.00  0.00     0.057 A
HETATM    6  C23 UNL     1      21.280  36.275  17.448  1.00  0.00     0.074 A
HETATM    7  C25 UNL     1      19.947  36.230  17.802  1.00  0.00     0.149 A
ENDROOT
BRANCH   4   8
HETATM    8  S1  UNL     1      22.134  32.348  16.716  1.00  0.00    -0.106 SA
BRANCH   8   9
HETATM    9  C7  UNL     1      22.246  32.056  14.907  1.00  0.00     0.140 C
BRANCH   9  10
HETATM   10  C8  UNL     1      21.565  30.771  14.584  1.00  0.00     0.045 A
HETATM   11  C9  UNL     1      20.285  30.510  14.136  1.00  0.00     0.071 A
HETATM   12  C10 UNL     1      20.101  29.162  14.015  1.00  0.00     0.151 A
HETATM   13  O2  UNL     1      21.283  28.636  14.395  1.00  0.00    -0.233 OA
HETATM   14  N5  UNL     1      22.114  29.549  14.717  1.00  0.00    -0.264 N
ATOM     15  H5  UNL     1      23.068  29.376  15.033  1.00  0.00     0.194 HD
BRANCH  12  16
HETATM   16  C11 UNL     1      18.995  28.326  13.598  1.00  0.00     0.175 C
BRANCH  16  17
HETATM   17  O1  UNL     1      18.061  28.095  14.505  1.00  0.00    -0.344 OA
ATOM     18  H1  UNL     1      17.162  28.223  14.226  1.00  0.00     0.219 HD
ENDBRANCH  16  17
BRANCH  16  19
HETATM   19  N2  UNL     1      18.821  27.751  12.347  1.00  0.00    -0.353 N
HETATM   20  C12 UNL     1      19.212  28.329  11.111  1.00  0.00     0.145 C
HETATM   21  C13 UNL     1      19.155  27.280   9.969  1.00  0.00     0.147 C
HETATM   22  N3  UNL     1      19.694  26.099  10.528  1.00  0.00    -0.369 N
HETATM   23  C20 UNL     1      19.039  25.479  11.603  1.00  0.00     0.083 C
HETATM   24  C21 UNL     1      18.134  26.429  12.315  1.00  0.00     0.169 C
BRANCH  22  25
HETATM   25  C14 UNL     1      20.997  25.688  10.186  1.00  0.00     0.093 C
BRANCH  25  26
HETATM   26  C15 UNL     1      22.034  26.005  11.162  1.00  0.00     0.317 C
BRANCH  26  27
HETATM   27  N4  UNL     1      22.780  27.201  10.943  1.00  0.00     0.093 N
HETATM   28  C16 UNL     1      23.744  27.164   9.881  1.00  0.00     0.273 C
HETATM   29  C17 UNL     1      24.718  26.132  10.315  1.00  0.00     0.032 C
HETATM   30  C18 UNL     1      24.834  26.470  11.810  1.00  0.00     0.032 C
HETATM   31  C19 UNL     1      23.686  27.447  12.085  1.00  0.00     0.273 C
ENDBRANCH  26  27
ENDBRANCH  25  26
ENDBRANCH  22  25
ENDBRANCH  16  19
ENDBRANCH  12  16
ENDBRANCH   9  10
ENDBRANCH   8   9
ENDBRANCH   4   8
BRANCH   1  32
HETATM   32  C4  UNL     1      17.904  34.885  18.100  1.00  0.00     0.061 C
BRANCH  32  33
HETATM   33  C3  UNL     1      17.107  33.944  17.296  1.00  0.00     0.006 C
BRANCH  33  34
HETATM   34  C2  UNL     1      15.687  34.139  16.989  1.00  0.00    -0.004 C
HETATM   35  C1  UNL     1      14.973  35.274  17.655  1.00  0.00     0.005 C
ENDBRANCH  33  34
ENDBRANCH  32  33
ENDBRANCH   1  32
BRANCH   6  36
HETATM   36  C24 UNL     1      22.035  37.492  17.500  1.00  0.00     0.268 C
HETATM   37  N6  UNL     1      22.932  37.737  18.562  1.00  0.00    -0.057 NA
HETATM   38  O3  UNL     1      21.936  38.369  16.629  1.00  0.00    -0.271 OA
ENDBRANCH   6  36
BRANCH   7  39
HETATM   39  N7  UNL     1      19.288  37.322  18.293  1.00  0.00    -0.362 NA
BRANCH  39  40
HETATM   40  C26 UNL     1      18.641  38.382  18.781  1.00  0.00     0.296 C
BRANCH  40  41
HETATM   41  O4  UNL     1      19.150  39.057  19.802  1.00  0.00    -0.321 OA
ATOM     42  H4  UNL     1      18.596  39.303  20.534  1.00  0.00     0.222 HD
ENDBRANCH  40  41
BRANCH  40  43
HETATM   43  N8  UNL     1      17.390  38.980  18.368  1.00  0.00    -0.333 N
HETATM   44  C27 UNL     1      16.452  39.362  19.402  1.00  0.00     0.146 C
HETATM   45  C28 UNL     1      15.248  40.042  18.833  1.00  0.00     0.133 C
HETATM   46  N9  UNL     1      15.524  40.973  17.786  1.00  0.00    -0.418 N
HETATM   47  C29 UNL     1      16.629  40.703  16.940  1.00  0.00     0.133 C
ATOM     48  H9  UNL     1      14.947  41.804  17.651  1.00  0.00     0.153 HD
HETATM   49  C30 UNL     1      17.073  39.233  17.026  1.00  0.00     0.146 C
ENDBRANCH  40  43
ENDBRANCH  39  40
ENDBRANCH   7  39
TORSDOF 17
ENDMDL