MODEL 2
REMARK VINA RESULT: -8.645999296      1.234      2.493
REMARK  13 active torsions:
REMARK  status: ('A' for Active; 'I' for Inactive)
REMARK    1  A    between atoms: O1_2  and  C2_3
REMARK    2  A    between atoms: C4_5  and  O2_6
REMARK    3  A    between atoms: C6_9  and  O3_10
REMARK    4  A    between atoms: O3_10  and  S1_11
REMARK    5  A    between atoms: S1_11  and  C7_14
REMARK    6  A    between atoms: C7_14  and  C8_15
REMARK    7  A    between atoms: C8_15  and  C9_16
REMARK    8  A    between atoms: C9_16  and  C10_17
REMARK    9  A    between atoms: C10_17  and  C11_18
REMARK   10  A    between atoms: C11_18  and  C12_19
REMARK   11  A    between atoms: C12_19  and  C13_20
REMARK   12  A    between atoms: C13_20  and  C14_21
REMARK       I    between atoms: C14_21  and  N1_23
REMARK   13  A    between atoms: C15_25  and  C17_27
ROOT
HETATM    1  C2  UNL     1      21.055  32.826  14.620  1.00  0.00     0.128 C
HETATM    2  C3  UNL     1      21.748  31.891  13.611  1.00  0.00     0.071 C
HETATM    3  C4  UNL     1      21.536  30.469  14.047  1.00  0.00     0.077 C
HETATM    4  C5  UNL     1      22.287  29.526  13.184  1.00  0.00     0.072 C
HETATM    5  C6  UNL     1      21.735  29.276  11.840  1.00  0.00     0.152 C
HETATM    6  C18 UNL     1      20.272  29.674  11.697  1.00  0.00     0.112 C
HETATM    7  C19 UNL     1      19.547  29.663  12.959  1.00  0.00     0.141 C
HETATM    8  O8  UNL     1      18.372  29.296  12.980  1.00  0.00    -0.297 OA
HETATM    9  C20 UNL     1      20.131  30.075  14.268  1.00  0.00     0.052 C
HETATM   10  C21 UNL     1      20.109  28.815  15.146  1.00  0.00     0.027 C
HETATM   11  C22 UNL     1      19.249  31.095  14.899  1.00  0.00     0.011 C
HETATM   12  C23 UNL     1      19.067  30.907  16.386  1.00  0.00     0.007 C
HETATM   13  C24 UNL     1      18.138  31.883  17.002  1.00  0.00     0.018 C
HETATM   14  C25 UNL     1      18.070  33.231  16.404  1.00  0.00     0.021 C
HETATM   15  C26 UNL     1      18.590  34.279  17.408  1.00  0.00     0.024 C
HETATM   16  C27 UNL     1      16.642  33.634  16.180  1.00  0.00     0.135 C
HETATM   17  O9  UNL     1      15.701  33.252  16.840  1.00  0.00    -0.297 OA
HETATM   18  C28 UNL     1      16.609  34.579  15.010  1.00  0.00     0.079 C
HETATM   19  C29 UNL     1      17.573  33.848  14.099  1.00  0.00     0.013 C
HETATM   20  C30 UNL     1      18.682  33.489  15.101  1.00  0.00     0.008 C
HETATM   21  C31 UNL     1      19.594  32.486  14.508  1.00  0.00     0.025 C
ENDROOT
BRANCH   5  22
HETATM   22  O3  UNL     1      21.916  27.957  11.423  1.00  0.00    -0.270 OA
BRANCH  22  23
HETATM   23  S1  UNL     1      23.307  27.603  10.655  1.00  0.00     0.265 S
HETATM   24  O4  UNL     1      24.497  27.531  11.596  1.00  0.00    -0.199 OA
HETATM   25  O5  UNL     1      23.619  28.618   9.548  1.00  0.00    -0.199 OA
BRANCH  23  26
HETATM   26  C7  UNL     1      23.228  26.046   9.842  1.00  0.00     0.171 C
BRANCH  26  27
HETATM   27  C8  UNL     1      21.963  25.285  10.024  1.00  0.00     0.017 C
BRANCH  27  28
HETATM   28  C9  UNL     1      21.646  24.879  11.414  1.00  0.00     0.001 C
BRANCH  28  29
HETATM   29  C10 UNL     1      20.139  24.795  11.590  1.00  0.00     0.000 C
BRANCH  29  30
HETATM   30  C11 UNL     1      19.468  26.109  11.390  1.00  0.00     0.000 C
BRANCH  30  31
HETATM   31  C12 UNL     1      18.186  26.085  10.625  1.00  0.00     0.009 C
BRANCH  31  32
HETATM   32  C13 UNL     1      18.475  26.395   9.176  1.00  0.00     0.103 C
BRANCH  32  33
HETATM   33  C14 UNL     1      18.547  25.232   8.294  1.00  0.00     0.222 C
HETATM   34  O6  UNL     1      17.625  24.383   8.266  1.00  0.00    -0.273 OA
HETATM   35  N1  UNL     1      19.711  25.106   7.472  1.00  0.00    -0.327 N
HETATM   36  C15 UNL     1      19.719  25.387   6.215  1.00  0.00     0.073 C
ATOM     37  H1  UNL     1      20.577  24.779   7.902  1.00  0.00     0.168 HD
HETATM   38  C16 UNL     1      18.493  25.873   5.520  1.00  0.00     0.074 C
BRANCH  36  39
HETATM   39  C17 UNL     1      20.945  25.227   5.472  1.00  0.00     0.277 C
HETATM   40  N2  UNL     1      22.207  25.256   6.106  1.00  0.00    -0.056 NA
HETATM   41  O7  UNL     1      20.905  25.055   4.223  1.00  0.00    -0.270 OA
ENDBRANCH  36  39
ENDBRANCH  32  33
ENDBRANCH  31  32
ENDBRANCH  30  31
ENDBRANCH  29  30
ENDBRANCH  28  29
ENDBRANCH  27  28
ENDBRANCH  26  27
ENDBRANCH  23  26
ENDBRANCH  22  23
ENDBRANCH   5  22
BRANCH   3  42
HETATM   42  O2  UNL     1      22.183  30.392  15.322  1.00  0.00    -0.388 OA
ATOM     43  H2  UNL     1      22.788  31.125  15.322  1.00  0.00     0.210 HD
ENDBRANCH   3  42
BRANCH   1  44
HETATM   44  O1  UNL     1      21.623  32.641  15.845  1.00  0.00    -0.390 OA
HETATM   45  C1  UNL     1      22.174  33.869  16.287  1.00  0.00     0.202 C
ENDBRANCH   1  44
TORSDOF 13
ENDMDL