MODEL 5
REMARK VINA RESULT: -8.664009936      2.853      5.558
REMARK  12 active torsions:
REMARK  status: ('A' for Active; 'I' for Inactive)
REMARK    1  A    between atoms: C4_7  and  C5_8
REMARK    2  A    between atoms: C5_8  and  C6_9
REMARK    3  A    between atoms: C6_9  and  N2_10
REMARK    4  A    between atoms: C6_9  and  C28_40
REMARK       I    between atoms: N2_10  and  C7_12
REMARK    5  A    between atoms: C7_12  and  C8_14
REMARK    6  A    between atoms: C11_17  and  N3_18
REMARK    7  A    between atoms: C19_26  and  C20_27
REMARK       I    between atoms: C20_27  and  N4_29
REMARK    8  A    between atoms: N4_29  and  C21_31
REMARK    9  A    between atoms: C21_31  and  C22_32
REMARK   10  A    between atoms: C22_32  and  C23_33
REMARK   11  A    between atoms: C23_33  and  N5_34
REMARK   12  A    between atoms: C28_40  and  C29_42
ROOT
HETATM    1  C8  UNL     1      18.403  29.786  15.203  1.00  0.00     0.091 C
HETATM    2  C9  UNL     1      18.560  28.369  14.684  1.00  0.00     0.017 C
HETATM    3  C10 UNL     1      17.677  28.019  13.539  1.00  0.00     0.036 C
HETATM    4  C11 UNL     1      17.695  28.932  12.371  1.00  0.00     0.224 C
HETATM    5  C18 UNL     1      18.349  30.246  12.766  1.00  0.00     0.050 C
HETATM    6  C19 UNL     1      17.745  30.573  14.134  1.00  0.00     0.093 C
ENDROOT
BRANCH   1   7
HETATM    7  C7  UNL     1      19.752  30.233  15.603  1.00  0.00     0.223 C
HETATM    8  N2  UNL     1      20.697  30.532  14.610  1.00  0.00    -0.349 N
ATOM      9  H2  UNL     1      20.429  30.440  13.630  1.00  0.00     0.163 HD
HETATM   10  O2  UNL     1      20.111  30.366  16.796  1.00  0.00    -0.273 OA
BRANCH   8  11
HETATM   11  C6  UNL     1      22.090  30.982  14.944  1.00  0.00     0.162 C
BRANCH  11  12
HETATM   12  C5  UNL     1      22.924  30.193  14.019  1.00  0.00     0.047 C
BRANCH  12  13
HETATM   13  C4  UNL     1      22.380  29.208  13.097  1.00  0.00     0.081 C
HETATM   14  C1  UNL     1      21.847  29.649  11.808  1.00  0.00     0.221 C
HETATM   15  O1  UNL     1      21.158  30.664  11.592  1.00  0.00    -0.273 OA
HETATM   16  N1  UNL     1      22.250  28.709  10.829  1.00  0.00    -0.361 N
HETATM   17  C2  UNL     1      22.805  27.525  11.501  1.00  0.00     0.123 C
ATOM     18  H1  UNL     1      22.168  28.834   9.820  1.00  0.00     0.162 HD
HETATM   19  C3  UNL     1      23.254  28.007  12.836  1.00  0.00     0.034 C
ENDBRANCH  12  13
ENDBRANCH  11  12
BRANCH  11  20
HETATM   20  C28 UNL     1      22.145  32.442  14.836  1.00  0.00     0.205 C
HETATM   21  O5  UNL     1      22.389  33.048  13.757  1.00  0.00    -0.288 OA
BRANCH  20  22
HETATM   22  C29 UNL     1      21.908  33.314  16.012  1.00  0.00     0.122 A
HETATM   23  N6  UNL     1      22.036  33.034  17.294  1.00  0.00    -0.357 N
HETATM   24  C30 UNL     1      21.806  33.941  18.184  1.00  0.00     0.096 A
ATOM     25  H6  UNL     1      22.319  32.098  17.584  1.00  0.00     0.166 HD
HETATM   26  C31 UNL     1      21.430  35.187  17.749  1.00  0.00     0.069 A
HETATM   27  S1  UNL     1      21.431  34.965  16.055  1.00  0.00    -0.079 SA
ENDBRANCH  20  22
ENDBRANCH  11  20
ENDBRANCH   8  11
ENDBRANCH   1   7
BRANCH   6  28
HETATM   28  C20 UNL     1      17.585  32.011  14.365  1.00  0.00     0.222 C
HETATM   29  O3  UNL     1      18.355  32.823  13.846  1.00  0.00    -0.273 OA
HETATM   30  N4  UNL     1      16.533  32.526  15.198  1.00  0.00    -0.361 N
ATOM     31  H4  UNL     1      15.898  31.858  15.635  1.00  0.00     0.162 HD
BRANCH  30  32
HETATM   32  C21 UNL     1      16.324  33.909  15.450  1.00  0.00     0.124 C
BRANCH  32  33
HETATM   33  C22 UNL     1      15.351  34.141  16.566  1.00  0.00     0.040 C
BRANCH  33  34
HETATM   34  C23 UNL     1      16.069  34.157  17.907  1.00  0.00     0.129 C
BRANCH  34  35
HETATM   35  N5  UNL     1      16.495  35.443  18.316  1.00  0.00    -0.370 N
HETATM   36  C24 UNL     1      17.865  35.645  18.567  1.00  0.00     0.089 C
HETATM   37  C25 UNL     1      18.333  37.069  18.409  1.00  0.00     0.212 C
HETATM   38  O4  UNL     1      17.645  37.683  17.359  1.00  0.00    -0.381 OA
HETATM   39  C26 UNL     1      16.346  37.855  17.773  1.00  0.00     0.212 C
HETATM   40  C27 UNL     1      15.671  36.548  18.022  1.00  0.00     0.089 C
ENDBRANCH  34  35
ENDBRANCH  33  34
ENDBRANCH  32  33
ENDBRANCH  30  32
ENDBRANCH   6  28
BRANCH   4  41
HETATM   41  N3  UNL     1      18.187  28.371  11.155  1.00  0.00     0.093 N
HETATM   42  C12 UNL     1      18.532  26.982  11.393  1.00  0.00     0.273 C
HETATM   43  C13 UNL     1      19.471  26.477  10.334  1.00  0.00     0.030 C
HETATM   44  C14 UNL     1      18.699  25.540   9.400  1.00  0.00     0.002 C
HETATM   45  C15 UNL     1      17.457  26.249   8.903  1.00  0.00     0.002 C
HETATM   46  C16 UNL     1      17.628  27.752   8.857  1.00  0.00     0.030 C
HETATM   47  C17 UNL     1      17.180  28.421  10.138  1.00  0.00     0.273 C
ENDBRANCH   4  41
TORSDOF 12
ENDMDL