MODEL 1
REMARK VINA RESULT: -8.822911051      0.000      0.000
REMARK  17 active torsions:
REMARK  status: ('A' for Active; 'I' for Inactive)
REMARK    1  A    between atoms: C2_2  and  C3_3
REMARK    2  A    between atoms: C3_3  and  C4_4
REMARK    3  A    between atoms: C4_4  and  C5_5
REMARK    4  A    between atoms: C5_5  and  O2_7
REMARK    5  A    between atoms: O2_7  and  C6_8
REMARK    6  A    between atoms: C8_10  and  O3_11
REMARK    7  A    between atoms: O3_11  and  C9_12
REMARK    8  A    between atoms: C9_12  and  C10_14
REMARK    9  A    between atoms: C10_14  and  N2_20
REMARK       I    between atoms: N1_15  and  C11_17
REMARK   10  A    between atoms: N2_20  and  C13_22
REMARK   11  A    between atoms: C13_22  and  C14_23
REMARK   12  A    between atoms: C13_22  and  C16_25
REMARK   13  A    between atoms: C13_22  and  C28_37
REMARK   14  A    between atoms: C16_25  and  C17_26
REMARK   15  A    between atoms: C17_26  and  C18_27
REMARK   16  A    between atoms: C30_40  and  O7_41
REMARK   17  A    between atoms: C31_43  and  N3_45
REMARK       I    between atoms: N3_45  and  C33_47
ROOT
HETATM    1  C10 UNL     1      19.189  33.193  16.531  1.00  0.00     0.181 C
HETATM    2  N1  UNL     1      20.203  33.518  17.132  1.00  0.00    -0.309 N
ATOM      3  H1  UNL     1      19.923  33.787  18.076  1.00  0.00     0.170 HD
HETATM    4  C11 UNL     1      21.541  33.665  17.052  1.00  0.00     0.219 C
HETATM    5  C12 UNL     1      22.464  32.504  17.272  1.00  0.00     0.117 C
HETATM    6  O5  UNL     1      22.078  34.790  16.788  1.00  0.00    -0.274 OA
ENDROOT
BRANCH   1   7
HETATM    7  C9  UNL     1      19.183  32.746  15.149  1.00  0.00     0.328 C
HETATM    8  O4  UNL     1      19.037  33.477  14.166  1.00  0.00    -0.256 OA
BRANCH   7   9
HETATM    9  O3  UNL     1      19.361  31.378  14.903  1.00  0.00    -0.307 OA
BRANCH   9  10
HETATM   10  C8  UNL     1      20.364  30.965  14.015  1.00  0.00     0.166 C
HETATM   11  C7  UNL     1      19.985  30.891  12.584  1.00  0.00     0.070 C
HETATM   12  C6  UNL     1      19.414  29.546  12.297  1.00  0.00     0.164 C
HETATM   13  C31 UNL     1      19.815  28.687  13.471  1.00  0.00     0.084 C
HETATM   14  C30 UNL     1      20.701  29.504  14.362  1.00  0.00     0.178 C
HETATM   15  C32 UNL     1      18.583  28.325  14.275  1.00  0.00     0.044 C
BRANCH  12  16
HETATM   16  O2  UNL     1      18.008  29.536  12.211  1.00  0.00    -0.313 OA
BRANCH  16  17
HETATM   17  C5  UNL     1      17.341  29.003  11.114  1.00  0.00     0.259 C
HETATM   18  O1  UNL     1      16.132  29.322  11.000  1.00  0.00    -0.265 OA
BRANCH  17  19
HETATM   19  C4  UNL     1      17.985  28.128  10.140  1.00  0.00     0.111 C
BRANCH  19  20
HETATM   20  C3  UNL     1      17.995  26.668  10.438  1.00  0.00     0.009 C
BRANCH  20  21
HETATM   21  C2  UNL     1      18.083  25.735   9.283  1.00  0.00    -0.004 C
HETATM   22  C1  UNL     1      16.835  25.341   8.588  1.00  0.00     0.005 C
ENDBRANCH  20  21
ENDBRANCH  19  20
ENDBRANCH  17  19
ENDBRANCH  16  17
ENDBRANCH  12  16
BRANCH  13  23
HETATM   23  N3  UNL     1      20.431  27.446  13.041  1.00  0.00    -0.347 N
HETATM   24  C33 UNL     1      21.542  27.433  12.163  1.00  0.00     0.214 C
HETATM   25  C34 UNL     1      22.156  26.128  11.741  1.00  0.00     0.117 C
HETATM   26  O8  UNL     1      22.051  28.470  11.713  1.00  0.00    -0.274 OA
ATOM     27  H3  UNL     1      20.053  26.561  13.379  1.00  0.00     0.163 HD
ENDBRANCH  13  23
BRANCH  14  28
HETATM   28  O7  UNL     1      20.572  29.199  15.688  1.00  0.00    -0.390 OA
ATOM     29  H7  UNL     1      19.684  28.990  15.955  1.00  0.00     0.210 HD
ENDBRANCH  14  28
ENDBRANCH   9  10
ENDBRANCH   7   9
ENDBRANCH   1   7
BRANCH   1  30
HETATM   30  N2  UNL     1      17.900  33.275  17.148  1.00  0.00    -0.355 N
ATOM     31  H2  UNL     1      17.657  32.526  17.796  1.00  0.00     0.162 HD
BRANCH  30  32
HETATM   32  C13 UNL     1      16.907  34.307  16.950  1.00  0.00     0.091 C
BRANCH  32  33
HETATM   33  C14 UNL     1      15.902  34.237  18.074  1.00  0.00     0.034 C
HETATM   34  C15 UNL     1      14.661  35.016  17.825  1.00  0.00     0.008 C
ENDBRANCH  32  33
BRANCH  32  35
HETATM   35  C16 UNL     1      17.639  35.636  16.974  1.00  0.00     0.040 C
BRANCH  35  36
HETATM   36  C17 UNL     1      17.978  36.209  18.282  1.00  0.00     0.012 C
BRANCH  36  37
HETATM   37  C18 UNL     1      17.669  37.714  18.268  1.00  0.00    -0.039 C
HETATM   38  C19 UNL     1      17.175  38.170  16.943  1.00  0.00     0.014 C
HETATM   39  C20 UNL     1      16.866  39.654  17.039  1.00  0.00    -0.013 C
HETATM   40  C21 UNL     1      15.802  39.950  18.064  1.00  0.00     0.009 C
HETATM   41  C25 UNL     1      18.134  40.358  17.455  1.00  0.00     0.009 C
HETATM   42  C22 UNL     1      16.212  39.379  19.412  1.00  0.00    -0.013 C
HETATM   43  C23 UNL     1      17.417  40.178  19.869  1.00  0.00     0.009 C
HETATM   44  C27 UNL     1      16.488  37.918  19.245  1.00  0.00     0.014 C
HETATM   45  C24 UNL     1      18.509  39.968  18.849  1.00  0.00    -0.013 C
HETATM   46  C26 UNL     1      18.805  38.474  18.853  1.00  0.00     0.014 C
ENDBRANCH  36  37
ENDBRANCH  35  36
ENDBRANCH  32  35
BRANCH  32  47
HETATM   47  C28 UNL     1      16.263  34.106  15.645  1.00  0.00     0.151 C
HETATM   48  C29 UNL     1      16.270  35.128  14.543  1.00  0.00     0.093 C
HETATM   49  O6  UNL     1      15.678  33.070  15.405  1.00  0.00    -0.296 OA
ENDBRANCH  32  47
ENDBRANCH  30  32
ENDBRANCH   1  30
TORSDOF 17
ENDMDL