MODEL 3
REMARK VINA RESULT: -7.656211053      2.900      6.669
REMARK  18 active torsions:
REMARK  status: ('A' for Active; 'I' for Inactive)
REMARK    1  A    between atoms: C2_2  and  C3_3
REMARK    2  A    between atoms: C3_3  and  N1_4
REMARK    3  A    between atoms: C3_3  and  C4_8
REMARK    4  A    between atoms: C4_8  and  C5_10
REMARK    5  A    between atoms: C5_10  and  C6_11
REMARK    6  A    between atoms: C5_10  and  N5_40
REMARK    7  A    between atoms: C6_11  and  C7_12
REMARK       I    between atoms: N2_14  and  C9_15
REMARK    8  A    between atoms: C9_15  and  O3_17
REMARK    9  A    between atoms: O3_17  and  C10_18
REMARK   10  A    between atoms: N3_24  and  C16_25
REMARK   11  A    between atoms: C16_25  and  O4_26
REMARK   12  A    between atoms: C16_25  and  C17_28
REMARK   13  A    between atoms: C17_28  and  C18_29
REMARK   14  A    between atoms: C17_28  and  N4_32
REMARK   15  A    between atoms: C18_29  and  S1_30
REMARK   16  A    between atoms: N4_32  and  C20_34
REMARK       I    between atoms: N5_40  and  C26_42
REMARK   17  A    between atoms: C26_42  and  O6_44
REMARK   18  A    between atoms: O6_44  and  C27_45
ROOT
HETATM    1  C7  UNL     1      21.233  28.416  11.320  1.00  0.00     0.111 C
HETATM    2  C8  UNL     1      22.404  28.089  10.378  1.00  0.00     0.154 C
HETATM    3  N2  UNL     1      23.449  27.426  11.074  1.00  0.00    -0.321 N
HETATM    4  C9  UNL     1      24.331  26.584  10.318  1.00  0.00     0.363 C
HETATM    5  O2  UNL     1      25.311  26.024  10.912  1.00  0.00    -0.238 OA
HETATM    6  C14 UNL     1      23.617  27.552  12.477  1.00  0.00     0.172 C
HETATM    7  C15 UNL     1      22.851  28.663  13.149  1.00  0.00     0.086 C
HETATM    8  N3  UNL     1      21.741  29.190  12.459  1.00  0.00    -0.332 N
ENDROOT
BRANCH   1   9
HETATM    9  C6  UNL     1      20.575  27.150  11.671  1.00  0.00     0.060 C
BRANCH   9  10
HETATM   10  C5  UNL     1      19.277  26.796  11.066  1.00  0.00     0.161 C
BRANCH  10  11
HETATM   11  C4  UNL     1      18.232  26.388  12.051  1.00  0.00     0.183 C
HETATM   12  O1  UNL     1      17.925  25.223  12.180  1.00  0.00    -0.293 OA
BRANCH  11  13
HETATM   13  C3  UNL     1      17.537  27.387  12.885  1.00  0.00     0.276 C
BRANCH  13  14
HETATM   14  C2  UNL     1      17.631  28.720  12.210  1.00  0.00     0.003 C
HETATM   15  C1  UNL     1      16.738  29.123  11.323  1.00  0.00     0.009 C
ENDBRANCH  13  14
BRANCH  13  16
HETATM   16  N1  UNL     1      18.282  27.588  14.145  1.00  0.00    -0.065 N
ATOM     17  H13 UNL     1      19.285  27.411  14.077  1.00  0.00     0.275 HD
ATOM     18  H12 UNL     1      18.367  28.562  14.436  1.00  0.00     0.275 HD
ATOM     19  H11 UNL     1      17.791  26.989  14.808  1.00  0.00     0.275 HD
ENDBRANCH  13  16
ENDBRANCH  11  13
ENDBRANCH  10  11
BRANCH  10  20
HETATM   20  N5  UNL     1      19.270  25.769  10.063  1.00  0.00    -0.325 N
HETATM   21  C26 UNL     1      18.719  25.807   8.779  1.00  0.00     0.361 C
HETATM   22  O5  UNL     1      18.113  26.831   8.306  1.00  0.00    -0.238 OA
ATOM     23  H5  UNL     1      19.728  24.895  10.322  1.00  0.00     0.165 HD
BRANCH  21  24
HETATM   24  O6  UNL     1      18.792  24.741   7.930  1.00  0.00    -0.299 OA
BRANCH  24  25
HETATM   25  C27 UNL     1      18.488  24.578   6.657  1.00  0.00     0.133 C
HETATM   26  C28 UNL     1      19.819  23.448   6.380  1.00  0.00     0.032 C
HETATM   27  C29 UNL     1      19.149  22.669   5.321  1.00  0.00     0.002 C
HETATM   28  C30 UNL     1      17.740  22.432   5.750  1.00  0.00     0.002 C
HETATM   29  C31 UNL     1      17.466  23.249   6.944  1.00  0.00     0.032 C
ENDBRANCH  24  25
ENDBRANCH  21  24
ENDBRANCH  10  20
ENDBRANCH   9  10
ENDBRANCH   1   9
BRANCH   8  30
HETATM   30  C16 UNL     1      21.125  30.406  12.748  1.00  0.00     0.166 C
BRANCH  30  31
HETATM   31  O4  UNL     1      21.160  31.268  11.729  1.00  0.00    -0.344 OA
ATOM     32  H4  UNL     1      20.691  32.076  11.906  1.00  0.00     0.219 HD
ENDBRANCH  30  31
BRANCH  30  33
HETATM   33  C17 UNL     1      20.438  30.986  13.885  1.00  0.00     0.066 C
BRANCH  33  34
HETATM   34  C18 UNL     1      21.133  30.943  15.227  1.00  0.00     0.134 C
BRANCH  34  35
HETATM   35  S1  UNL     1      22.013  32.517  15.529  1.00  0.00    -0.167 SA
HETATM   36  C19 UNL     1      23.571  32.539  14.629  1.00  0.00     0.090 C
ENDBRANCH  34  35
ENDBRANCH  33  34
BRANCH  33  37
HETATM   37  N4  UNL     1      19.818  32.256  13.699  1.00  0.00    -0.384 N
ATOM     38  H4  UNL     1      20.401  33.041  13.411  1.00  0.00     0.160 HD
BRANCH  37  39
HETATM   39  C20 UNL     1      18.449  32.478  13.893  1.00  0.00     0.081 C
HETATM   40  C21 UNL     1      17.609  31.330  14.330  1.00  0.00     0.025 C
HETATM   41  C22 UNL     1      17.196  31.467  15.775  1.00  0.00     0.002 C
HETATM   42  C23 UNL     1      16.243  32.649  15.876  1.00  0.00     0.000 C
HETATM   43  C24 UNL     1      16.807  33.836  15.160  1.00  0.00     0.002 C
HETATM   44  C25 UNL     1      18.285  33.588  14.982  1.00  0.00     0.025 C
ENDBRANCH  37  39
ENDBRANCH  33  37
ENDBRANCH  30  33
ENDBRANCH   8  30
BRANCH   4  45
HETATM   45  O3  UNL     1      24.172  26.348   8.979  1.00  0.00    -0.294 OA
BRANCH  45  46
HETATM   46  C10 UNL     1      23.573  25.186   8.454  1.00  0.00     0.061 C
HETATM   47  C11 UNL     1      22.903  24.409   9.598  1.00  0.00     0.046 C
HETATM   48  C12 UNL     1      24.597  24.307   7.779  1.00  0.00     0.046 C
HETATM   49  C13 UNL     1      22.521  25.539   7.428  1.00  0.00     0.046 C
ENDBRANCH  45  46
ENDBRANCH   4  45
TORSDOF 18
ENDMDL