MODEL 2
REMARK VINA RESULT: -8.375540667      3.063     11.521
REMARK  18 active torsions:
REMARK  status: ('A' for Active; 'I' for Inactive)
REMARK    1  A    between atoms: C2_2  and  O1_5
REMARK    2  A    between atoms: O1_5  and  C5_6
REMARK       I    between atoms: C5_6  and  N1_8
REMARK    3  A    between atoms: N1_8  and  C6_10
REMARK    4  A    between atoms: C6_10  and  C7_11
REMARK    5  A    between atoms: C6_10  and  C23_36
REMARK       I    between atoms: C7_11  and  N2_13
REMARK    6  A    between atoms: N2_13  and  C8_15
REMARK    7  A    between atoms: C8_15  and  C9_16
REMARK    8  A    between atoms: C9_16  and  O5_18
REMARK    9  A    between atoms: O5_18  and  C10_19
REMARK   10  A    between atoms: C10_19  and  C11_20
REMARK   11  A    between atoms: C11_20  and  C12_21
REMARK   12  A    between atoms: C12_21  and  C13_22
REMARK   13  A    between atoms: C13_22  and  N3_23
REMARK       I    between atoms: N4_26  and  C16_27
REMARK   14  A    between atoms: C16_27  and  O7_29
REMARK   15  A    between atoms: O7_29  and  C17_30
REMARK   16  A    between atoms: C23_36  and  C26_39
REMARK   17  A    between atoms: C26_39  and  N5_40
REMARK       I    between atoms: N5_40  and  C27_41
REMARK   18  A    between atoms: C27_41  and  C28_43
ROOT
HETATM    1  C7  UNL     1      18.548  26.174  11.344  1.00  0.00     0.245 C
HETATM    2  O3  UNL     1      17.959  25.349  12.145  1.00  0.00    -0.271 OA
HETATM    3  N2  UNL     1      18.466  27.491  11.702  1.00  0.00    -0.330 N
ATOM      4  H2  UNL     1      19.046  28.082  11.107  1.00  0.00     0.168 HD
ENDROOT
BRANCH   1   5
HETATM    5  C6  UNL     1      19.209  25.584  10.162  1.00  0.00     0.193 C
BRANCH   5   6
HETATM    6  N1  UNL     1      20.533  26.202   9.883  1.00  0.00    -0.322 N
HETATM    7  C5  UNL     1      21.659  25.329  10.285  1.00  0.00     0.362 C
HETATM    8  O2  UNL     1      21.510  24.375  10.939  1.00  0.00    -0.238 OA
ATOM      9  H1  UNL     1      20.652  27.124   9.463  1.00  0.00     0.165 HD
BRANCH   7  10
HETATM   10  O1  UNL     1      22.970  25.656   9.839  1.00  0.00    -0.294 OA
BRANCH  10  11
HETATM   11  C2  UNL     1      23.627  26.688  10.630  1.00  0.00     0.061 C
HETATM   12  C1  UNL     1      25.073  26.337  10.856  1.00  0.00     0.046 C
HETATM   13  C3  UNL     1      23.616  28.020   9.955  1.00  0.00     0.046 C
HETATM   14  C4  UNL     1      23.012  26.834  11.995  1.00  0.00     0.046 C
ENDBRANCH  10  11
ENDBRANCH   7  10
ENDBRANCH   5   6
BRANCH   5  15
HETATM   15  C23 UNL     1      18.409  25.659   8.890  1.00  0.00     0.026 C
HETATM   16  C24 UNL     1      16.928  25.510   9.068  1.00  0.00     0.024 C
HETATM   17  C25 UNL     1      18.338  27.292   8.656  1.00  0.00     0.024 C
BRANCH  15  18
HETATM   18  C26 UNL     1      18.958  25.256   7.639  1.00  0.00     0.170 C
BRANCH  18  19
HETATM   19  N5  UNL     1      20.016  24.596   7.184  1.00  0.00    -0.386 NA
HETATM   20  C27 UNL     1      21.145  23.881   6.727  1.00  0.00     0.298 C
HETATM   21  O8  UNL     1      21.679  23.024   7.501  1.00  0.00    -0.256 OA
BRANCH  20  22
HETATM   22  C28 UNL     1      21.683  24.096   5.356  1.00  0.00     0.044 C
HETATM   23  C29 UNL     1      23.189  24.393   5.581  1.00  0.00     0.026 C
HETATM   24  C30 UNL     1      21.071  25.129   4.531  1.00  0.00     0.026 C
HETATM   25  C31 UNL     1      21.658  22.722   4.662  1.00  0.00     0.026 C
ENDBRANCH  20  22
ENDBRANCH  18  19
ENDBRANCH  15  18
ENDBRANCH   5  15
ENDBRANCH   1   5
BRANCH   3  26
HETATM   26  C8  UNL     1      17.791  28.235  12.674  1.00  0.00     0.173 C
BRANCH  26  27
HETATM   27  C9  UNL     1      18.026  29.738  12.517  1.00  0.00     0.298 C
HETATM   28  O4  UNL     1      17.397  30.626  12.932  1.00  0.00    -0.259 OA
BRANCH  27  29
HETATM   29  O5  UNL     1      19.238  30.032  11.718  1.00  0.00    -0.317 OA
BRANCH  29  30
HETATM   30  C10 UNL     1      20.009  30.998  12.540  1.00  0.00     0.179 C
BRANCH  30  31
HETATM   31  C11 UNL     1      21.296  30.211  12.740  1.00  0.00     0.028 C
BRANCH  31  32
HETATM   32  C12 UNL     1      21.799  30.591  14.176  1.00  0.00     0.032 C
BRANCH  32  33
HETATM   33  C13 UNL     1      20.596  30.236  15.018  1.00  0.00     0.272 C
BRANCH  33  34
HETATM   34  N3  UNL     1      20.517  31.180  16.129  1.00  0.00     0.091 N
HETATM   35  C14 UNL     1      19.145  31.173  16.583  1.00  0.00     0.292 C
HETATM   36  C15 UNL     1      18.251  32.192  15.805  1.00  0.00     0.158 C
HETATM   37  N4  UNL     1      19.054  33.379  16.179  1.00  0.00    -0.325 N
HETATM   38  C16 UNL     1      18.666  34.114  17.259  1.00  0.00     0.363 C
HETATM   39  C21 UNL     1      20.215  33.529  15.360  1.00  0.00     0.158 C
HETATM   40  O6  UNL     1      19.493  34.953  17.750  1.00  0.00    -0.238 OA
HETATM   41  C22 UNL     1      21.151  32.401  15.848  1.00  0.00     0.292 C
BRANCH  38  42
HETATM   42  O7  UNL     1      17.450  34.051  17.876  1.00  0.00    -0.294 OA
BRANCH  42  43
HETATM   43  C17 UNL     1      16.365  34.896  17.540  1.00  0.00     0.061 C
HETATM   44  C18 UNL     1      16.379  35.419  16.150  1.00  0.00     0.046 C
HETATM   45  C19 UNL     1      16.153  35.937  18.608  1.00  0.00     0.046 C
HETATM   46  C20 UNL     1      15.134  33.923  17.598  1.00  0.00     0.046 C
ENDBRANCH  42  43
ENDBRANCH  38  42
ENDBRANCH  33  34
ENDBRANCH  32  33
ENDBRANCH  31  32
ENDBRANCH  30  31
ENDBRANCH  29  30
ENDBRANCH  27  29
ENDBRANCH  26  27
ENDBRANCH   3  26
TORSDOF 18
ENDMDL