MODEL 4
REMARK VINA RESULT: -5.762145157      1.926      7.302
REMARK  14 active torsions:
REMARK  status: ('A' for Active; 'I' for Inactive)
REMARK    1  A    between atoms: C2_2  and  C3_3
REMARK    2  A    between atoms: C3_3  and  N1_4
REMARK    3  A    between atoms: N1_4  and  C4_5
REMARK       I    between atoms: N1_4  and  C6_7
REMARK    4  A    between atoms: C6_7  and  C7_9
REMARK    5  A    between atoms: C7_9  and  N2_10
REMARK    6  A    between atoms: C7_9  and  C15_21
REMARK       I    between atoms: N2_10  and  C8_12
REMARK    7  A    between atoms: C8_12  and  C9_14
REMARK    8  A    between atoms: C9_14  and  N3_15
REMARK    9  A    between atoms: C15_21  and  N4_22
REMARK       I    between atoms: N4_22  and  C16_24
REMARK   10  A    between atoms: C16_24  and  O4_26
REMARK   11  A    between atoms: O4_26  and  C17_27
REMARK   12  A    between atoms: C21_35  and  O5_36
REMARK   13  A    between atoms: O5_36  and  C22_37
REMARK   14  A    between atoms: C22_37  and  C23_39
ROOT
HETATM    1  C15 UNL     1      19.713  32.113  14.701  1.00  0.00     0.131 C
HETATM    2  C19 UNL     1      20.437  30.975  15.389  1.00  0.00     0.328 C
HETATM    3  C20 UNL     1      19.782  30.316  16.473  1.00  0.00     0.095 C
HETATM    4  N5  UNL     1      19.290  29.772  17.395  1.00  0.00    -0.195 NA
HETATM    5  N6  UNL     1      20.963  30.018  14.458  1.00  0.00    -0.021 N
ATOM      6  H61 UNL     1      20.215  29.521  13.975  1.00  0.00     0.282 HD
ATOM      7  H62 UNL     1      21.394  29.229  14.941  1.00  0.00     0.282 HD
HETATM    8  C21 UNL     1      21.882  30.623  13.519  1.00  0.00     0.263 C
HETATM    9  C29 UNL     1      22.144  32.088  13.870  1.00  0.00     0.107 C
HETATM   10  C30 UNL     1      20.758  32.624  13.695  1.00  0.00     0.160 C
HETATM   11  O7  UNL     1      20.400  32.065  12.430  1.00  0.00    -0.373 OA
HETATM   12  C31 UNL     1      21.086  30.909  12.246  1.00  0.00     0.182 C
HETATM   13  C32 UNL     1      20.312  29.696  11.872  1.00  0.00     0.044 C
ENDROOT
BRANCH   1  14
HETATM   14  C7  UNL     1      19.389  33.161  15.773  1.00  0.00     0.210 C
BRANCH  14  15
HETATM   15  C6  UNL     1      18.077  33.813  15.616  1.00  0.00     0.245 C
HETATM   16  N1  UNL     1      17.185  34.232  16.664  1.00  0.00    -0.351 N
HETATM   17  O1  UNL     1      17.605  34.075  14.452  1.00  0.00    -0.271 OA
BRANCH  16  18
HETATM   18  C3  UNL     1      17.633  34.160  18.018  1.00  0.00     0.125 C
BRANCH  18  19
HETATM   19  C2  UNL     1      18.107  35.426  18.641  1.00  0.00     0.015 C
HETATM   20  C1  UNL     1      18.136  36.640  17.776  1.00  0.00     0.006 C
ENDBRANCH  18  19
ENDBRANCH  16  18
BRANCH  16  21
HETATM   21  C4  UNL     1      15.810  34.620  16.307  1.00  0.00     0.121 C
HETATM   22  C5  UNL     1      14.865  34.696  17.455  1.00  0.00     0.026 C
ENDBRANCH  16  21
ENDBRANCH  14  15
BRANCH  14  23
HETATM   23  N2  UNL     1      20.366  34.278  15.569  1.00  0.00    -0.344 N
HETATM   24  C8  UNL     1      21.168  34.798  16.594  1.00  0.00     0.235 C
HETATM   25  O2  UNL     1      21.148  34.381  17.786  1.00  0.00    -0.272 OA
ATOM     26  H2  UNL     1      20.452  34.681  14.637  1.00  0.00     0.163 HD
BRANCH  24  27
HETATM   27  C9  UNL     1      22.111  35.907  16.291  1.00  0.00     0.219 C
BRANCH  27  28
HETATM   28  N3  UNL     1      21.920  37.080  17.075  1.00  0.00    -0.404 N
HETATM   29  C10 UNL     1      21.386  38.216  16.429  1.00  0.00     0.117 C
HETATM   30  C11 UNL     1      20.806  39.162  17.472  1.00  0.00     0.019 C
HETATM   31  C12 UNL     1      21.839  39.448  18.526  1.00  0.00     0.003 C
HETATM   32  C13 UNL     1      23.166  38.873  18.095  1.00  0.00     0.019 C
HETATM   33  C14 UNL     1      23.002  37.367  17.944  1.00  0.00     0.117 C
ENDBRANCH  27  28
ENDBRANCH  24  27
ENDBRANCH  14  23
ENDBRANCH   1  14
BRANCH   1  34
HETATM   34  N4  UNL     1      18.576  31.736  13.926  1.00  0.00    -0.319 N
HETATM   35  C16 UNL     1      17.831  30.570  13.772  1.00  0.00     0.361 C
HETATM   36  O3  UNL     1      17.972  29.462  14.310  1.00  0.00    -0.238 OA
ATOM     37  H4  UNL     1      18.225  32.502  13.350  1.00  0.00     0.165 HD
BRANCH  35  38
HETATM   38  O4  UNL     1      16.734  30.594  12.874  1.00  0.00    -0.304 OA
BRANCH  38  39
HETATM   39  C17 UNL     1      16.322  29.343  12.299  1.00  0.00     0.176 C
HETATM   40  C18 UNL     1      16.919  29.199  10.918  1.00  0.00     0.034 C
ENDBRANCH  38  39
ENDBRANCH  35  38
ENDBRANCH   1  34
BRANCH   8  41
HETATM   41  O5  UNL     1      23.017  29.885  13.249  1.00  0.00    -0.278 OA
BRANCH  41  42
HETATM   42  C22 UNL     1      23.086  28.577  12.885  1.00  0.00     0.265 C
HETATM   43  O6  UNL     1      22.461  27.722  13.553  1.00  0.00    -0.265 OA
BRANCH  42  44
HETATM   44  C23 UNL     1      23.890  28.153  11.711  1.00  0.00     0.085 C
HETATM   45  C24 UNL     1      24.759  27.007  12.194  1.00  0.00     0.014 C
HETATM   46  C25 UNL     1      25.466  26.296  11.078  1.00  0.00     0.001 C
HETATM   47  C26 UNL     1      24.557  25.921   9.948  1.00  0.00     0.000 C
HETATM   48  C27 UNL     1      23.869  27.179   9.461  1.00  0.00     0.001 C
HETATM   49  C28 UNL     1      22.985  27.679  10.567  1.00  0.00     0.014 C
ENDBRANCH  42  44
ENDBRANCH  41  42
ENDBRANCH   8  41
TORSDOF 14
ENDMDL