MODEL 3
REMARK VINA RESULT: -8.634992061      3.594     11.572
REMARK  14 active torsions:
REMARK  status: ('A' for Active; 'I' for Inactive)
REMARK    1  A    between atoms: O1_2  and  C2_3
REMARK    2  A    between atoms: C2_3  and  C3_4
REMARK    3  A    between atoms: C3_4  and  N1_5
REMARK    4  A    between atoms: N1_5  and  C5_7
REMARK    5  A    between atoms: C5_7  and  C6_8
REMARK       I    between atoms: C6_8  and  N2_10
REMARK    6  A    between atoms: C8_17  and  C9_18
REMARK    7  A    between atoms: C9_18  and  C10_19
REMARK    8  A    between atoms: C10_19  and  S1_20
REMARK    9  A    between atoms: S1_20  and  C11_21
REMARK   10  A    between atoms: C11_21  and  C12_22
REMARK   11  A    between atoms: C12_22  and  C13_23
REMARK   12  A    between atoms: N7_29  and  C15_31
REMARK   13  A    between atoms: C15_31  and  N8_33
REMARK   14  A    between atoms: N8_33  and  C16_35
ROOT
HETATM    1  C13 UNL     1      18.256  29.627  13.871  1.00  0.00     0.070 A
HETATM    2  N5  UNL     1      17.993  28.324  13.844  1.00  0.00    -0.296 N
ATOM      3  H5  UNL     1      17.490  27.888  14.616  1.00  0.00     0.187 HD
HETATM    4  N6  UNL     1      18.372  27.624  12.855  1.00  0.00    -0.279 N
ATOM      5  H6  UNL     1      18.176  26.624  12.825  1.00  0.00     0.189 HD
HETATM    6  C14 UNL     1      19.028  28.214  11.856  1.00  0.00     0.167 A
HETATM    7  N7  UNL     1      19.506  27.675  10.752  1.00  0.00    -0.312 N
ATOM      8  H7  UNL     1      19.998  28.224  10.047  1.00  0.00     0.170 HD
HETATM    9  S3  UNL     1      19.084  29.842  12.401  1.00  0.00    -0.038 SA
ENDROOT
BRANCH   1  10
HETATM   10  C12 UNL     1      17.888  30.604  14.975  1.00  0.00     0.076 C
BRANCH  10  11
HETATM   11  C11 UNL     1      19.025  31.590  14.986  1.00  0.00     0.080 C
BRANCH  11  12
HETATM   12  S1  UNL     1      20.281  31.151  16.136  1.00  0.00    -0.168 SA
BRANCH  12  13
HETATM   13  C10 UNL     1      21.843  31.964  15.956  1.00  0.00     0.080 C
BRANCH  13  14
HETATM   14  C9  UNL     1      22.377  32.565  17.211  1.00  0.00     0.076 C
BRANCH  14  15
HETATM   15  C8  UNL     1      21.713  33.922  17.420  1.00  0.00     0.070 A
HETATM   16  N4  UNL     1      20.882  34.319  18.365  1.00  0.00    -0.296 N
HETATM   17  N3  UNL     1      20.429  35.505  18.366  1.00  0.00    -0.279 N
ATOM     18  H4  UNL     1      20.602  33.669  19.099  1.00  0.00     0.187 HD
HETATM   19  C7  UNL     1      20.804  36.345  17.400  1.00  0.00     0.167 A
ATOM     20  H3  UNL     1      19.786  35.812  19.097  1.00  0.00     0.189 HD
HETATM   21  N2  UNL     1      20.485  37.593  17.195  1.00  0.00    -0.305 N
HETATM   22  S4  UNL     1      21.856  35.335  16.472  1.00  0.00    -0.038 SA
HETATM   23  C6  UNL     1      19.603  38.212  18.106  1.00  0.00     0.252 C
ATOM     24  H2  UNL     1      20.862  38.107  16.399  1.00  0.00     0.171 HD
HETATM   25  O2  UNL     1      20.087  38.643  19.176  1.00  0.00    -0.271 OA
BRANCH  23  26
HETATM   26  C5  UNL     1      18.187  38.328  17.780  1.00  0.00     0.374 C
BRANCH  26  27
HETATM   27  N1  UNL     1      17.301  37.429  18.432  1.00  0.00     0.095 N
HETATM   28  C4  UNL     1      16.249  38.176  19.074  1.00  0.00     0.310 C
BRANCH  27  29
HETATM   29  C3  UNL     1      16.792  36.340  17.668  1.00  0.00     0.298 C
BRANCH  29  30
HETATM   30  C2  UNL     1      15.451  35.909  18.237  1.00  0.00     0.197 C
BRANCH  30  31
HETATM   31  O1  UNL     1      15.485  34.621  18.726  1.00  0.00    -0.394 OA
HETATM   32  C1  UNL     1      15.385  33.762  17.633  1.00  0.00     0.201 C
ENDBRANCH  30  31
ENDBRANCH  29  30
ENDBRANCH  27  29
ENDBRANCH  26  27
ENDBRANCH  23  26
ENDBRANCH  14  15
ENDBRANCH  13  14
ENDBRANCH  12  13
ENDBRANCH  11  12
ENDBRANCH  10  11
ENDBRANCH   1  10
BRANCH   7  33
HETATM   33  C15 UNL     1      19.289  26.277  10.613  1.00  0.00     0.174 C
HETATM   34  S2  UNL     1      18.167  25.814   9.509  1.00  0.00    -0.041 SA
BRANCH  33  35
HETATM   35  N8  UNL     1      20.010  25.326  11.400  1.00  0.00    -0.362 N
ATOM     36  H8  UNL     1      19.534  24.742  12.087  1.00  0.00     0.162 HD
BRANCH  35  37
HETATM   37  C16 UNL     1      21.447  25.221  11.189  1.00  0.00     0.085 C
HETATM   38  C17 UNL     1      21.867  25.223   9.781  1.00  0.00     0.029 C
HETATM   39  C18 UNL     1      22.870  26.161   9.294  1.00  0.00    -0.012 C
HETATM   40  C19 UNL     1      24.303  25.754   9.152  1.00  0.00     0.009 C
HETATM   41  C25 UNL     1      22.935  27.276  10.299  1.00  0.00     0.014 C
HETATM   42  C20 UNL     1      25.117  25.863  10.401  1.00  0.00    -0.013 C
HETATM   43  C21 UNL     1      25.409  27.200  10.967  1.00  0.00     0.005 C
HETATM   44  C24 UNL     1      24.185  25.355  11.474  1.00  0.00     0.014 C
HETATM   45  C22 UNL     1      24.383  27.477  12.104  1.00  0.00     0.010 C
HETATM   46  C23 UNL     1      23.333  26.581  11.575  1.00  0.00    -0.038 C
HETATM   47  C26 UNL     1      22.105  26.181  12.175  1.00  0.00     0.034 C
ENDBRANCH  35  37
ENDBRANCH  33  35
ENDBRANCH   7  33
TORSDOF 14
ENDMDL