MODEL 3
REMARK VINA RESULT: -8.603196863      1.911      2.618
REMARK  14 active torsions:
REMARK  status: ('A' for Active; 'I' for Inactive)
REMARK    1  A    between atoms: C2_2  and  C3_3
REMARK    2  A    between atoms: C3_3  and  C4_4
REMARK    3  A    between atoms: C6_9  and  N2_10
REMARK    4  A    between atoms: C9_13  and  C10_14
REMARK    5  A    between atoms: C10_14  and  N3_15
REMARK       I    between atoms: N3_15  and  C11_17
REMARK    6  A    between atoms: C11_17  and  C12_19
REMARK    7  A    between atoms: C12_19  and  C14_21
REMARK    8  A    between atoms: C12_19  and  C24_38
REMARK    9  A    between atoms: C14_21  and  N4_22
REMARK       I    between atoms: N4_22  and  C15_24
REMARK   10  A    between atoms: C15_24  and  C16_26
REMARK   11  A    between atoms: C16_26  and  C17_27
REMARK   12  A    between atoms: C16_26  and  N5_29
REMARK       I    between atoms: N5_29  and  C19_31
REMARK   13  A    between atoms: C19_31  and  O4_33
REMARK   14  A    between atoms: O4_33  and  C20_34
REMARK       I    between atoms: C24_38  and  N6_40
ROOT
HETATM    1  C12 UNL     1      22.061  32.199  15.366  1.00  0.00     0.150 C
HETATM    2  C13 UNL     1      23.078  32.833  14.331  1.00  0.00     0.042 C
ENDROOT
BRANCH   1   3
HETATM    3  C11 UNL     1      22.060  32.966  16.546  1.00  0.00     0.240 C
HETATM    4  N3  UNL     1      21.755  34.327  16.706  1.00  0.00    -0.359 N
ATOM      5  H3  UNL     1      21.585  34.848  15.845  1.00  0.00     0.162 HD
HETATM    6  O1  UNL     1      22.358  32.363  17.651  1.00  0.00    -0.272 OA
BRANCH   4   7
HETATM    7  C10 UNL     1      21.652  35.073  17.909  1.00  0.00     0.127 C
BRANCH   7   8
HETATM    8  C9  UNL     1      21.473  36.539  17.819  1.00  0.00     0.006 C
HETATM    9  C8  UNL     1      21.479  37.178  16.494  1.00  0.00     0.026 C
HETATM   10  C7  UNL     1      20.769  38.480  16.396  1.00  0.00     0.124 C
HETATM   11  N2  UNL     1      19.819  38.821  17.406  1.00  0.00    -0.374 N
HETATM   12  C31 UNL     1      19.990  38.305  18.750  1.00  0.00     0.124 C
HETATM   13  C30 UNL     1      20.153  36.816  18.598  1.00  0.00     0.026 C
BRANCH  11  14
HETATM   14  C6  UNL     1      18.702  39.681  17.089  1.00  0.00     0.096 A
HETATM   15  C4  UNL     1      17.374  39.378  16.939  1.00  0.00     0.043 A
HETATM   16  N1  UNL     1      16.565  40.356  16.654  1.00  0.00    -0.361 N
HETATM   17  C5  UNL     1      17.027  41.584  16.518  1.00  0.00     0.140 A
ATOM     18  H1  UNL     1      15.569  40.173  16.535  1.00  0.00     0.165 HD
HETATM   19  S1  UNL     1      18.695  41.378  16.805  1.00  0.00    -0.065 SA
BRANCH  15  20
HETATM   20  C3  UNL     1      16.840  37.960  17.090  1.00  0.00     0.059 C
BRANCH  20  21
HETATM   21  C2  UNL     1      16.276  37.758  18.465  1.00  0.00     0.002 C
HETATM   22  C1  UNL     1      16.000  36.255  18.589  1.00  0.00     0.005 C
ENDBRANCH  20  21
ENDBRANCH  15  20
ENDBRANCH  11  14
ENDBRANCH   7   8
ENDBRANCH   4   7
ENDBRANCH   1   3
BRANCH   1  23
HETATM   23  C14 UNL     1      22.324  30.761  15.301  1.00  0.00     0.092 C
BRANCH  23  24
HETATM   24  N4  UNL     1      21.885  29.911  14.286  1.00  0.00    -0.337 N
HETATM   25  C15 UNL     1      20.971  28.882  14.284  1.00  0.00     0.244 C
HETATM   26  O2  UNL     1      20.303  28.527  15.266  1.00  0.00    -0.271 OA
ATOM     27  H4  UNL     1      22.320  30.083  13.380  1.00  0.00     0.168 HD
BRANCH  25  28
HETATM   28  C16 UNL     1      20.749  28.109  12.992  1.00  0.00     0.178 C
BRANCH  28  29
HETATM   29  C17 UNL     1      20.278  29.105  11.954  1.00  0.00     0.030 C
HETATM   30  C18 UNL     1      18.845  29.501  12.184  1.00  0.00     0.007 C
ENDBRANCH  28  29
BRANCH  28  31
HETATM   31  N5  UNL     1      21.982  27.485  12.637  1.00  0.00    -0.324 N
HETATM   32  C19 UNL     1      22.024  26.307  11.803  1.00  0.00     0.362 C
HETATM   33  O3  UNL     1      20.928  25.816  11.374  1.00  0.00    -0.238 OA
ATOM     34  H5  UNL     1      22.856  27.881  12.983  1.00  0.00     0.165 HD
BRANCH  32  35
HETATM   35  O4  UNL     1      23.190  25.673  11.439  1.00  0.00    -0.294 OA
BRANCH  35  36
HETATM   36  C20 UNL     1      24.058  26.191  10.438  1.00  0.00     0.061 C
HETATM   37  C21 UNL     1      23.640  27.569   9.982  1.00  0.00     0.046 C
HETATM   38  C22 UNL     1      24.158  25.299   9.246  1.00  0.00     0.046 C
HETATM   39  C23 UNL     1      25.434  26.286  11.082  1.00  0.00     0.046 C
ENDBRANCH  35  36
ENDBRANCH  32  35
ENDBRANCH  28  31
ENDBRANCH  25  28
ENDBRANCH  23  24
ENDBRANCH   1  23
BRANCH   1  40
HETATM   40  C24 UNL     1      20.744  32.384  14.610  1.00  0.00     0.243 C
HETATM   41  O5  UNL     1      20.886  32.637  13.377  1.00  0.00    -0.272 OA
HETATM   42  N6  UNL     1      19.465  32.308  15.115  1.00  0.00    -0.344 N
HETATM   43  C25 UNL     1      19.051  32.015  16.432  1.00  0.00     0.170 C
HETATM   44  C29 UNL     1      18.354  32.587  14.161  1.00  0.00     0.146 C
HETATM   45  C26 UNL     1      17.905  32.846  16.936  1.00  0.00     0.077 C
HETATM   46  N7  UNL     1      17.183  33.575  15.980  1.00  0.00    -0.394 N
HETATM   47  C27 UNL     1      15.815  33.142  15.798  1.00  0.00     0.148 C
HETATM   48  C28 UNL     1      17.768  33.870  14.728  1.00  0.00     0.141 C
ENDBRANCH   1  40
TORSDOF 14
ENDMDL