MODEL 3
REMARK VINA RESULT: -7.516865630      2.688      4.564
REMARK  10 active torsions:
REMARK  status: ('A' for Active; 'I' for Inactive)
REMARK    1  A    between atoms: C4_4  and  C5_5
REMARK    2  A    between atoms: C6_6  and  S1_7
REMARK    3  A    between atoms: S1_7  and  C7_8
REMARK    4  A    between atoms: C7_8  and  C8_9
REMARK    5  A    between atoms: C8_9  and  O1_10
REMARK    6  A    between atoms: C8_9  and  S2_12
REMARK    7  A    between atoms: S2_12  and  C9_13
REMARK    8  A    between atoms: C12_16  and  S3_17
REMARK    9  A    between atoms: C16_26  and  C17_27
REMARK   10  A    between atoms: C17_27  and  O6_28
ROOT
HETATM    1  C8  UNL     1      -8.651  28.669  79.553  1.00  0.00     0.194 C
ENDROOT
BRANCH   1   2
HETATM    2  C7  UNL     1      -8.348  27.616  78.485  1.00  0.00     0.121 C
BRANCH   2   3
HETATM    3  S1  UNL     1      -7.289  28.321  77.197  1.00  0.00    -0.138 SA
BRANCH   3   4
HETATM    4  C6  UNL     1      -5.749  28.834  77.915  1.00  0.00     0.043 C
HETATM    5  C5  UNL     1      -5.443  30.120  77.980  1.00  0.00     0.012 C
BRANCH   5   6
HETATM    6  C4  UNL     1      -4.132  30.487  78.597  1.00  0.00     0.148 C
HETATM    7  C3  UNL     1      -3.953  31.972  78.756  1.00  0.00     0.070 C
HETATM    8  C2  UNL     1      -3.134  32.198  79.976  1.00  0.00    -0.078 C
HETATM    9  C1  UNL     1      -1.992  32.850  80.001  1.00  0.00     0.015 C
HETATM   10  C16 UNL     1      -3.681  31.627  81.243  1.00  0.00     0.061 C
HETATM   11  C15 UNL     1      -4.638  30.525  80.812  1.00  0.00     0.179 C
HETATM   12  O5  UNL     1      -4.045  29.780  79.794  1.00  0.00    -0.381 OA
BRANCH  10  13
HETATM   13  C17 UNL     1      -4.413  32.756  81.945  1.00  0.00     0.175 C
BRANCH  13  14
HETATM   14  O6  UNL     1      -4.631  32.353  83.256  1.00  0.00    -0.400 OA
ATOM     15  H6  UNL     1      -3.881  32.634  83.766  1.00  0.00     0.209 HD
ENDBRANCH  13  14
ENDBRANCH  10  13
ENDBRANCH   5   6
ENDBRANCH   3   4
ENDBRANCH   2   3
ENDBRANCH   1   2
BRANCH   1  16
HETATM   16  O1  UNL     1      -9.764  29.376  79.108  1.00  0.00    -0.384 OA
ATOM     17  H1  UNL     1     -10.472  29.172  79.708  1.00  0.00     0.211 HD
ENDBRANCH   1  16
BRANCH   1  18
HETATM   18  S2  UNL     1      -9.168  27.842  81.103  1.00  0.00    -0.098 SA
BRANCH  18  19
HETATM   19  C9  UNL     1      -8.488  28.742  82.495  1.00  0.00     0.004 A
HETATM   20  C10 UNL     1      -7.120  28.771  82.676  1.00  0.00     0.020 A
HETATM   21  C11 UNL     1      -6.519  29.443  83.723  1.00  0.00     0.029 A
HETATM   22  C12 UNL     1      -7.317  30.120  84.639  1.00  0.00     0.104 A
HETATM   23  C13 UNL     1      -8.683  30.090  84.458  1.00  0.00     0.071 A
HETATM   24  N1  UNL     1      -9.519  30.780  85.386  1.00  0.00    -0.101 NA
HETATM   25  C14 UNL     1      -9.282  29.415  83.405  1.00  0.00     0.046 A
BRANCH  22  26
HETATM   26  S3  UNL     1      -6.671  30.993  85.987  1.00  0.00     0.139 S
HETATM   27  O2  UNL     1      -7.049  30.321  87.301  1.00  0.00    -0.591 OA
HETATM   28  O3  UNL     1      -5.153  30.899  85.925  1.00  0.00    -0.591 OA
HETATM   29  O4  UNL     1      -7.062  32.606  85.992  1.00  0.00    -0.591 OA
ENDBRANCH  22  26
ENDBRANCH  18  19
ENDBRANCH   1  18
TORSDOF 10
ENDMDL