MODEL 1
REMARK VINA RESULT: -7.801046061      0.000      0.000
REMARK  10 active torsions:
REMARK  status: ('A' for Active; 'I' for Inactive)
REMARK    1  A    between atoms: C4_4  and  C5_5
REMARK    2  A    between atoms: C5_5  and  O1_6
REMARK    3  A    between atoms: C8_10  and  C9_11
REMARK    4  A    between atoms: C9_11  and  C10_12
REMARK    5  A    between atoms: C15_19  and  O4_20
REMARK    6  A    between atoms: O4_20  and  C16_21
REMARK    7  A    between atoms: C16_21  and  C17_22
REMARK    8  A    between atoms: N1_24  and  C19_25
REMARK    9  A    between atoms: C19_25  and  C20_26
REMARK   10  A    between atoms: C20_26  and  C21_27
ROOT
HETATM    1  C1  UNL     1     -13.350  25.065  80.832  1.00  0.00     0.018 C
HETATM    2  C2  UNL     1     -12.396  23.899  81.040  1.00  0.00    -0.016 C
HETATM    3  C3  UNL     1     -12.553  23.442  82.455  1.00  0.00     0.024 C
HETATM    4  C4  UNL     1     -12.097  22.055  82.718  1.00  0.00    -0.014 C
HETATM    5  C6  UNL     1     -13.319  21.127  82.715  1.00  0.00     0.013 C
HETATM    6  C7  UNL     1     -13.619  20.984  81.241  1.00  0.00     0.011 C
HETATM    7  C8  UNL     1     -12.390  21.459  80.492  1.00  0.00    -0.026 C
HETATM    8  C11 UNL     1     -12.718  22.867  80.009  1.00  0.00     0.022 C
HETATM    9  C12 UNL     1     -11.341  21.443  81.529  1.00  0.00     0.005 C
HETATM   10  C13 UNL     1     -10.062  22.089  81.236  1.00  0.00     0.009 C
HETATM   11  C14 UNL     1     -10.052  23.282  80.366  1.00  0.00     0.033 C
HETATM   12  C15 UNL     1     -10.984  24.383  80.738  1.00  0.00     0.130 C
ENDROOT
BRANCH  12  13
HETATM   13  O4  UNL     1     -10.498  25.228  81.709  1.00  0.00    -0.379 OA
BRANCH  13  14
HETATM   14  C16 UNL     1      -9.173  25.605  81.480  1.00  0.00     0.228 C
BRANCH  14  15
HETATM   15  C17 UNL     1      -9.128  26.792  80.603  1.00  0.00     0.068 A
HETATM   16  C18 UNL     1      -8.446  26.878  79.407  1.00  0.00     0.140 A
HETATM   17  N1  UNL     1      -8.638  28.100  78.904  1.00  0.00    -0.287 N
HETATM   18  N2  UNL     1      -9.412  28.780  79.739  1.00  0.00    -0.241 N
HETATM   19  N3  UNL     1      -9.704  27.997  80.753  1.00  0.00    -0.287 N
ATOM     20  H2  UNL     1      -9.726  29.742  79.615  1.00  0.00     0.208 HD
ATOM     21  H3  UNL     1     -10.288  28.267  81.544  1.00  0.00     0.188 HD
BRANCH  17  22
HETATM   22  C19 UNL     1      -8.089  28.579  77.656  1.00  0.00     0.160 C
BRANCH  22  23
HETATM   23  C20 UNL     1      -7.316  27.468  76.993  1.00  0.00     0.135 C
BRANCH  23  24
HETATM   24  C21 UNL     1      -7.283  27.608  75.522  1.00  0.00     0.174 C
HETATM   25  O5  UNL     1      -8.303  27.478  74.833  1.00  0.00    -0.648 OA
HETATM   26  O6  UNL     1      -6.054  27.895  74.927  1.00  0.00    -0.648 OA
ENDBRANCH  23  24
ENDBRANCH  22  23
ENDBRANCH  17  22
ENDBRANCH  14  15
ENDBRANCH  13  14
ENDBRANCH  12  13
BRANCH   4  27
HETATM   27  C5  UNL     1     -11.320  21.915  83.997  1.00  0.00     0.173 C
BRANCH  27  28
HETATM   28  O1  UNL     1     -11.764  20.833  84.735  1.00  0.00    -0.400 OA
ATOM     29  H1  UNL     1     -11.332  20.794  85.580  1.00  0.00     0.209 HD
ENDBRANCH  27  28
ENDBRANCH   4  27
BRANCH   7  30
HETATM   30  C9  UNL     1     -12.175  20.534  79.330  1.00  0.00     0.123 C
BRANCH  30  31
HETATM   31  C10 UNL     1     -11.874  21.174  78.057  1.00  0.00     0.173 C
HETATM   32  O2  UNL     1     -10.682  21.376  77.722  1.00  0.00    -0.648 OA
HETATM   33  O3  UNL     1     -12.857  21.583  77.171  1.00  0.00    -0.648 OA
ENDBRANCH  30  31
ENDBRANCH   7  30
TORSDOF 10
ENDMDL