MODEL 4
REMARK VINA RESULT: -7.983906032      1.584      2.173
REMARK  10 active torsions:
REMARK  status: ('A' for Active; 'I' for Inactive)
REMARK    1  A    between atoms: C5_5  and  C6_6
REMARK    2  A    between atoms: C6_6  and  C7_11
REMARK    3  A    between atoms: N1_7  and  O1_9
REMARK    4  A    between atoms: C9_15  and  C10_16
REMARK    5  A    between atoms: C10_16  and  O4_17
REMARK    6  A    between atoms: C10_16  and  C18_25
REMARK    7  A    between atoms: O4_17  and  C11_18
REMARK    8  A    between atoms: C11_18  and  C12_19
REMARK    9  A    between atoms: C19_28  and  O7_29
REMARK   10  A    between atoms: C20_31  and  O8_32
ROOT
HETATM    1  C7  UNL     1      -7.915  27.259  80.345  1.00  0.00     0.215 C
HETATM    2  O2  UNL     1      -8.191  25.923  79.980  1.00  0.00    -0.306 OA
HETATM    3  C8  UNL     1      -9.427  25.326  80.214  1.00  0.00     0.269 C
HETATM    4  O3  UNL     1      -9.848  24.505  79.349  1.00  0.00    -0.265 OA
HETATM    5  C9  UNL     1     -10.154  25.678  81.427  1.00  0.00     0.156 C
HETATM    6  C19 UNL     1      -9.374  26.672  82.215  1.00  0.00     0.166 C
HETATM    7  C20 UNL     1      -8.993  27.807  81.250  1.00  0.00     0.183 C
ENDROOT
BRANCH   1   8
HETATM    8  C6  UNL     1      -7.778  28.042  79.071  1.00  0.00     0.074 C
HETATM    9  N1  UNL     1      -8.619  27.899  78.150  1.00  0.00    -0.270 N
ATOM     10  H1  UNL     1      -9.373  27.247  78.367  1.00  0.00     0.194 HD
BRANCH   8  11
HETATM   11  C5  UNL     1      -6.635  28.924  78.958  1.00  0.00    -0.009 A
HETATM   12  C4  UNL     1      -5.911  29.164  77.826  1.00  0.00     0.014 A
HETATM   13  C3  UNL     1      -4.840  30.067  77.844  1.00  0.00     0.007 A
HETATM   14  C2  UNL     1      -4.461  30.749  78.973  1.00  0.00    -0.062 A
HETATM   15  C1  UNL     1      -3.320  31.701  78.959  1.00  0.00     0.048 C
HETATM   16  C22 UNL     1      -5.179  30.519  80.122  1.00  0.00     0.007 A
HETATM   17  C21 UNL     1      -6.236  29.627  80.105  1.00  0.00     0.014 A
ENDBRANCH   8  11
BRANCH   9  18
HETATM   18  O1  UNL     1      -8.698  28.440  76.959  1.00  0.00    -0.290 OA
ATOM     19  H1  UNL     1      -8.111  28.401  76.212  1.00  0.00     0.244 HD
ENDBRANCH   9  18
ENDBRANCH   1   8
BRANCH   7  20
HETATM   20  O8  UNL     1     -10.107  28.244  80.590  1.00  0.00    -0.390 OA
ATOM     21  H8  UNL     1     -10.581  28.932  81.043  1.00  0.00     0.210 HD
ENDBRANCH   7  20
BRANCH   6  22
HETATM   22  O7  UNL     1      -8.219  26.142  82.778  1.00  0.00    -0.392 OA
ATOM     23  H7  UNL     1      -8.060  26.447  83.663  1.00  0.00     0.210 HD
ENDBRANCH   6  22
BRANCH   5  24
HETATM   24  C10 UNL     1     -10.654  24.520  82.248  1.00  0.00     0.238 C
BRANCH  24  25
HETATM   25  O4  UNL     1      -9.724  23.561  82.541  1.00  0.00    -0.370 OA
BRANCH  25  26
HETATM   26  C11 UNL     1     -10.337  22.368  82.824  1.00  0.00     0.207 C
BRANCH  26  27
HETATM   27  C12 UNL     1     -10.968  21.740  81.635  1.00  0.00    -0.035 A
HETATM   28  C13 UNL     1     -12.341  21.613  81.656  1.00  0.00     0.009 A
HETATM   29  C14 UNL     1     -13.019  21.032  80.581  1.00  0.00     0.001 A
HETATM   30  C15 UNL     1     -12.276  20.584  79.485  1.00  0.00     0.000 A
HETATM   31  C16 UNL     1     -10.915  20.717  79.481  1.00  0.00     0.001 A
HETATM   32  C17 UNL     1     -10.253  21.290  80.543  1.00  0.00     0.009 A
ENDBRANCH  26  27
ENDBRANCH  25  26
ENDBRANCH  24  25
BRANCH  24  33
HETATM   33  C18 UNL     1     -11.288  25.100  83.457  1.00  0.00     0.204 C
HETATM   34  O5  UNL     1     -12.464  25.498  83.381  1.00  0.00    -0.646 OA
HETATM   35  O6  UNL     1     -10.591  25.195  84.633  1.00  0.00    -0.646 OA
ENDBRANCH  24  33
ENDBRANCH   5  24
TORSDOF 10
ENDMDL