MODEL 4
REMARK VINA RESULT: -7.489487446      3.136      6.133
REMARK  11 active torsions:
REMARK  status: ('A' for Active; 'I' for Inactive)
REMARK    1  A    between atoms: C1_2  and  O1_3
REMARK    2  A    between atoms: C1_2  and  N2_5
REMARK    3  A    between atoms: N2_5  and  N3_6
REMARK    4  A    between atoms: C2_8  and  C3_9
REMARK    5  A    between atoms: C2_8  and  C9_20
REMARK    6  A    between atoms: C3_9  and  C4_11
REMARK    7  A    between atoms: C4_11  and  C5_12
REMARK    8  A    between atoms: C4_11  and  N4_17
REMARK    9  A    between atoms: C14_25  and  N5_26
REMARK   10  A    between atoms: N5_26  and  C15_28
REMARK   11  A    between atoms: C20_33  and  O6_34
ROOT
HETATM    1  N3  UNL     1      -9.968  24.353  84.065  1.00  0.00    -0.228 N
ATOM      2  H3  UNL     1     -10.146  24.913  84.899  1.00  0.00     0.202 HD
HETATM    3  C2  UNL     1      -9.112  24.771  83.114  1.00  0.00     0.121 C
ENDROOT
BRANCH   3   4
HETATM    4  C3  UNL     1      -8.504  26.054  83.431  1.00  0.00     0.210 C
HETATM    5  O2  UNL     1      -7.471  26.071  84.150  1.00  0.00    -0.288 OA
BRANCH   4   6
HETATM    6  C4  UNL     1      -8.956  27.376  82.963  1.00  0.00     0.260 C
BRANCH   6   7
HETATM    7  C5  UNL     1      -8.514  27.699  81.550  1.00  0.00     0.158 C
HETATM    8  C6  UNL     1      -8.390  29.119  81.183  1.00  0.00     0.037 C
HETATM    9  C7  UNL     1      -7.099  29.164  80.401  1.00  0.00     0.029 C
HETATM   10  C8  UNL     1      -6.393  27.920  80.883  1.00  0.00     0.168 C
HETATM   11  O3  UNL     1      -7.330  27.003  81.254  1.00  0.00    -0.383 OA
ENDBRANCH   6   7
BRANCH   6  12
HETATM   12  N4  UNL     1     -10.443  27.404  83.026  1.00  0.00    -0.140 N
HETATM   13  O4  UNL     1     -11.029  27.325  84.098  1.00  0.00    -0.536 OA
HETATM   14  O5  UNL     1     -11.149  27.542  81.878  1.00  0.00    -0.536 OA
ENDBRANCH   6  12
ENDBRANCH   4   6
ENDBRANCH   3   4
BRANCH   3  15
HETATM   15  C9  UNL     1      -8.831  23.906  81.998  1.00  0.00     0.023 A
HETATM   16  C10 UNL     1      -7.733  23.076  81.938  1.00  0.00     0.016 A
HETATM   17  C11 UNL     1      -7.372  22.472  80.743  1.00  0.00     0.001 A
HETATM   18  C12 UNL     1      -8.073  22.669  79.587  1.00  0.00     0.002 A
HETATM   19  C13 UNL     1      -9.201  23.511  79.610  1.00  0.00     0.030 A
HETATM   20  C14 UNL     1      -9.579  24.121  80.796  1.00  0.00     0.045 A
BRANCH  20  21
HETATM   21  N5  UNL     1     -10.801  24.780  80.987  1.00  0.00    -0.353 N
ATOM     22  H5  UNL     1     -10.731  25.738  81.334  1.00  0.00     0.166 HD
BRANCH  21  23
HETATM   23  C15 UNL     1     -12.102  24.318  80.772  1.00  0.00     0.066 A
HETATM   24  C16 UNL     1     -12.583  23.748  79.616  1.00  0.00     0.032 A
HETATM   25  C17 UNL     1     -13.931  23.411  79.417  1.00  0.00     0.002 A
HETATM   26  C18 UNL     1     -14.857  23.640  80.390  1.00  0.00     0.003 A
HETATM   27  C19 UNL     1     -14.422  24.203  81.546  1.00  0.00     0.039 A
HETATM   28  C20 UNL     1     -13.083  24.547  81.762  1.00  0.00     0.092 A
BRANCH  28  29
HETATM   29  O6  UNL     1     -12.751  25.111  82.960  1.00  0.00    -0.358 OA
ATOM     30  H6  UNL     1     -11.857  25.377  83.144  1.00  0.00     0.217 HD
ENDBRANCH  28  29
ENDBRANCH  21  23
ENDBRANCH  20  21
ENDBRANCH   3  15
BRANCH   1  31
HETATM   31  N2  UNL     1     -10.605  23.122  83.869  1.00  0.00    -0.283 NA
BRANCH  31  32
HETATM   32  C1  UNL     1     -11.194  21.987  83.687  1.00  0.00     0.326 C
HETATM   33  N1  UNL     1     -11.805  21.192  84.753  1.00  0.00    -0.040 NA
BRANCH  32  34
HETATM   34  O1  UNL     1     -11.352  21.361  82.552  1.00  0.00    -0.323 OA
ATOM     35  H1  UNL     1     -10.547  20.904  82.338  1.00  0.00     0.221 HD
ENDBRANCH  32  34
ENDBRANCH  31  32
ENDBRANCH   1  31
TORSDOF 11
ENDMDL