MODEL 3
REMARK VINA RESULT: -6.601140129      1.936      2.228
REMARK  13 active torsions:
REMARK  status: ('A' for Active; 'I' for Inactive)
REMARK    1  A    between atoms: C2_2  and  O2_4
REMARK    2  A    between atoms: O2_4  and  C3_5
REMARK    3  A    between atoms: C5_7  and  O3_8
REMARK    4  A    between atoms: C10_14  and  C12_16
REMARK    5  A    between atoms: C12_16  and  O4_17
REMARK    6  A    between atoms: C14_20  and  C16_22
REMARK    7  A    between atoms: C17_23  and  C18_24
REMARK    8  A    between atoms: C18_24  and  C19_25
REMARK    9  A    between atoms: C19_25  and  C20_26
REMARK   10  A    between atoms: C20_26  and  C21_27
REMARK   11  A    between atoms: C21_27  and  O5_28
REMARK   12  A    between atoms: C21_27  and  O6_30
REMARK   13  A    between atoms: O6_30  and  C22_31
ROOT
HETATM    1  C3  UNL     1      -8.439  24.301  80.559  1.00  0.00     0.146 C
HETATM    2  C4  UNL     1      -9.586  24.187  79.618  1.00  0.00     0.065 C
HETATM    3  C5  UNL     1     -10.936  24.044  80.249  1.00  0.00     0.125 C
HETATM    4  C6  UNL     1     -11.008  24.505  81.649  1.00  0.00     0.020 C
HETATM    5  C7  UNL     1     -10.946  23.487  82.711  1.00  0.00     0.007 C
HETATM    6  C8  UNL     1     -11.145  24.190  84.037  1.00  0.00     0.001 C
HETATM    7  C9  UNL     1     -11.501  25.619  83.903  1.00  0.00     0.012 C
HETATM    8  C10 UNL     1     -10.564  26.429  82.985  1.00  0.00    -0.018 C
HETATM    9  C11 UNL     1      -9.679  27.173  83.920  1.00  0.00     0.018 C
HETATM   10  C13 UNL     1     -10.051  25.696  81.853  1.00  0.00     0.016 C
HETATM   11  C14 UNL     1      -8.623  25.404  81.621  1.00  0.00     0.005 C
HETATM   12  C15 UNL     1      -7.768  25.016  82.766  1.00  0.00     0.022 C
ENDROOT
BRANCH  11  13
HETATM   13  C16 UNL     1      -8.011  26.675  81.104  1.00  0.00    -0.019 C
HETATM   14  C17 UNL     1      -8.174  27.165  79.902  1.00  0.00    -0.030 C
BRANCH  14  15
HETATM   15  C18 UNL     1      -7.550  28.428  79.430  1.00  0.00     0.027 C
BRANCH  15  16
HETATM   16  C19 UNL     1      -6.523  28.845  80.462  1.00  0.00     0.009 C
BRANCH  16  17
HETATM   17  C20 UNL     1      -5.143  28.952  79.878  1.00  0.00     0.061 C
BRANCH  17  18
HETATM   18  C21 UNL     1      -5.119  30.259  79.074  1.00  0.00     0.267 C
BRANCH  18  19
HETATM   19  O5  UNL     1      -4.299  31.171  79.707  1.00  0.00    -0.371 OA
ATOM     20  H5  UNL     1      -3.773  30.722  80.359  1.00  0.00     0.212 HD
ENDBRANCH  18  19
BRANCH  18  21
HETATM   21  O6  UNL     1      -4.632  30.002  77.760  1.00  0.00    -0.275 OA
BRANCH  21  22
HETATM   22  C22 UNL     1      -4.304  31.034  76.890  1.00  0.00     0.375 C
HETATM   23  N1  UNL     1      -4.994  31.262  75.666  1.00  0.00    -0.032 NA
HETATM   24  O7  UNL     1      -3.358  31.784  77.217  1.00  0.00    -0.242 OA
ENDBRANCH  21  22
ENDBRANCH  18  21
ENDBRANCH  17  18
ENDBRANCH  16  17
ENDBRANCH  15  16
ENDBRANCH  14  15
ENDBRANCH  11  13
BRANCH   1  25
HETATM   25  O2  UNL     1      -7.858  23.149  81.010  1.00  0.00    -0.315 OA
BRANCH  25  26
HETATM   26  C2  UNL     1      -7.775  21.936  80.438  1.00  0.00     0.255 C
HETATM   27  C1  UNL     1      -8.698  20.817  80.635  1.00  0.00     0.126 C
HETATM   28  O1  UNL     1      -6.790  21.862  79.692  1.00  0.00    -0.266 OA
ENDBRANCH  25  26
ENDBRANCH   1  25
BRANCH   8  29
HETATM   29  C12 UNL     1     -11.557  27.527  82.503  1.00  0.00     0.173 C
BRANCH  29  30
HETATM   30  O4  UNL     1     -11.202  27.952  81.246  1.00  0.00    -0.400 OA
ATOM     31  H4  UNL     1     -11.830  27.629  80.610  1.00  0.00     0.209 HD
ENDBRANCH  29  30
ENDBRANCH   8  29
BRANCH   3  32
HETATM   32  O3  UNL     1     -11.389  22.701  80.216  1.00  0.00    -0.395 OA
ATOM     33  H3  UNL     1     -11.802  22.490  79.387  1.00  0.00     0.210 HD
ENDBRANCH   3  32
TORSDOF 13
ENDMDL