MODEL 5
REMARK VINA RESULT: -7.591635101      2.311      4.262
REMARK  11 active torsions:
REMARK  status: ('A' for Active; 'I' for Inactive)
REMARK    1  A    between atoms: O1_2  and  C2_3
REMARK    2  A    between atoms: C2_3  and  C4_5
REMARK    3  A    between atoms: C4_5  and  O2_6
REMARK    4  A    between atoms: O2_6  and  C5_7
REMARK    5  A    between atoms: C5_7  and  C6_8
REMARK    6  A    between atoms: C8_15  and  C9_16
REMARK    7  A    between atoms: C13_20  and  O4_21
REMARK    8  A    between atoms: C14_23  and  O5_24
REMARK    9  A    between atoms: C15_26  and  C16_27
REMARK   10  A    between atoms: C16_27  and  O7_29
REMARK   11  A    between atoms: O7_29  and  C17_30
ROOT
HETATM    1  C6  UNL     1      -6.455  28.548  81.656  1.00  0.00     0.126 C
HETATM    2  N1  UNL     1      -7.403  29.432  82.226  1.00  0.00    -0.336 N
ATOM      3  H1  UNL     1      -7.217  30.429  82.327  1.00  0.00     0.164 HD
HETATM    4  C7  UNL     1      -8.647  28.843  82.657  1.00  0.00     0.317 C
HETATM    5  O3  UNL     1      -9.344  29.428  83.511  1.00  0.00    -0.247 OA
HETATM    6  N2  UNL     1      -9.071  27.587  82.097  1.00  0.00    -0.333 N
ATOM      7  H2  UNL     1     -10.054  27.320  82.064  1.00  0.00     0.165 HD
HETATM    8  C8  UNL     1      -8.032  26.724  81.584  1.00  0.00     0.138 C
HETATM    9  C15 UNL     1      -7.161  27.571  80.687  1.00  0.00     0.138 C
ENDROOT
BRANCH   8  10
HETATM   10  C9  UNL     1      -8.475  25.465  81.022  1.00  0.00     0.001 A
HETATM   11  C10 UNL     1      -9.541  25.310  80.193  1.00  0.00     0.012 A
HETATM   12  C11 UNL     1      -9.927  24.090  79.671  1.00  0.00     0.003 A
HETATM   13  C12 UNL     1      -9.219  22.973  79.989  1.00  0.00     0.039 A
HETATM   14  C13 UNL     1      -8.123  23.081  80.829  1.00  0.00     0.099 A
HETATM   15  C14 UNL     1      -7.753  24.312  81.341  1.00  0.00     0.107 A
BRANCH  14  16
HETATM   16  O4  UNL     1      -7.458  21.894  81.100  1.00  0.00    -0.358 OA
ATOM     17  H4  UNL     1      -6.818  21.625  80.451  1.00  0.00     0.217 HD
ENDBRANCH  14  16
BRANCH  15  18
HETATM   18  O5  UNL     1      -6.656  24.363  82.171  1.00  0.00    -0.357 OA
ATOM     19  H5  UNL     1      -5.817  24.007  81.901  1.00  0.00     0.217 HD
ENDBRANCH  15  18
ENDBRANCH   8  10
BRANCH   9  20
HETATM   20  C16 UNL     1      -7.997  28.330  79.729  1.00  0.00     0.267 C
HETATM   21  O6  UNL     1      -8.407  29.464  80.108  1.00  0.00    -0.265 OA
BRANCH  20  22
HETATM   22  O7  UNL     1      -8.378  27.952  78.483  1.00  0.00    -0.316 OA
BRANCH  22  23
HETATM   23  C17 UNL     1      -7.795  28.233  77.276  1.00  0.00     0.132 C
HETATM   24  C18 UNL     1      -7.414  27.062  76.427  1.00  0.00     0.032 C
HETATM   25  C19 UNL     1      -6.712  27.779  75.287  1.00  0.00     0.002 C
HETATM   26  C20 UNL     1      -5.773  28.677  76.065  1.00  0.00     0.002 C
HETATM   27  C21 UNL     1      -6.505  29.016  77.348  1.00  0.00     0.032 C
ENDBRANCH  22  23
ENDBRANCH  20  22
ENDBRANCH   9  20
BRANCH   1  28
HETATM   28  C5  UNL     1      -5.194  29.094  81.122  1.00  0.00     0.193 C
BRANCH  28  29
HETATM   29  O2  UNL     1      -5.202  30.307  80.526  1.00  0.00    -0.387 OA
BRANCH  29  30
HETATM   30  C4  UNL     1      -4.390  31.298  80.920  1.00  0.00     0.199 C
BRANCH  30  31
HETATM   31  C2  UNL     1      -3.777  31.982  79.681  1.00  0.00     0.140 C
HETATM   32  C3  UNL     1      -2.414  32.523  80.008  1.00  0.00     0.041 C
BRANCH  31  33
HETATM   33  O1  UNL     1      -3.761  31.029  78.689  1.00  0.00    -0.389 OA
HETATM   34  C1  UNL     1      -3.770  31.606  77.407  1.00  0.00     0.202 C
ENDBRANCH  31  33
ENDBRANCH  30  31
ENDBRANCH  29  30
ENDBRANCH  28  29
ENDBRANCH   1  28
TORSDOF 11
ENDMDL