MODEL 4
REMARK VINA RESULT: -7.684248835      1.665      2.265
REMARK  12 active torsions:
REMARK  status: ('A' for Active; 'I' for Inactive)
REMARK    1  A    between atoms: C2_2  and  C4_4
REMARK    2  A    between atoms: C4_4  and  O1_5
REMARK    3  A    between atoms: O1_5  and  C5_6
REMARK    4  A    between atoms: C5_6  and  C7_11
REMARK    5  A    between atoms: C10_15  and  O3_16
REMARK    6  A    between atoms: C10_15  and  C11_18
REMARK    7  A    between atoms: C11_18  and  C12_19
REMARK    8  A    between atoms: C12_19  and  C13_20
REMARK    9  A    between atoms: C15_24  and  C16_25
REMARK   10  A    between atoms: C16_25  and  O6_26
REMARK   11  A    between atoms: C16_25  and  C17_28
REMARK   12  A    between atoms: C20_31  and  O7_32
ROOT
HETATM    1  C5  UNL     1      -8.037  28.231  82.794  1.00  0.00     0.138 C
HETATM    2  N1  UNL     1      -7.393  29.376  82.932  1.00  0.00    -0.277 N
ATOM      3  H1  UNL     1      -7.816  30.104  83.509  1.00  0.00     0.180 HD
HETATM    4  C6  UNL     1      -6.196  29.633  82.346  1.00  0.00     0.183 C
HETATM    5  N2  UNL     1      -5.191  29.835  81.875  1.00  0.00    -0.172 NA
ENDROOT
BRANCH   1   6
HETATM    6  O1  UNL     1      -9.194  28.253  83.485  1.00  0.00    -0.338 OA
BRANCH   6   7
HETATM    7  C4  UNL     1     -10.462  27.873  83.288  1.00  0.00     0.180 C
BRANCH   7   8
HETATM    8  C2  UNL     1     -11.027  26.574  83.719  1.00  0.00     0.002 C
HETATM    9  C1  UNL     1     -11.539  26.701  85.188  1.00  0.00     0.011 C
HETATM   10  C3  UNL     1     -12.317  26.273  82.939  1.00  0.00     0.011 C
ENDBRANCH   7   8
ENDBRANCH   6   7
ENDBRANCH   1   6
BRANCH   1  11
HETATM   11  C7  UNL     1      -7.414  27.212  81.966  1.00  0.00     0.138 C
HETATM   12  C8  UNL     1      -7.471  25.862  82.589  1.00  0.00     0.142 C
HETATM   13  O2  UNL     1      -7.587  25.639  83.773  1.00  0.00    -0.297 OA
HETATM   14  C9  UNL     1      -7.369  24.686  81.612  1.00  0.00     0.117 C
HETATM   15  C10 UNL     1      -8.624  24.662  80.854  1.00  0.00     0.065 C
HETATM   16  C14 UNL     1      -9.131  26.096  80.548  1.00  0.00     0.047 C
HETATM   17  C15 UNL     1      -7.970  27.061  80.570  1.00  0.00     0.041 C
BRANCH  15  18
HETATM   18  O3  UNL     1      -9.621  24.128  81.758  1.00  0.00    -0.389 OA
ATOM     19  H3  UNL     1     -10.426  24.081  81.257  1.00  0.00     0.210 HD
ENDBRANCH  15  18
BRANCH  15  20
HETATM   20  C11 UNL     1      -8.655  23.841  79.627  1.00  0.00     0.048 C
BRANCH  20  21
HETATM   21  C12 UNL     1      -8.992  22.412  79.678  1.00  0.00     0.116 C
BRANCH  21  22
HETATM   22  C13 UNL     1     -10.285  21.947  79.229  1.00  0.00     0.172 C
HETATM   23  O4  UNL     1     -10.546  21.511  78.110  1.00  0.00    -0.648 OA
HETATM   24  O5  UNL     1     -11.342  22.006  80.184  1.00  0.00    -0.648 OA
ENDBRANCH  21  22
ENDBRANCH  20  21
ENDBRANCH  15  20
BRANCH  17  25
HETATM   25  C16 UNL     1      -8.245  28.348  79.876  1.00  0.00     0.156 C
BRANCH  25  26
HETATM   26  O6  UNL     1      -9.595  28.635  79.782  1.00  0.00    -0.390 OA
ATOM     27  H6  UNL     1     -10.143  27.995  80.222  1.00  0.00     0.210 HD
ENDBRANCH  25  26
BRANCH  25  28
HETATM   28  C17 UNL     1      -7.527  28.522  78.591  1.00  0.00    -0.029 A
HETATM   29  C18 UNL     1      -6.354  29.249  78.581  1.00  0.00     0.012 A
HETATM   30  C19 UNL     1      -5.647  29.455  77.418  1.00  0.00     0.037 A
HETATM   31  C20 UNL     1      -6.080  28.945  76.215  1.00  0.00     0.065 A
HETATM   32  C21 UNL     1      -7.263  28.219  76.254  1.00  0.00     0.037 A
HETATM   33  C22 UNL     1      -7.991  27.994  77.388  1.00  0.00     0.012 A
BRANCH  31  34
HETATM   34  O7  UNL     1      -5.381  29.142  75.028  1.00  0.00    -0.361 OA
ATOM     35  H7  UNL     1      -4.989  29.977  74.801  1.00  0.00     0.217 HD
ENDBRANCH  31  34
ENDBRANCH  25  28
ENDBRANCH  17  25
ENDBRANCH   1  11
TORSDOF 12
ENDMDL