MODEL 3
REMARK VINA RESULT: -7.490542000      2.732      6.250
REMARK  10 active torsions:
REMARK  status: ('A' for Active; 'I' for Inactive)
REMARK    1  A    between atoms: C1_2  and  S1_4
REMARK    2  A    between atoms: S1_4  and  C2_5
REMARK    3  A    between atoms: C2_5  and  C3_6
REMARK    4  A    between atoms: C3_6  and  C4_7
REMARK    5  A    between atoms: C4_7  and  C5_8
REMARK    6  A    between atoms: C5_8  and  C6_9
REMARK    7  A    between atoms: C6_9  and  N2_10
REMARK    8  A    between atoms: N5_24  and  C15_25
REMARK    9  A    between atoms: C15_25  and  C16_26
REMARK   10  A    between atoms: C16_26  and  O2_27
ROOT
HETATM    1  N2  UNL     1      -7.929  28.736  80.933  1.00  0.00    -0.110 NA
HETATM    2  N3  UNL     1      -8.735  28.735  82.071  1.00  0.00    -0.330 N
ATOM      3  H3  UNL     1      -9.682  29.114  82.069  1.00  0.00     0.176 HD
HETATM    4  C7  UNL     1      -8.142  28.169  83.237  1.00  0.00     0.163 C
HETATM    5  C8  UNL     1      -8.552  28.959  84.482  1.00  0.00     0.253 C
HETATM    6  N4  UNL     1      -7.370  29.457  85.124  1.00  0.00    -0.074 N
ATOM      7  H41 UNL     1      -6.540  28.996  84.750  1.00  0.00     0.277 HD
ATOM      8  H42 UNL     1      -7.328  29.134  86.091  1.00  0.00     0.277 HD
HETATM    9  C9  UNL     1      -7.218  30.880  85.067  1.00  0.00     0.232 C
HETATM   10  C10 UNL     1      -5.802  31.265  85.427  1.00  0.00     0.027 C
HETATM   11  C11 UNL     1      -5.503  32.612  84.793  1.00  0.00     0.002 C
HETATM   12  C12 UNL     1      -3.999  32.755  84.546  1.00  0.00     0.002 C
HETATM   13  C13 UNL     1      -3.728  33.412  83.206  1.00  0.00     0.030 C
HETATM   14  C14 UNL     1      -2.776  32.522  82.411  1.00  0.00     0.272 C
HETATM   15  N5  UNL     1      -3.023  32.563  81.004  1.00  0.00     0.090 N
HETATM   16  C17 UNL     1      -3.674  31.353  80.548  1.00  0.00     0.272 C
HETATM   17  C18 UNL     1      -5.175  31.465  80.512  1.00  0.00     0.032 C
HETATM   18  C19 UNL     1      -5.782  30.418  81.455  1.00  0.00     0.030 C
HETATM   19  C20 UNL     1      -5.656  29.035  80.897  1.00  0.00     0.196 C
HETATM   20  O3  UNL     1      -6.711  28.201  81.167  1.00  0.00    -0.284 OA
ENDROOT
BRANCH   1  21
HETATM   21  C6  UNL     1      -8.670  27.875  79.965  1.00  0.00     0.145 C
BRANCH  21  22
HETATM   22  C5  UNL     1      -8.492  28.378  78.591  1.00  0.00     0.019 C
BRANCH  22  23
HETATM   23  C4  UNL     1      -7.545  27.755  77.682  1.00  0.00     0.002 C
BRANCH  23  24
HETATM   24  C3  UNL     1      -7.359  28.141  76.285  1.00  0.00     0.011 C
BRANCH  24  25
HETATM   25  C2  UNL     1      -6.016  28.594  75.821  1.00  0.00     0.084 C
BRANCH  25  26
HETATM   26  S1  UNL     1      -5.207  29.599  77.135  1.00  0.00    -0.072 SA
BRANCH  26  27
HETATM   27  C1  UNL     1      -4.584  31.084  76.397  1.00  0.00     0.292 C
HETATM   28  N1  UNL     1      -3.391  31.670  76.892  1.00  0.00    -0.051 NA
HETATM   29  O1  UNL     1      -5.182  31.645  75.426  1.00  0.00    -0.264 OA
ENDBRANCH  26  27
ENDBRANCH  25  26
ENDBRANCH  24  25
ENDBRANCH  23  24
ENDBRANCH  22  23
ENDBRANCH  21  22
ENDBRANCH   1  21
BRANCH  15  30
HETATM   30  C15 UNL     1      -1.779  32.703  80.284  1.00  0.00     0.298 C
BRANCH  30  31
HETATM   31  C16 UNL     1      -1.049  33.980  80.649  1.00  0.00     0.194 C
BRANCH  31  32
HETATM   32  O2  UNL     1      -1.414  35.029  79.809  1.00  0.00    -0.399 OA
ATOM     33  H2  UNL     1      -0.652  35.433  79.411  1.00  0.00     0.209 HD
ENDBRANCH  31  32
ENDBRANCH  30  31
ENDBRANCH  15  30
TORSDOF 10
ENDMDL