MODEL 2
REMARK VINA RESULT: -7.449967719      5.420      9.038
REMARK  11 active torsions:
REMARK  status: ('A' for Active; 'I' for Inactive)
REMARK    1  A    between atoms: N1_1  and  C1_4
REMARK    2  A    between atoms: C2_9  and  S1_10
REMARK    3  A    between atoms: S1_10  and  C3_11
REMARK    4  A    between atoms: C3_11  and  C4_12
REMARK    5  A    between atoms: C3_11  and  C9_21
REMARK    6  A    between atoms: C4_12  and  C5_13
REMARK    7  A    between atoms: C5_13  and  C6_14
REMARK    8  A    between atoms: C6_14  and  C7_15
REMARK    9  A    between atoms: C7_15  and  C8_16
REMARK   10  A    between atoms: C8_16  and  N4_17
REMARK       I    between atoms: C9_21  and  N5_23
REMARK   11  A    between atoms: N5_23  and  C10_25
ROOT
HETATM    1  C3  UNL     1      -9.032  24.512  81.309  1.00  0.00     0.147 C
ENDROOT
BRANCH   1   2
HETATM    2  S1  UNL     1     -10.453  24.338  82.429  1.00  0.00    -0.089 SA
BRANCH   2   3
HETATM    3  C2  UNL     1     -11.965  24.468  81.477  1.00  0.00     0.130 A
HETATM    4  N3  UNL     1     -12.534  25.584  81.058  1.00  0.00    -0.286 N
HETATM    5  N2  UNL     1     -13.610  25.547  80.389  1.00  0.00    -0.279 N
ATOM      6  H3  UNL     1     -12.104  26.484  81.275  1.00  0.00     0.188 HD
HETATM    7  C1  UNL     1     -14.157  24.360  80.114  1.00  0.00     0.159 A
ATOM      8  H2  UNL     1     -14.050  26.408  80.065  1.00  0.00     0.189 HD
HETATM    9  S3  UNL     1     -13.042  23.291  80.871  1.00  0.00    -0.027 SA
BRANCH   7  10
HETATM   10  N1  UNL     1     -15.258  24.116  79.440  1.00  0.00    -0.379 N
ATOM     11  H12 UNL     1     -16.214  23.956  79.759  1.00  0.00     0.158 HD
ATOM     12  H11 UNL     1     -15.369  24.039  78.428  1.00  0.00     0.158 HD
ENDBRANCH   7  10
ENDBRANCH   2   3
ENDBRANCH   1   2
BRANCH   1  13
HETATM   13  C4  UNL     1      -9.289  23.970  79.957  1.00  0.00     0.025 C
BRANCH  13  14
HETATM   14  C5  UNL     1      -8.691  22.600  79.803  1.00  0.00     0.002 C
BRANCH  14  15
HETATM   15  C6  UNL     1      -9.776  21.531  79.689  1.00  0.00     0.002 C
BRANCH  15  16
HETATM   16  C7  UNL     1     -10.653  21.879  78.496  1.00  0.00     0.027 C
BRANCH  16  17
HETATM   17  C8  UNL     1     -11.447  20.668  78.038  1.00  0.00     0.229 C
BRANCH  17  18
HETATM   18  N4  UNL     1     -11.520  20.678  76.595  1.00  0.00    -0.079 N
ATOM     19  H43 UNL     1     -10.899  21.372  76.177  1.00  0.00     0.274 HD
ATOM     20  H42 UNL     1     -11.102  19.846  76.178  1.00  0.00     0.274 HD
ATOM     21  H41 UNL     1     -12.493  20.807  76.315  1.00  0.00     0.274 HD
ENDBRANCH  17  18
ENDBRANCH  16  17
ENDBRANCH  15  16
ENDBRANCH  14  15
ENDBRANCH  13  14
ENDBRANCH   1  13
BRANCH   1  22
HETATM   22  C9  UNL     1      -8.777  25.975  81.229  1.00  0.00     0.250 C
HETATM   23  O1  UNL     1      -8.176  26.543  82.165  1.00  0.00    -0.271 OA
HETATM   24  N5  UNL     1      -9.181  26.769  80.136  1.00  0.00    -0.158 N
ATOM     25  H5  UNL     1     -10.182  26.882  79.977  1.00  0.00     0.187 HD
BRANCH  24  26
HETATM   26  C10 UNL     1      -8.365  27.371  79.314  1.00  0.00     0.688 A
HETATM   27  N6  UNL     1      -8.401  27.085  78.019  1.00  0.00    -0.194 N
HETATM   28  C11 UNL     1      -7.540  27.715  77.144  1.00  0.00     0.049 A
ATOM     29  H6  UNL     1      -9.066  26.396  77.669  1.00  0.00     0.184 HD
HETATM   30  C12 UNL     1      -6.675  28.626  77.689  1.00  0.00     0.092 A
HETATM   31  C15 UNL     1      -7.451  27.539  75.685  1.00  0.00     0.069 C
HETATM   32  C13 UNL     1      -6.642  28.918  79.018  1.00  0.00     0.278 A
HETATM   33  S2  UNL     1      -5.682  29.239  76.321  1.00  0.00    -0.122 SA
HETATM   34  O2  UNL     1      -5.831  29.761  79.472  1.00  0.00    -0.266 OA
HETATM   35  N7  UNL     1      -7.516  28.264  79.839  1.00  0.00    -0.155 N
ATOM     36  H7  UNL     1      -7.522  28.454  80.841  1.00  0.00     0.187 HD
HETATM   37  C14 UNL     1      -6.036  27.787  75.222  1.00  0.00     0.086 C
ENDBRANCH  24  26
ENDBRANCH   1  22
TORSDOF 11
ENDMDL