MODEL 2
REMARK VINA RESULT: -8.826684111      3.598      5.364
REMARK  10 active torsions:
REMARK  status: ('A' for Active; 'I' for Inactive)
REMARK    1  A    between atoms: C4_4  and  O1_5
REMARK    2  A    between atoms: C10_13  and  O3_14
REMARK    3  A    between atoms: O3_14  and  C11_15
REMARK    4  A    between atoms: C11_15  and  C12_16
REMARK    5  A    between atoms: C11_15  and  C21_31
REMARK    6  A    between atoms: C12_16  and  C13_17
REMARK    7  A    between atoms: C13_17  and  O4_18
REMARK    8  A    between atoms: O4_18  and  C14_19
REMARK    9  A    between atoms: C19_24  and  C20_25
REMARK   10  A    between atoms: N2_27  and  O5_29
ROOT
HETATM    1  C11 UNL     1      -6.688  29.878  83.914  1.00  0.00     0.227 C
ENDROOT
BRANCH   1   2
HETATM    2  O3  UNL     1      -7.923  29.428  83.524  1.00  0.00    -0.345 OA
BRANCH   2   3
HETATM    3  C10 UNL     1      -8.177  28.114  83.842  1.00  0.00     0.265 C
HETATM    4  C2  UNL     1      -9.534  27.853  84.396  1.00  0.00     0.040 C
HETATM    5  C1  UNL     1      -9.498  27.462  85.867  1.00  0.00     0.015 C
HETATM    6  C3  UNL     1     -10.319  26.809  83.670  1.00  0.00     0.049 C
HETATM    7  C4  UNL     1      -9.511  25.698  83.101  1.00  0.00     0.084 C
HETATM    8  C5  UNL     1      -9.628  24.400  83.858  1.00  0.00     0.040 C
HETATM    9  C9  UNL     1      -8.020  26.028  83.046  1.00  0.00     0.159 C
HETATM   10  C6  UNL     1      -8.939  23.334  83.066  1.00  0.00     0.003 C
HETATM   11  C7  UNL     1      -7.556  23.677  82.635  1.00  0.00     0.003 C
HETATM   12  C8  UNL     1      -7.422  25.063  82.056  1.00  0.00     0.035 C
HETATM   13  O2  UNL     1      -7.892  27.345  82.698  1.00  0.00    -0.353 OA
BRANCH   7  14
HETATM   14  O1  UNL     1      -9.903  25.423  81.774  1.00  0.00    -0.387 OA
ATOM     15  H1  UNL     1      -9.339  24.764  81.386  1.00  0.00     0.210 HD
ENDBRANCH   7  14
ENDBRANCH   2   3
ENDBRANCH   1   2
BRANCH   1  16
HETATM   16  C12 UNL     1      -5.919  30.535  82.788  1.00  0.00     0.070 C
BRANCH  16  17
HETATM   17  C13 UNL     1      -5.571  29.587  81.695  1.00  0.00     0.178 C
BRANCH  17  18
HETATM   18  O4  UNL     1      -6.427  29.514  80.617  1.00  0.00    -0.350 OA
BRANCH  18  19
HETATM   19  C14 UNL     1      -6.207  29.402  79.275  1.00  0.00     0.082 A
HETATM   20  C15 UNL     1      -5.143  29.960  78.584  1.00  0.00     0.038 A
HETATM   21  C16 UNL     1      -5.048  29.764  77.216  1.00  0.00     0.003 A
HETATM   22  C17 UNL     1      -5.995  29.026  76.540  1.00  0.00     0.001 A
HETATM   23  C18 UNL     1      -7.054  28.472  77.230  1.00  0.00     0.018 A
HETATM   24  C19 UNL     1      -7.173  28.649  78.584  1.00  0.00     0.040 A
BRANCH  24  25
HETATM   25  C20 UNL     1      -8.291  28.066  79.316  1.00  0.00     0.148 C
HETATM   26  N1  UNL     1      -8.501  26.672  79.254  1.00  0.00    -0.080 NA
HETATM   27  N2  UNL     1      -9.083  28.787  80.011  1.00  0.00    -0.255 N
ATOM     28  H2  UNL     1      -8.935  29.795  80.058  1.00  0.00     0.195 HD
BRANCH  27  29
HETATM   29  O5  UNL     1     -10.130  28.225  80.694  1.00  0.00    -0.288 OA
ATOM     30  H5  UNL     1     -11.021  28.305  80.375  1.00  0.00     0.244 HD
ENDBRANCH  27  29
ENDBRANCH  24  25
ENDBRANCH  18  19
ENDBRANCH  17  18
ENDBRANCH  16  17
ENDBRANCH   1  16
BRANCH   1  31
HETATM   31  C21 UNL     1      -6.869  30.867  85.008  1.00  0.00     0.203 C
HETATM   32  O6  UNL     1      -5.902  31.218  85.751  1.00  0.00    -0.646 OA
HETATM   33  O7  UNL     1      -8.101  31.443  85.256  1.00  0.00    -0.646 OA
ENDBRANCH   1  31
TORSDOF 10
ENDMDL