MODEL 5
REMARK VINA RESULT: -7.837302098      4.999      8.797
REMARK  8 active torsions:
REMARK  status: ('A' for Active; 'I' for Inactive)
REMARK    1  A    between atoms: C2_2  and  C3_3
REMARK    2  A    between atoms: C2_2  and  N1_6
REMARK    3  A    between atoms: C3_3  and  O1_4
REMARK    4  A    between atoms: N1_6  and  C5_8
REMARK    5  A    between atoms: C8_11  and  N2_12
REMARK    6  A    between atoms: C10_16  and  N4_17
REMARK    7  A    between atoms: N4_17  and  C11_19
REMARK    8  A    between atoms: C16_25  and  C17_26
ROOT
HETATM    1  C5  UNL     1      -5.354   3.745  15.533  1.00  0.00     0.224 C
HETATM    2  C6  UNL     1      -3.938   4.239  15.459  1.00  0.00     0.038 C
HETATM    3  C7  UNL     1      -3.722   5.244  14.370  1.00  0.00     0.032 C
HETATM    4  C8  UNL     1      -4.818   5.227  13.331  1.00  0.00     0.144 C
HETATM    5  C21 UNL     1      -5.271   3.831  13.034  1.00  0.00     0.121 C
HETATM    6  C22 UNL     1      -4.112   3.077  12.552  1.00  0.00     0.066 C
HETATM    7  N6  UNL     1      -3.196   2.472  12.160  1.00  0.00    -0.197 NA
HETATM    8  C23 UNL     1      -5.892   3.192  14.259  1.00  0.00     0.057 C
ENDROOT
BRANCH   4   9
HETATM    9  N2  UNL     1      -4.357   5.831  12.086  1.00  0.00    -0.227 N
HETATM   10  N3  UNL     1      -3.149   5.808  11.558  1.00  0.00    -0.291 N
HETATM   11  C9  UNL     1      -3.100   6.472  10.400  1.00  0.00     0.158 A
ATOM     12  H3  UNL     1      -2.348   5.339  11.983  1.00  0.00     0.188 HD
HETATM   13  C10 UNL     1      -4.398   6.954  10.187  1.00  0.00     0.139 A
HETATM   14  N5  UNL     1      -5.117   6.538  11.234  1.00  0.00    -0.267 N
ATOM     15  H5  UNL     1      -6.110   6.731  11.368  1.00  0.00     0.190 HD
BRANCH  13  16
HETATM   16  N4  UNL     1      -4.782   7.646   9.169  1.00  0.00    -0.340 N
ATOM     17  H4  UNL     1      -4.729   7.235   8.237  1.00  0.00     0.167 HD
BRANCH  16  18
HETATM   18  C11 UNL     1      -5.269   8.944   9.317  1.00  0.00     0.043 A
HETATM   19  C12 UNL     1      -4.584   9.865  10.077  1.00  0.00     0.030 A
HETATM   20  C13 UNL     1      -5.052  11.167  10.222  1.00  0.00     0.005 A
HETATM   21  C14 UNL     1      -6.220  11.523   9.589  1.00  0.00     0.043 A
HETATM   22  C15 UNL     1      -6.915  10.578   8.813  1.00  0.00     0.125 A
HETATM   23  F1  UNL     1      -8.040  11.079   8.258  1.00  0.00    -0.205 F
HETATM   24  C16 UNL     1      -6.448   9.291   8.673  1.00  0.00     0.015 A
BRANCH  24  25
HETATM   25  C17 UNL     1      -7.169   8.334   7.868  1.00  0.00    -0.019 C
HETATM   26  C18 UNL     1      -6.346   7.274   7.172  1.00  0.00     0.019 C
HETATM   27  C19 UNL     1      -8.080   7.563   8.844  1.00  0.00     0.019 C
HETATM   28  C20 UNL     1      -8.095   8.905   6.833  1.00  0.00     0.019 C
ENDBRANCH  24  25
ENDBRANCH  16  18
ENDBRANCH  13  16
ENDBRANCH   4   9
BRANCH   1  29
HETATM   29  N1  UNL     1      -5.472   2.787  16.582  1.00  0.00     0.095 N
HETATM   30  C4  UNL     1      -6.352   3.198  17.662  1.00  0.00     0.310 C
BRANCH  29  31
HETATM   31  C2  UNL     1      -5.952   1.495  16.127  1.00  0.00     0.242 C
HETATM   32  C1  UNL     1      -7.041   1.051  17.082  1.00  0.00     0.045 C
BRANCH  31  33
HETATM   33  C3  UNL     1      -4.903   0.434  16.081  1.00  0.00     0.199 C
BRANCH  33  34
HETATM   34  O1  UNL     1      -3.659   0.946  16.471  1.00  0.00    -0.399 OA
ATOM     35  H1  UNL     1      -3.020   0.849  15.774  1.00  0.00     0.209 HD
ENDBRANCH  33  34
ENDBRANCH  31  33
ENDBRANCH  29  31
ENDBRANCH   1  29
TORSDOF 8
ENDMDL