MODEL 4
REMARK VINA RESULT: -7.366820437      2.197      2.964
REMARK  7 active torsions:
REMARK  status: ('A' for Active; 'I' for Inactive)
REMARK    1  A    between atoms: C4_5  and  C5_6
REMARK    2  A    between atoms: C6_7  and  C7_8
REMARK    3  A    between atoms: C10_12  and  O2_13
REMARK    4  A    between atoms: O2_13  and  C11_14
REMARK    5  A    between atoms: C14_18  and  C15_19
REMARK    6  A    between atoms: C17_22  and  O5_23
REMARK    7  A    between atoms: C19_26  and  O6_27
ROOT
HETATM    1  C7  UNL     1      -3.805   4.940  12.178  1.00  0.00     0.047 C
HETATM    2  C8  UNL     1      -4.249   5.683  13.419  1.00  0.00     0.063 C
HETATM    3  C9  UNL     1      -4.599   4.790  14.545  1.00  0.00     0.047 C
HETATM    4 BR1  UNL     1      -6.135   5.122  15.641  1.00  0.00    -0.051 Br
HETATM    5  C10 UNL     1      -3.809   3.751  14.765  1.00  0.00     0.195 C
HETATM    6  O3  UNL     1      -2.716   3.616  13.891  1.00  0.00    -0.319 OA
HETATM    7  C14 UNL     1      -2.923   3.780  12.475  1.00  0.00     0.174 C
ENDROOT
BRANCH   1   8
HETATM    8  C6  UNL     1      -3.164   5.939  11.272  1.00  0.00    -0.020 C
HETATM    9  C5  UNL     1      -2.768   5.741  10.050  1.00  0.00     0.004 C
BRANCH   9  10
HETATM   10  C4  UNL     1      -2.867   4.477   9.293  1.00  0.00     0.173 C
HETATM   11  O1  UNL     1      -3.784   4.510   8.261  1.00  0.00    -0.375 OA
HETATM   12  C3  UNL     1      -3.439   5.289   7.197  1.00  0.00     0.202 C
HETATM   13  C2  UNL     1      -2.031   5.628   7.070  1.00  0.00    -0.063 C
HETATM   14  C1  UNL     1      -1.666   6.719   6.424  1.00  0.00     0.016 C
HETATM   15  C20 UNL     1      -0.990   4.760   7.658  1.00  0.00     0.070 C
HETATM   16  C19 UNL     1      -1.502   4.020   8.852  1.00  0.00     0.155 C
BRANCH  16  17
HETATM   17  O6  UNL     1      -0.619   4.211   9.914  1.00  0.00    -0.392 OA
ATOM     18  H6  UNL     1      -0.122   5.003   9.744  1.00  0.00     0.210 HD
ENDBRANCH  16  17
ENDBRANCH   9  10
ENDBRANCH   1   8
BRANCH   7  19
HETATM   19  C15 UNL     1      -3.427   2.473  11.985  1.00  0.00    -0.001 A
HETATM   20  C16 UNL     1      -4.723   2.012  11.859  1.00  0.00     0.154 A
HETATM   21  O4  UNL     1      -4.715   0.780  11.375  1.00  0.00    -0.300 OA
HETATM   22  C17 UNL     1      -3.503   0.378  11.166  1.00  0.00     0.183 A
HETATM   23  C18 UNL     1      -2.656   1.403  11.532  1.00  0.00     0.075 A
BRANCH  22  24
HETATM   24  O5  UNL     1      -3.143  -0.866  10.662  1.00  0.00    -0.341 OA
ATOM     25  H5  UNL     1      -2.564  -1.486  11.089  1.00  0.00     0.220 HD
ENDBRANCH  22  24
ENDBRANCH   7  19
BRANCH   5  26
HETATM   26  O2  UNL     1      -4.098   2.904  15.797  1.00  0.00    -0.325 OA
BRANCH  26  27
HETATM   27  C11 UNL     1      -5.071   1.894  15.780  1.00  0.00     0.123 C
HETATM   28  C12 UNL     1      -5.567   1.714  17.209  1.00  0.00     0.040 C
HETATM   29  C13 UNL     1      -4.537   0.566  15.302  1.00  0.00     0.040 C
ENDBRANCH  26  27
ENDBRANCH   5  26
TORSDOF 7
ENDMDL