MODEL 1
REMARK VINA RESULT: -7.566512466      0.000      0.000
REMARK  8 active torsions:
REMARK  status: ('A' for Active; 'I' for Inactive)
REMARK    1  A    between atoms: C7_7  and  C8_8
REMARK    2  A    between atoms: C8_8  and  C11_11
REMARK    3  A    between atoms: C11_11  and  O2_13
REMARK    4  A    between atoms: O2_13  and  C12_14
REMARK    5  A    between atoms: C12_14  and  C13_15
REMARK    6  A    between atoms: C12_14  and  C14_18
REMARK    7  A    between atoms: C19_24  and  O5_26
REMARK    8  A    between atoms: C21_28  and  O6_29
ROOT
HETATM    1  C12 UNL     1      -4.181   1.960  11.704  1.00  0.00     0.222 C
ENDROOT
BRANCH   1   2
HETATM    2  O2  UNL     1      -4.332   2.008  13.113  1.00  0.00    -0.306 OA
BRANCH   2   3
HETATM    3  C11 UNL     1      -5.158   2.940  13.711  1.00  0.00     0.272 C
HETATM    4  O1  UNL     1      -6.391   2.710  13.633  1.00  0.00    -0.264 OA
BRANCH   3   5
HETATM    5  C8  UNL     1      -4.723   4.159  14.418  1.00  0.00     0.068 C
HETATM    6  C9  UNL     1      -5.909   4.753  15.168  1.00  0.00     0.031 C
HETATM    7  C10 UNL     1      -3.739   3.738  15.507  1.00  0.00     0.031 C
BRANCH   5   8
HETATM    8  C7  UNL     1      -4.175   5.218  13.574  1.00  0.00    -0.039 A
HETATM    9  C6  UNL     1      -2.946   5.787  13.779  1.00  0.00     0.015 A
HETATM   10  C4  UNL     1      -2.439   6.798  12.964  1.00  0.00    -0.061 A
HETATM   11  C3  UNL     1      -3.217   7.233  11.915  1.00  0.00     0.013 A
HETATM   12  C5  UNL     1      -1.084   7.366  13.257  1.00  0.00     0.048 C
HETATM   13  C2  UNL     1      -4.458   6.689  11.673  1.00  0.00    -0.061 A
HETATM   14  C1  UNL     1      -5.280   7.182  10.526  1.00  0.00     0.048 C
HETATM   15  C23 UNL     1      -4.910   5.699  12.502  1.00  0.00     0.015 A
ENDBRANCH   5   8
ENDBRANCH   3   5
ENDBRANCH   2   3
ENDBRANCH   1   2
BRANCH   1  16
HETATM   16  C13 UNL     1      -4.256   0.589  11.146  1.00  0.00     0.248 C
HETATM   17  O3  UNL     1      -4.476   0.396   9.945  1.00  0.00    -0.277 OA
HETATM   18 CL1  UNL     1      -4.049  -0.869  12.097  1.00  0.00    -0.041 Cl
ENDBRANCH   1  16
BRANCH   1  19
HETATM   19  C14 UNL     1      -2.929   2.680  11.270  1.00  0.00     0.026 C
HETATM   20  C15 UNL     1      -1.673   1.887  11.372  1.00  0.00     0.011 C
HETATM   21  C16 UNL     1      -0.546   2.782  11.734  1.00  0.00     0.044 C
HETATM   22  C17 UNL     1       0.013   3.645  10.671  1.00  0.00     0.115 A
HETATM   23  C18 UNL     1       0.793   4.854  11.208  1.00  0.00     0.210 A
HETATM   24  O4  UNL     1       1.391   3.812  10.545  1.00  0.00    -0.372 OA
HETATM   25  C19 UNL     1      -0.868   3.960   9.512  1.00  0.00     0.113 C
HETATM   26  C20 UNL     1      -0.163   5.066   8.710  1.00  0.00     0.052 C
HETATM   27  C21 UNL     1      -2.221   4.511   9.869  1.00  0.00     0.155 C
HETATM   28  C22 UNL     1      -3.164   3.319   9.939  1.00  0.00     0.042 C
BRANCH  25  29
HETATM   29  O5  UNL     1      -0.958   2.878   8.606  1.00  0.00    -0.384 OA
ATOM     30  H5  UNL     1      -0.340   2.187   8.814  1.00  0.00     0.210 HD
ENDBRANCH  25  29
BRANCH  27  31
HETATM   31  O6  UNL     1      -2.643   5.378   8.877  1.00  0.00    -0.392 OA
ATOM     32  H6  UNL     1      -1.892   5.821   8.501  1.00  0.00     0.210 HD
ENDBRANCH  27  31
ENDBRANCH   1  19
TORSDOF 8
ENDMDL