MODEL 5
REMARK VINA RESULT: -7.785056364      2.547      3.141
REMARK  5 active torsions:
REMARK  status: ('A' for Active; 'I' for Inactive)
REMARK    1  A    between atoms: O1_2  and  N1_3
REMARK    2  A    between atoms: N2_8  and  C5_9
REMARK    3  A    between atoms: C5_9  and  C6_10
REMARK    4  A    between atoms: N3_13  and  C9_14
REMARK    5  A    between atoms: C12_17  and  C13_18
ROOT
HETATM    1  C9  UNL     1      -6.619   8.657   8.796  1.00  0.00     0.033 A
HETATM    2  C10 UNL     1      -6.337   9.875   8.235  1.00  0.00     0.030 A
HETATM    3  C11 UNL     1      -7.331  10.562   7.543  1.00  0.00     0.015 A
HETATM    4  C12 UNL     1      -8.599  10.050   7.405  1.00  0.00     0.009 A
HETATM    5  C18 UNL     1      -8.866   8.824   7.976  1.00  0.00     0.127 A
HETATM    6  F1  UNL     1     -10.103   8.260   7.879  1.00  0.00    -0.205 F
HETATM    7  C19 UNL     1      -7.888   8.130   8.666  1.00  0.00     0.072 A
ENDROOT
BRANCH   1   8
HETATM    8  N3  UNL     1      -5.636   7.907   9.507  1.00  0.00    -0.380 N
HETATM    9  C8  UNL     1      -4.361   8.313  10.011  1.00  0.00     0.123 C
HETATM   10  C7  UNL     1      -4.091   7.474  11.228  1.00  0.00     0.027 C
HETATM   11  C6  UNL     1      -4.834   6.180  10.905  1.00  0.00     0.033 C
HETATM   12  C20 UNL     1      -5.810   6.499   9.865  1.00  0.00     0.129 C
BRANCH  11  13
HETATM   13  C5  UNL     1      -3.955   5.009  10.847  1.00  0.00     0.278 C
BRANCH  13  14
HETATM   14  N2  UNL     1      -3.407   4.412  11.987  1.00  0.00     0.089 N
HETATM   15  C4  UNL     1      -4.463   3.957  12.902  1.00  0.00     0.278 C
HETATM   16  C3  UNL     1      -4.267   2.550  13.383  1.00  0.00     0.084 C
HETATM   17  C2  UNL     1      -4.001   1.648  12.243  1.00  0.00     0.013 C
HETATM   18  N1  UNL     1      -4.487   0.483  12.214  1.00  0.00    -0.275 N
HETATM   19  C22 UNL     1      -3.157   2.166  11.154  1.00  0.00     0.084 C
ATOM     20  H1  UNL     1      -5.059   0.228  13.019  1.00  0.00     0.193 HD
HETATM   21  C21 UNL     1      -2.449   3.392  11.756  1.00  0.00     0.278 C
BRANCH  18  22
HETATM   22  O1  UNL     1      -4.357  -0.474  11.269  1.00  0.00    -0.286 OA
HETATM   23  C1  UNL     1      -3.417  -1.536  11.367  1.00  0.00     0.237 C
ENDBRANCH  18  22
ENDBRANCH  13  14
ENDBRANCH  11  13
ENDBRANCH   1   8
BRANCH   4  24
HETATM   24  C13 UNL     1      -9.615  10.815   6.657  1.00  0.00     0.066 C
HETATM   25  C14 UNL     1     -10.695  11.213   7.642  1.00  0.00     0.044 C
HETATM   26  C15 UNL     1      -8.991  12.088   6.141  1.00  0.00     0.110 C
HETATM   27  S1  UNL     1     -10.283  13.140   5.371  1.00  0.00    -0.159 SA
HETATM   28  C16 UNL     1     -11.650  12.018   4.932  1.00  0.00     0.149 C
HETATM   29  C17 UNL     1     -11.057  10.684   4.657  1.00  0.00     0.080 C
HETATM   30  N4  UNL     1     -11.337  10.023   3.558  1.00  0.00    -0.388 N
HETATM   31  N5  UNL     1     -10.159  10.045   5.554  1.00  0.00    -0.365 N
ATOM     32  H42 UNL     1     -11.982  10.482   2.914  1.00  0.00     0.157 HD
ATOM     33  H41 UNL     1     -10.930   9.107   3.369  1.00  0.00     0.157 HD
ATOM     34  H5  UNL     1      -9.901   9.067   5.425  1.00  0.00     0.162 HD
ENDBRANCH   4  24
TORSDOF 5
ENDMDL