MODEL 1
REMARK VINA RESULT: -7.211858081      0.000      0.000
REMARK  7 active torsions:
REMARK  status: ('A' for Active; 'I' for Inactive)
REMARK    1  A    between atoms: C3_3  and  C4_4
REMARK    2  A    between atoms: C10_13  and  N2_14
REMARK    3  A    between atoms: N2_14  and  C11_16
REMARK    4  A    between atoms: C11_16  and  C13_18
REMARK    5  A    between atoms: C15_20  and  O1_21
REMARK    6  A    between atoms: C17_23  and  O2_24
REMARK    7  A    between atoms: C19_26  and  O3_27
ROOT
HETATM    1  C1  UNL     1      -1.841   7.800  14.680  1.00  0.00     0.112 C
HETATM    2  C2  UNL     1      -1.756   7.208  13.325  1.00  0.00    -0.109 C
HETATM    3  C3  UNL     1      -1.681   6.746  12.214  1.00  0.00    -0.078 C
ENDROOT
BRANCH   3   4
HETATM    4  C4  UNL     1      -1.587   6.215  10.874  1.00  0.00     0.127 A
HETATM    5 CL1  UNL     1      -2.818   6.845   9.752  1.00  0.00    -0.103 Cl
HETATM    6  C5  UNL     1      -0.254   5.889  10.289  1.00  0.00     0.007 A
HETATM    7  C6  UNL     1      -0.005   6.228   8.849  1.00  0.00     0.019 C
HETATM    8  C7  UNL     1       0.917   6.228  11.210  1.00  0.00     0.019 C
HETATM    9  C8  UNL     1      -1.129   4.762  10.682  1.00  0.00     0.101 A
HETATM   10  C9  UNL     1      -0.696   3.990  11.883  1.00  0.00     0.161 C
HETATM   11  C22 UNL     1      -1.943   4.023   9.724  1.00  0.00     0.250 C
HETATM   12  N1  UNL     1      -1.312   2.721  12.057  1.00  0.00    -0.225 N
HETATM   13  C10 UNL     1      -2.110   2.129  11.268  1.00  0.00     0.677 C
ATOM     14  H1  UNL     1      -1.086   2.226  12.919  1.00  0.00     0.177 HD
HETATM   15  N3  UNL     1      -2.469   2.747  10.058  1.00  0.00    -0.159 N
ATOM     16  H3  UNL     1      -3.110   2.278   9.418  1.00  0.00     0.187 HD
HETATM   17  O4  UNL     1      -2.194   4.486   8.605  1.00  0.00    -0.272 OA
BRANCH  13  18
HETATM   18  N2  UNL     1      -2.597   0.851  11.669  1.00  0.00    -0.218 N
ATOM     19  H2  UNL     1      -1.966   0.053  11.723  1.00  0.00     0.178 HD
BRANCH  18  20
HETATM   20  C11 UNL     1      -3.987   0.701  11.995  1.00  0.00     0.128 C
HETATM   21  C12 UNL     1      -4.331  -0.772  12.012  1.00  0.00     0.038 C
BRANCH  20  22
HETATM   22  C13 UNL     1      -4.375   1.354  13.247  1.00  0.00    -0.030 A
HETATM   23  C14 UNL     1      -4.396   0.714  14.464  1.00  0.00     0.049 A
HETATM   24  C15 UNL     1      -4.771   1.391  15.610  1.00  0.00     0.104 A
HETATM   25  C17 UNL     1      -5.129   2.731  15.532  1.00  0.00     0.135 A
HETATM   26  C19 UNL     1      -5.112   3.384  14.317  1.00  0.00     0.104 A
HETATM   27  C21 UNL     1      -4.736   2.682  13.205  1.00  0.00     0.049 A
BRANCH  24  28
HETATM   28  O1  UNL     1      -4.809   0.800  16.843  1.00  0.00    -0.353 OA
HETATM   29  C16 UNL     1      -5.949   0.128  17.327  1.00  0.00     0.210 C
ENDBRANCH  24  28
BRANCH  25  30
HETATM   30  O2  UNL     1      -5.510   3.454  16.639  1.00  0.00    -0.351 OA
HETATM   31  C18 UNL     1      -6.836   3.620  17.057  1.00  0.00     0.210 C
ENDBRANCH  25  30
BRANCH  26  32
HETATM   32  O3  UNL     1      -5.472   4.741  14.217  1.00  0.00    -0.353 OA
HETATM   33  C20 UNL     1      -4.990   5.492  13.120  1.00  0.00     0.210 C
ENDBRANCH  26  32
ENDBRANCH  20  22
ENDBRANCH  18  20
ENDBRANCH  13  18
ENDBRANCH   3   4
TORSDOF 7
ENDMDL