MODEL 2
REMARK VINA RESULT: -8.468978624      4.683      8.213
REMARK  5 active torsions:
REMARK  status: ('A' for Active; 'I' for Inactive)
REMARK    1  A    between atoms: O1_2  and  C2_3
REMARK    2  A    between atoms: C3_4  and  C4_5
REMARK    3  A    between atoms: C5_8  and  N2_9
REMARK    4  A    between atoms: C11_19  and  C12_20
REMARK       I    between atoms: C12_20  and  N5_22
REMARK    5  A    between atoms: N5_22  and  C13_24
ROOT
HETATM    1  C2  UNL     1      -1.290   2.655  10.806  1.00  0.00     0.091 A
HETATM    2  C3  UNL     1      -1.490   3.754  11.593  1.00  0.00     0.045 A
HETATM    3  C10 UNL     1      -2.545   3.753  12.466  1.00  0.00     0.038 A
HETATM    4  C11 UNL     1      -3.439   2.683  12.598  1.00  0.00     0.067 A
HETATM    5  C19 UNL     1      -3.207   1.600  11.791  1.00  0.00     0.093 A
HETATM    6  C20 UNL     1      -2.154   1.584  10.912  1.00  0.00     0.013 A
HETATM    7  C21 UNL     1      -2.187   0.262  10.189  1.00  0.00     0.071 C
HETATM    8  C22 UNL     1      -3.630  -0.147  10.398  1.00  0.00     0.180 C
HETATM    9  O3  UNL     1      -3.911   0.384  11.682  1.00  0.00    -0.349 OA
ENDROOT
BRANCH   2  10
HETATM   10  C4  UNL     1      -0.641   4.945  11.466  1.00  0.00     0.149 A
HETATM   11  N1  UNL     1       0.624   4.980  11.955  1.00  0.00    -0.173 N
HETATM   12  C5  UNL     1       1.220   6.156  11.704  1.00  0.00     0.696 A
ATOM     13  H1  UNL     1       1.067   4.208  12.453  1.00  0.00     0.186 HD
HETATM   14  N3  UNL     1       0.280   6.879  11.031  1.00  0.00    -0.130 N
HETATM   15  N4  UNL     1      -0.826   6.125  10.904  1.00  0.00    -0.270 N
ATOM     16  H3  UNL     1       0.397   7.830  10.683  1.00  0.00     0.205 HD
ATOM     17  H4  UNL     1      -1.685   6.422  10.440  1.00  0.00     0.189 HD
BRANCH  12  18
HETATM   18  N2  UNL     1       2.528   6.585  12.047  1.00  0.00    -0.216 N
HETATM   19  C6  UNL     1       2.940   7.885  12.515  1.00  0.00     0.141 C
HETATM   20  C7  UNL     1       4.139   7.585  13.410  1.00  0.00     0.022 C
HETATM   21  C8  UNL     1       4.436   6.126  13.254  1.00  0.00     0.022 C
HETATM   22  C9  UNL     1       3.708   5.761  11.982  1.00  0.00     0.141 C
ENDBRANCH  12  18
ENDBRANCH   2  10
BRANCH   1  23
HETATM   23  O1  UNL     1      -0.248   2.514   9.880  1.00  0.00    -0.354 OA
HETATM   24  C1  UNL     1      -0.464   3.206   8.634  1.00  0.00     0.210 C
ENDBRANCH   1  23
BRANCH   4  25
HETATM   25  C12 UNL     1      -4.530   2.801  13.566  1.00  0.00     0.254 C
HETATM   26  O2  UNL     1      -5.604   3.394  13.204  1.00  0.00    -0.268 OA
HETATM   27  N5  UNL     1      -4.432   2.286  14.866  1.00  0.00    -0.352 N
ATOM     28  H5  UNL     1      -3.590   1.807  15.185  1.00  0.00     0.163 HD
BRANCH  27  29
HETATM   29  C13 UNL     1      -5.602   2.467  15.758  1.00  0.00     0.087 C
HETATM   30  C14 UNL     1      -5.717   3.899  16.173  1.00  0.00     0.025 C
HETATM   31  C15 UNL     1      -6.921   4.016  17.082  1.00  0.00     0.005 C
HETATM   32  C16 UNL     1      -6.626   3.289  18.349  1.00  0.00     0.037 C
HETATM   33  C17 UNL     1      -5.620   2.201  18.253  1.00  0.00     0.172 C
HETATM   34  F1  UNL     1      -5.963   1.226  19.197  1.00  0.00    -0.249 F
HETATM   35  C18 UNL     1      -5.542   1.518  16.927  1.00  0.00     0.062 C
ENDBRANCH  27  29
ENDBRANCH   4  25
TORSDOF 5
ENDMDL