MODEL 1
REMARK VINA RESULT: -8.518414722      0.000      0.000
REMARK  7 active torsions:
REMARK  status: ('A' for Active; 'I' for Inactive)
REMARK    1  A    between atoms: C2_2  and  N1_3
REMARK    2  A    between atoms: C2_2  and  C13_23
REMARK    3  A    between atoms: N1_3  and  C3_5
REMARK    4  A    between atoms: C4_8  and  N3_9
REMARK    5  A    between atoms: C7_12  and  C8_13
REMARK    6  A    between atoms: C8_13  and  O1_14
REMARK    7  A    between atoms: N6_28  and  C16_29
ROOT
HETATM    1  C3  UNL     1      -3.716   3.996  11.407  1.00  0.00     0.680 A
HETATM    2  N2  UNL     1      -4.225   4.099  12.674  1.00  0.00    -0.174 N
ATOM      3  H2  UNL     1      -4.375   5.029  13.067  1.00  0.00     0.186 HD
HETATM    4  C4  UNL     1      -4.535   3.020  13.427  1.00  0.00     0.159 A
HETATM    5  C11 UNL     1      -4.345   1.763  12.928  1.00  0.00     0.176 A
HETATM    6  F1  UNL     1      -4.615   0.606  13.581  1.00  0.00    -0.201 F
HETATM    7  C12 UNL     1      -3.836   1.651  11.657  1.00  0.00     0.152 A
HETATM    8  N4  UNL     1      -3.542   2.781  10.945  1.00  0.00    -0.199 N
ATOM      9  H4  UNL     1      -3.166   2.672  10.002  1.00  0.00     0.183 HD
ENDROOT
BRANCH   1  10
HETATM   10  N1  UNL     1      -3.472   5.047  10.818  1.00  0.00    -0.215 N
ATOM     11  H1  UNL     1      -2.935   4.877   9.967  1.00  0.00     0.178 HD
BRANCH  10  12
HETATM   12  C2  UNL     1      -3.732   6.436  10.994  1.00  0.00     0.163 C
HETATM   13  C1  UNL     1      -2.490   7.228  10.803  1.00  0.00     0.041 C
BRANCH  12  14
HETATM   14  C13 UNL     1      -4.846   6.785  10.059  1.00  0.00     0.107 A
HETATM   15  N5  UNL     1      -6.107   7.089  10.414  1.00  0.00    -0.346 N
HETATM   16  C14 UNL     1      -6.827   7.323   9.332  1.00  0.00     0.033 A
ATOM     17  H5  UNL     1      -6.454   7.132  11.372  1.00  0.00     0.167 HD
HETATM   18  C15 UNL     1      -5.981   7.156   8.276  1.00  0.00     0.036 A
HETATM   19  C23 UNL     1      -8.195   7.695   8.888  1.00  0.00     0.059 C
HETATM   20  N6  UNL     1      -4.725   6.815   8.726  1.00  0.00    -0.332 N
HETATM   21  C21 UNL     1      -6.768   7.413   7.015  1.00  0.00     0.059 C
HETATM   22  C22 UNL     1      -7.999   8.133   7.448  1.00  0.00     0.012 C
BRANCH  20  23
HETATM   23  C16 UNL     1      -3.689   6.578   7.805  1.00  0.00     0.091 C
HETATM   24  C17 UNL     1      -3.373   7.727   6.868  1.00  0.00     0.026 C
HETATM   25  C18 UNL     1      -2.187   7.133   6.101  1.00  0.00     0.002 C
HETATM   26  C19 UNL     1      -2.263   5.621   6.301  1.00  0.00     0.002 C
HETATM   27  C20 UNL     1      -3.695   5.453   6.872  1.00  0.00     0.026 C
ENDBRANCH  20  23
ENDBRANCH  12  14
ENDBRANCH  10  12
ENDBRANCH   1  10
BRANCH   4  28
HETATM   28  N3  UNL     1      -5.062   3.168  14.738  1.00  0.00    -0.364 N
HETATM   29  C5  UNL     1      -4.138   2.906  15.854  1.00  0.00     0.125 C
HETATM   30  C6  UNL     1      -4.787   1.814  16.672  1.00  0.00     0.026 C
HETATM   31  C7  UNL     1      -6.080   2.338  17.206  1.00  0.00     0.012 C
HETATM   32  C9  UNL     1      -6.476   3.652  16.603  1.00  0.00     0.026 C
HETATM   33  C10 UNL     1      -6.394   3.545  15.081  1.00  0.00     0.125 C
BRANCH  31  34
HETATM   34  C8  UNL     1      -7.210   1.348  16.934  1.00  0.00     0.168 C
BRANCH  34  35
HETATM   35  O1  UNL     1      -6.696   0.082  16.656  1.00  0.00    -0.400 OA
ATOM     36  H1  UNL     1      -7.391  -0.566  16.647  1.00  0.00     0.209 HD
ENDBRANCH  34  35
ENDBRANCH  31  34
ENDBRANCH   4  28
TORSDOF 7
ENDMDL