MODEL 5
REMARK VINA RESULT: -7.656722484      2.145      2.963
REMARK  6 active torsions:
REMARK  status: ('A' for Active; 'I' for Inactive)
REMARK    1  A    between atoms: C2_2  and  N1_4
REMARK    2  A    between atoms: C8_13  and  N4_14
REMARK       I    between atoms: N4_14  and  C9_16
REMARK       I    between atoms: C9_16  and  N5_18
REMARK    3  A    between atoms: N6_25  and  C15_26
REMARK    4  A    between atoms: C15_26  and  C16_27
REMARK    5  A    between atoms: C16_27  and  O2_28
REMARK    6  A    between atoms: C16_27  and  C17_30
ROOT
HETATM    1  N4  UNL     1       0.007   4.647  12.092  1.00  0.00    -0.293 N
ATOM      2  H4  UNL     1      -0.024   5.290  12.882  1.00  0.00     0.172 HD
HETATM    3  C9  UNL     1      -1.113   3.803  11.835  1.00  0.00     0.324 C
HETATM    4  O1  UNL     1      -1.046   3.022  10.867  1.00  0.00    -0.247 OA
HETATM    5  N5  UNL     1      -2.264   3.877  12.686  1.00  0.00    -0.330 N
HETATM    6  C10 UNL     1      -3.370   2.998  12.379  1.00  0.00     0.166 C
HETATM    7  C11 UNL     1      -4.571   3.485  13.160  1.00  0.00     0.277 C
HETATM    8  C12 UNL     1      -4.587   4.991  13.030  1.00  0.00     0.240 C
HETATM    9  F1  UNL     1      -3.953   5.526  11.941  1.00  0.00    -0.245 F
HETATM   10  C13 UNL     1      -3.743   4.920  14.284  1.00  0.00     0.277 C
HETATM   11  C14 UNL     1      -2.286   4.811  13.796  1.00  0.00     0.166 C
HETATM   12  N6  UNL     1      -4.180   3.600  14.534  1.00  0.00     0.109 N
ENDROOT
BRANCH   1  13
HETATM   13  C8  UNL     1       1.162   4.610  11.272  1.00  0.00     0.134 A
HETATM   14  N3  UNL     1       2.414   4.938  11.663  1.00  0.00    -0.318 N
HETATM   15  C7  UNL     1       3.234   4.771  10.606  1.00  0.00     0.194 A
ATOM     16  H3  UNL     1       2.689   5.254  12.592  1.00  0.00     0.169 HD
HETATM   17  C6  UNL     1       4.657   5.014  10.608  1.00  0.00     0.160 A
HETATM   18  O3  UNL     1       2.505   4.360   9.617  1.00  0.00    -0.299 OA
HETATM   19  N1  UNL     1       5.509   4.861   9.583  1.00  0.00    -0.334 N
HETATM   20  N2  UNL     1       5.336   5.445  11.692  1.00  0.00    -0.347 N
HETATM   21  C4  UNL     1       6.739   5.205  10.050  1.00  0.00     0.110 A
HETATM   22  C5  UNL     1       6.616   5.563  11.352  1.00  0.00     0.107 A
ATOM     23  H2  UNL     1       4.937   5.645  12.609  1.00  0.00     0.167 HD
HETATM   24  C21 UNL     1       1.257   4.242   9.946  1.00  0.00     0.193 A
BRANCH  19  25
HETATM   25  C2  UNL     1       5.278   4.425   8.222  1.00  0.00     0.083 C
HETATM   26  C1  UNL     1       5.313   2.941   8.036  1.00  0.00     0.032 C
HETATM   27  C3  UNL     1       6.176   5.117   7.216  1.00  0.00     0.032 C
ENDBRANCH  19  25
ENDBRANCH   1  13
BRANCH  12  28
HETATM   28  C15 UNL     1      -5.065   3.249  15.545  1.00  0.00     0.306 C
BRANCH  28  29
HETATM   29  C16 UNL     1      -4.623   2.368  16.651  1.00  0.00     0.153 C
BRANCH  29  30
HETATM   30  O2  UNL     1      -3.936   1.230  16.240  1.00  0.00    -0.393 OA
ATOM     31  H2  UNL     1      -3.146   1.047  16.736  1.00  0.00     0.210 HD
ENDBRANCH  29  30
BRANCH  29  32
HETATM   32  C17 UNL     1      -5.887   1.836  17.343  1.00  0.00    -0.024 C
HETATM   33  C18 UNL     1      -5.883   0.319  17.334  1.00  0.00     0.017 C
HETATM   34  C19 UNL     1      -7.054   2.279  16.483  1.00  0.00     0.017 C
HETATM   35  C20 UNL     1      -6.038   2.362  18.729  1.00  0.00     0.017 C
ENDBRANCH  29  32
ENDBRANCH  28  29
ENDBRANCH  12  28
TORSDOF 6
ENDMDL