MODEL 5
REMARK VINA RESULT: -8.537121847      4.171      7.579
REMARK  5 active torsions:
REMARK  status: ('A' for Active; 'I' for Inactive)
REMARK    1  A    between atoms: C14_16  and  O3_17
REMARK    2  A    between atoms: C14_16  and  C15_19
REMARK    3  A    between atoms: C15_19  and  N1_21
REMARK       I    between atoms: N1_21  and  C16_23
REMARK    4  A    between atoms: C16_23  and  C17_25
REMARK    5  A    between atoms: C18_26  and  C19_27
ROOT
HETATM    1  C1  UNL     1      -1.175   5.225   6.253  1.00  0.00     0.078 C
HETATM    2  C2  UNL     1      -0.604   4.692   7.579  1.00  0.00     0.161 C
HETATM    3  C3  UNL     1       0.461   3.666   7.165  1.00  0.00     0.078 C
HETATM    4  O1  UNL     1       0.054   5.755   8.170  1.00  0.00    -0.326 OA
HETATM    5  C4  UNL     1      -0.820   6.758   8.501  1.00  0.00     0.270 A
HETATM    6  O2  UNL     1      -2.143   6.574   8.189  1.00  0.00    -0.352 OA
HETATM    7  C5  UNL     1      -2.539   6.735   9.538  1.00  0.00     0.172 A
HETATM    8  C6  UNL     1      -1.175   6.840   9.958  1.00  0.00     0.074 A
HETATM    9  C7  UNL     1      -0.512   5.867  10.826  1.00  0.00     0.020 C
HETATM   10  C8  UNL     1      -0.454   4.449  10.398  1.00  0.00     0.021 C
HETATM   11  C9  UNL     1      -0.576   3.596  11.671  1.00  0.00     0.008 C
HETATM   12  C10 UNL     1      -1.397   2.409  11.325  1.00  0.00     0.004 C
HETATM   13  C11 UNL     1      -1.477   2.438   9.818  1.00  0.00     0.038 C
HETATM   14  C12 UNL     1      -1.590   3.959   9.582  1.00  0.00     0.071 C
HETATM   15  C13 UNL     1      -2.859   4.360  10.334  1.00  0.00     0.084 C
HETATM   16  C14 UNL     1      -3.436   5.636   9.920  1.00  0.00     0.135 C
HETATM   17  O5  UNL     1      -1.620   4.167   8.279  1.00  0.00    -0.344 OA
ENDROOT
BRANCH  16  18
HETATM   18  O3  UNL     1      -4.267   5.392   8.794  1.00  0.00    -0.382 OA
ATOM     19  H3  UNL     1      -3.726   4.939   8.158  1.00  0.00     0.210 HD
ENDBRANCH  16  18
BRANCH  16  20
HETATM   20  C15 UNL     1      -4.399   6.143  10.983  1.00  0.00     0.309 C
HETATM   21  F1  UNL     1      -4.192   7.471  11.290  1.00  0.00    -0.224 F
BRANCH  20  22
HETATM   22  N1  UNL     1      -4.239   5.422  12.248  1.00  0.00    -0.325 N
HETATM   23  C16 UNL     1      -5.295   5.348  13.188  1.00  0.00     0.243 C
HETATM   24  O4  UNL     1      -6.375   5.948  12.845  1.00  0.00    -0.269 OA
ATOM     25  H1  UNL     1      -3.351   4.965  12.456  1.00  0.00     0.165 HD
BRANCH  23  26
HETATM   26  C17 UNL     1      -5.271   4.680  14.462  1.00  0.00     0.075 C
HETATM   27  C18 UNL     1      -6.014   3.623  14.673  1.00  0.00     0.017 C
BRANCH  27  28
HETATM   28  C19 UNL     1      -6.017   2.931  15.936  1.00  0.00    -0.036 A
HETATM   29  C20 UNL     1      -5.640   1.616  16.022  1.00  0.00     0.011 A
HETATM   30  C21 UNL     1      -5.659   0.983  17.268  1.00  0.00     0.001 A
HETATM   31  C22 UNL     1      -6.051   1.669  18.392  1.00  0.00     0.000 A
HETATM   32  C23 UNL     1      -6.431   2.991  18.316  1.00  0.00     0.001 A
HETATM   33  C24 UNL     1      -6.413   3.617  17.089  1.00  0.00     0.011 A
ENDBRANCH  27  28
ENDBRANCH  23  26
ENDBRANCH  20  22
ENDBRANCH  16  20
TORSDOF 5
ENDMDL