MODEL 1
REMARK VINA RESULT: -8.388481756      0.000      0.000
REMARK  6 active torsions:
REMARK  status: ('A' for Active; 'I' for Inactive)
REMARK    1  A    between atoms: C2_2  and  C5_5
REMARK    2  A    between atoms: C5_5  and  C6_6
REMARK    3  A    between atoms: C6_6  and  O1_7
REMARK    4  A    between atoms: O1_7  and  N1_8
REMARK    5  A    between atoms: C9_11  and  C10_12
REMARK    6  A    between atoms: C19_31  and  C20_32
ROOT
HETATM    1  N1  UNL     1      -3.910   2.618  13.111  1.00  0.00    -0.245 N
HETATM    2  C7  UNL     1      -3.550   3.991  13.097  1.00  0.00     0.163 C
HETATM    3  C8  UNL     1      -3.472   4.421  11.622  1.00  0.00     0.076 C
HETATM    4  C9  UNL     1      -2.249   3.716  11.156  1.00  0.00     0.014 C
HETATM    5  N5  UNL     1      -2.194   2.461  11.449  1.00  0.00    -0.349 N
ATOM      6  H5  UNL     1      -1.425   1.899  11.085  1.00  0.00     0.166 HD
HETATM    7  C19 UNL     1      -3.182   1.840  12.272  1.00  0.00     0.112 C
ENDROOT
BRANCH   4   8
HETATM    8  C10 UNL     1      -1.070   4.411  10.665  1.00  0.00     0.130 C
HETATM    9  C11 UNL     1      -0.934   5.834  11.090  1.00  0.00     0.239 C
HETATM   10  O2  UNL     1      -1.432   6.916  10.682  1.00  0.00    -0.272 OA
HETATM   11  N2  UNL     1      -0.050   5.390  12.093  1.00  0.00    -0.352 N
HETATM   12  C12 UNL     1       0.184   4.103  11.421  1.00  0.00     0.130 C
ATOM     13  H2  UNL     1       0.298   5.803  12.958  1.00  0.00     0.163 HD
HETATM   14  C13 UNL     1       1.457   4.079  10.702  1.00  0.00     0.147 C
HETATM   15  N3  UNL     1       1.406   3.766   9.291  1.00  0.00    -0.384 N
HETATM   16  C14 UNL     1       0.232   4.017   8.531  1.00  0.00     0.093 A
ATOM     17  H3  UNL     1       2.224   3.359   8.836  1.00  0.00     0.159 HD
HETATM   18  C15 UNL     1      -0.878   4.422   9.193  1.00  0.00    -0.000 A
HETATM   19  C18 UNL     1       0.356   4.107   7.135  1.00  0.00     0.215 A
HETATM   20  C16 UNL     1      -1.893   5.015   8.424  1.00  0.00     0.028 A
HETATM   21  C17 UNL     1      -1.711   5.179   7.100  1.00  0.00     0.091 A
HETATM   22  N4  UNL     1      -0.657   4.702   6.432  1.00  0.00    -0.341 N
ATOM     23  H4  UNL     1      -0.608   4.780   5.417  1.00  0.00     0.167 HD
HETATM   24  F1  UNL     1       1.496   3.697   6.578  1.00  0.00    -0.184 F
ENDBRANCH   4   8
BRANCH   7  25
HETATM   25  C20 UNL     1      -3.825   0.671  11.594  1.00  0.00     0.009 C
HETATM   26  C21 UNL     1      -5.071   1.012  10.808  1.00  0.00     0.023 C
HETATM   27  C22 UNL     1      -2.841   0.113  10.535  1.00  0.00     0.023 C
HETATM   28  C23 UNL     1      -4.131  -0.451  12.564  1.00  0.00     0.023 C
ENDBRANCH   7  25
BRANCH   1  29
HETATM   29  O1  UNL     1      -4.573   2.144  14.060  1.00  0.00    -0.277 OA
BRANCH  29  30
HETATM   30  C6  UNL     1      -4.879   2.973  15.139  1.00  0.00     0.202 C
BRANCH  30  31
HETATM   31  C5  UNL     1      -5.020   2.051  16.340  1.00  0.00     0.037 C
BRANCH  31  32
HETATM   32  C2  UNL     1      -6.199   2.310  17.177  1.00  0.00    -0.049 C
HETATM   33  C1  UNL     1      -5.919   2.264  18.649  1.00  0.00     0.014 C
HETATM   34  C3  UNL     1      -7.311   1.312  16.862  1.00  0.00     0.014 C
HETATM   35  C4  UNL     1      -6.674   3.725  16.828  1.00  0.00     0.014 C
ENDBRANCH  31  32
ENDBRANCH  30  31
ENDBRANCH  29  30
ENDBRANCH   1  29
TORSDOF 6
ENDMDL