MODEL 2
REMARK VINA RESULT: -5.217432762      3.081      4.539
REMARK  10 active torsions:
REMARK  status: ('A' for Active; 'I' for Inactive)
REMARK    1  A    between atoms: C2_2  and  C3_3
REMARK    2  A    between atoms: C3_3  and  C4_4
REMARK    3  A    between atoms: C3_3  and  O1_6
REMARK    4  A    between atoms: O1_6  and  C6_7
REMARK    5  A    between atoms: C6_7  and  C7_8
REMARK    6  A    between atoms: C7_8  and  O2_9
REMARK    7  A    between atoms: C7_8  and  C8_11
REMARK    8  A    between atoms: C8_11  and  N1_12
REMARK    9  A    between atoms: N2_15  and  C11_16
REMARK   10  A    between atoms: C11_16  and  C14_19
ROOT
HETATM    1  N1  UNL     1      -2.272  42.550   0.383  1.00  0.00    -0.288 NA
HETATM    2  C9  UNL     1      -2.049  42.485  -1.054  1.00  0.00     0.110 C
HETATM    3  C10 UNL     1      -0.837  43.050  -1.615  1.00  0.00     0.110 C
HETATM    4  N2  UNL     1       0.289  43.217  -0.761  1.00  0.00    -0.282 NA
HETATM    5  C16 UNL     1       0.015  43.488   0.586  1.00  0.00     0.072 C
HETATM    6  C17 UNL     1      -1.449  43.529   0.951  1.00  0.00     0.071 C
ENDROOT
BRANCH   1   7
HETATM    7  C8  UNL     1      -2.390  41.268   0.956  1.00  0.00     0.128 C
BRANCH   7   8
HETATM    8  C7  UNL     1      -1.438  40.259   0.439  1.00  0.00     0.155 C
BRANCH   8   9
HETATM    9  C6  UNL     1      -0.427  39.832   1.504  1.00  0.00     0.201 C
BRANCH   9  10
HETATM   10  O1  UNL     1       0.027  38.572   1.179  1.00  0.00    -0.383 OA
BRANCH  10  11
HETATM   11  C3  UNL     1       1.338  38.341   1.548  1.00  0.00     0.120 C
BRANCH  11  12
HETATM   12  C2  UNL     1       1.466  37.322   2.651  1.00  0.00     0.027 C
HETATM   13  C1  UNL     1       2.222  36.093   2.121  1.00  0.00     0.007 C
ENDBRANCH  11  12
BRANCH  11  14
HETATM   14  C4  UNL     1       1.968  39.646   1.941  1.00  0.00     0.027 C
HETATM   15  C5  UNL     1       3.173  39.494   2.836  1.00  0.00     0.007 C
ENDBRANCH  11  14
ENDBRANCH  10  11
ENDBRANCH   9  10
ENDBRANCH   8   9
BRANCH   8  16
HETATM   16  O2  UNL     1      -1.959  39.108  -0.081  1.00  0.00    -0.392 OA
ATOM     17  H2  UNL     1      -2.848  39.312  -0.344  1.00  0.00     0.210 HD
ENDBRANCH   8  16
ENDBRANCH   7   8
ENDBRANCH   1   7
BRANCH   4  18
HETATM   18  C11 UNL     1       1.212  44.178  -1.318  1.00  0.00     0.009 C
HETATM   19  C12 UNL     1       2.541  44.202  -0.592  1.00  0.00     0.032 C
HETATM   20  C13 UNL     1       0.628  45.568  -1.258  1.00  0.00     0.032 C
BRANCH  18  21
HETATM   21  C14 UNL     1       1.500  43.809  -2.775  1.00  0.00     0.020 C
HETATM   22  C15 UNL     1       2.873  44.262  -3.196  1.00  0.00     0.007 C
ENDBRANCH  18  21
ENDBRANCH   4  18
TORSDOF 10
ENDMDL