MODEL 4
REMARK VINA RESULT: -5.792844518      2.923      5.789
REMARK  10 active torsions:
REMARK  status: ('A' for Active; 'I' for Inactive)
REMARK    1  A    between atoms: C2_2  and  C3_3
REMARK    2  A    between atoms: C3_3  and  C4_4
REMARK    3  A    between atoms: C4_4  and  C5_5
REMARK    4  A    between atoms: C5_5  and  C6_6
REMARK    5  A    between atoms: C6_6  and  N1_7
REMARK    6  A    between atoms: N1_7  and  C8_9
REMARK    7  A    between atoms: C8_9  and  C11_12
REMARK    8  A    between atoms: C13_15  and  C15_17
REMARK    9  A    between atoms: C15_17  and  O2_18
REMARK   10  A    between atoms: C15_17  and  C16_20
ROOT
HETATM    1  C11 UNL     1      -0.763  39.695   2.353  1.00  0.00     0.172 C
HETATM    2  C12 UNL     1      -0.022  39.694   1.064  1.00  0.00     0.203 C
HETATM    3  O1  UNL     1       0.874  38.684   0.866  1.00  0.00    -0.373 OA
HETATM    4  C13 UNL     1       1.621  38.290   1.940  1.00  0.00     0.107 C
HETATM    5  C14 UNL     1       2.696  39.265   2.328  1.00  0.00     0.051 C
HETATM    6  C18 UNL     1       0.711  38.082   3.117  1.00  0.00     0.209 C
HETATM    7  O3  UNL     1      -0.018  39.218   3.425  1.00  0.00    -0.378 OA
ENDROOT
BRANCH   1   8
HETATM    8  C8  UNL     1      -1.212  41.079   2.732  1.00  0.00     0.052 C
HETATM    9  C9  UNL     1      -0.063  41.809   3.447  1.00  0.00     0.041 C
HETATM   10  C10 UNL     1      -1.453  41.933   1.480  1.00  0.00     0.041 C
BRANCH   8  11
HETATM   11  N1  UNL     1      -2.349  41.177   3.558  1.00  0.00    -0.386 N
HETATM   12  C7  UNL     1      -3.607  40.945   3.009  1.00  0.00     0.149 C
BRANCH  11  13
HETATM   13  C6  UNL     1      -2.190  41.567   4.884  1.00  0.00     0.058 C
BRANCH  13  14
HETATM   14  C5  UNL     1      -2.415  40.547   5.944  1.00  0.00     0.044 C
BRANCH  14  15
HETATM   15  C4  UNL     1      -1.225  40.040   6.666  1.00  0.00     0.009 C
BRANCH  15  16
HETATM   16  C3  UNL     1      -1.561  38.674   7.277  1.00  0.00     0.026 C
BRANCH  16  17
HETATM   17  C2  UNL     1      -0.811  38.404   8.521  1.00  0.00    -0.037 C
HETATM   18  C1  UNL     1      -0.384  39.411   9.293  1.00  0.00     0.007 C
ENDBRANCH  16  17
ENDBRANCH  15  16
ENDBRANCH  14  15
ENDBRANCH  13  14
ENDBRANCH  11  13
ENDBRANCH   8  11
ENDBRANCH   1   8
BRANCH   4  19
HETATM   19  C15 UNL     1       2.307  36.983   1.608  1.00  0.00     0.176 C
BRANCH  19  20
HETATM   20  O2  UNL     1       3.679  37.143   1.592  1.00  0.00    -0.389 OA
ATOM     21  H2  UNL     1       4.115  36.314   1.751  1.00  0.00     0.210 HD
ENDBRANCH  19  20
BRANCH  19  22
HETATM   22  C16 UNL     1       1.815  35.910   2.486  1.00  0.00    -0.003 C
HETATM   23  C17 UNL     1       2.248  34.670   2.489  1.00  0.00     0.009 C
ENDBRANCH  19  22
ENDBRANCH   4  19
TORSDOF 10
ENDMDL