MODEL 4
REMARK VINA RESULT: -5.469106238      3.158      6.165
REMARK  10 active torsions:
REMARK  status: ('A' for Active; 'I' for Inactive)
REMARK    1  A    between atoms: C2_2  and  C3_3
REMARK    2  A    between atoms: C4_4  and  C5_5
REMARK    3  A    between atoms: C6_6  and  C7_7
REMARK    4  A    between atoms: C9_10  and  C10_11
REMARK    5  A    between atoms: C10_11  and  O2_12
REMARK    6  A    between atoms: O2_12  and  C11_13
REMARK    7  A    between atoms: C11_13  and  C12_15
REMARK    8  A    between atoms: C12_15  and  C13_16
REMARK    9  A    between atoms: C12_15  and  N1_18
REMARK   10  A    between atoms: N1_18  and  C15_21
ROOT
HETATM    1  O2  UNL     1      -2.638  41.345   0.514  1.00  0.00    -0.317 OA
ENDROOT
BRANCH   1   2
HETATM    2  C10 UNL     1      -2.077  40.117   0.606  1.00  0.00     0.211 C
BRANCH   2   3
HETATM    3  C9  UNL     1      -0.668  40.079   1.075  1.00  0.00     0.157 C
HETATM    4  C3  UNL     1      -0.523  40.038   2.552  1.00  0.00     0.071 C
HETATM    5  C4  UNL     1       0.441  38.917   2.173  1.00  0.00     0.154 C
HETATM    6  O1  UNL     1       0.089  38.984   0.825  1.00  0.00    -0.373 OA
BRANCH   4   7
HETATM    7  C2  UNL     1       0.014  41.182   3.264  1.00  0.00    -0.027 C
HETATM    8  C1  UNL     1      -0.387  41.562   4.460  1.00  0.00     0.007 C
ENDBRANCH   4   7
BRANCH   5   9
HETATM    9  C5  UNL     1       1.833  39.260   2.427  1.00  0.00     0.001 C
HETATM   10  C6  UNL     1       2.859  38.491   2.252  1.00  0.00    -0.028 C
BRANCH  10  11
HETATM   11  C7  UNL     1       2.810  37.110   1.755  1.00  0.00     0.022 C
HETATM   12  C8  UNL     1       2.555  36.116   2.881  1.00  0.00     0.009 C
ENDBRANCH  10  11
ENDBRANCH   5   9
ENDBRANCH   2   3
ENDBRANCH   1   2
BRANCH   1  13
HETATM   13  C11 UNL     1      -2.329  42.596   0.153  1.00  0.00     0.289 C
HETATM   14  O3  UNL     1      -2.143  43.447   1.038  1.00  0.00    -0.263 OA
BRANCH  13  15
HETATM   15  C12 UNL     1      -2.203  43.016  -1.293  1.00  0.00     0.284 C
BRANCH  15  16
HETATM   16  C13 UNL     1      -3.356  42.397  -2.014  1.00  0.00     0.039 C
HETATM   17  C14 UNL     1      -4.618  43.214  -1.854  1.00  0.00     0.007 C
ENDBRANCH  15  16
BRANCH  15  18
HETATM   18  N1  UNL     1      -0.897  42.792  -1.773  1.00  0.00    -0.057 N
ATOM     19  H12 UNL     1      -0.450  42.035  -1.254  1.00  0.00     0.278 HD
ATOM     20  H11 UNL     1      -0.925  42.371  -2.702  1.00  0.00     0.278 HD
BRANCH  18  21
HETATM   21  C15 UNL     1      -0.055  43.974  -1.773  1.00  0.00     0.191 A
HETATM   22  C16 UNL     1       1.373  43.821  -2.249  1.00  0.00     0.039 A
HETATM   23  C17 UNL     1       1.103  44.076  -0.811  1.00  0.00     0.014 A
HETATM   24  C18 UNL     1       1.347  42.939   0.138  1.00  0.00     0.012 C
ENDBRANCH  18  21
ENDBRANCH  15  18
ENDBRANCH  13  15
ENDBRANCH   1  13
TORSDOF 10
ENDMDL