MODEL 3
REMARK VINA RESULT: -5.588276251      2.176      3.046
REMARK  9 active torsions:
REMARK  status: ('A' for Active; 'I' for Inactive)
REMARK    1  A    between atoms: C4_5  and  C5_6
REMARK    2  A    between atoms: C5_6  and  C6_7
REMARK    3  A    between atoms: C6_7  and  O1_8
REMARK    4  A    between atoms: O1_8  and  C7_9
REMARK    5  A    between atoms: C7_9  and  C8_10
REMARK    6  A    between atoms: C8_10  and  O2_11
REMARK    7  A    between atoms: C8_10  and  C9_13
REMARK    8  A    between atoms: C9_13  and  O3_14
REMARK    9  A    between atoms: O3_14  and  C10_15
ROOT
HETATM    1  C7  UNL     1      -2.208  41.400  -0.803  1.00  0.00     0.201 C
ENDROOT
BRANCH   1   2
HETATM    2  O1  UNL     1      -1.225  41.963  -1.549  1.00  0.00    -0.389 OA
BRANCH   2   3
HETATM    3  C6  UNL     1      -0.609  43.046  -0.958  1.00  0.00     0.168 C
BRANCH   3   4
HETATM    4  C5  UNL     1       0.666  42.664  -0.199  1.00  0.00     0.031 C
BRANCH   4   5
HETATM    5  C4  UNL     1       0.678  43.414   1.113  1.00  0.00    -0.009 C
HETATM    6  C3  UNL     1       1.399  44.741   1.015  1.00  0.00     0.035 C
HETATM    7  C2  UNL     1       0.743  45.797   1.874  1.00  0.00     0.272 C
HETATM    8  N1  UNL     1       0.251  45.300   3.114  1.00  0.00     0.084 N
HETATM    9  C1  UNL     1      -0.461  46.370   3.789  1.00  0.00     0.309 C
HETATM   10  C17 UNL     1      -0.570  44.143   3.069  1.00  0.00     0.272 C
HETATM   11  C16 UNL     1      -0.717  43.607   1.663  1.00  0.00     0.035 C
ENDBRANCH   4   5
ENDBRANCH   3   4
ENDBRANCH   2   3
ENDBRANCH   1   2
BRANCH   1  12
HETATM   12  C8  UNL     1      -1.971  39.970  -0.367  1.00  0.00     0.165 C
BRANCH  12  13
HETATM   13  O2  UNL     1      -1.193  39.359  -1.311  1.00  0.00    -0.391 OA
ATOM     14  H2  UNL     1      -0.560  38.810  -0.863  1.00  0.00     0.210 HD
ENDBRANCH  12  13
BRANCH  12  15
HETATM   15  C9  UNL     1      -1.414  39.954   1.037  1.00  0.00     0.202 C
BRANCH  15  16
HETATM   16  O3  UNL     1      -0.510  39.011   1.338  1.00  0.00    -0.383 OA
BRANCH  16  17
HETATM   17  C10 UNL     1      -0.014  38.866   2.580  1.00  0.00     0.121 C
HETATM   18  C11 UNL     1       0.821  37.619   2.787  1.00  0.00     0.032 C
HETATM   19  C12 UNL     1       1.948  37.522   1.802  1.00  0.00     0.002 C
HETATM   20  C13 UNL     1       2.917  38.662   2.130  1.00  0.00     0.000 C
HETATM   21  C14 UNL     1       2.157  39.944   1.948  1.00  0.00     0.002 C
HETATM   22  C15 UNL     1       0.939  40.040   2.836  1.00  0.00     0.032 C
ENDBRANCH  16  17
ENDBRANCH  15  16
ENDBRANCH  12  15
ENDBRANCH   1  12
TORSDOF 9
ENDMDL