MODEL 4
REMARK VINA RESULT: -6.081438191      2.062      3.656
REMARK  10 active torsions:
REMARK  status: ('A' for Active; 'I' for Inactive)
REMARK    1  A    between atoms: C2_2  and  C3_3
REMARK    2  A    between atoms: C3_3  and  C4_4
REMARK    3  A    between atoms: C4_4  and  C5_5
REMARK    4  A    between atoms: C5_5  and  C6_6
REMARK    5  A    between atoms: C7_7  and  C8_8
REMARK    6  A    between atoms: C8_8  and  N1_9
REMARK    7  A    between atoms: C11_12  and  O1_13
REMARK    8  A    between atoms: O1_13  and  C12_14
REMARK    9  A    between atoms: C12_14  and  C13_15
REMARK   10  A    between atoms: C13_15  and  O2_16
ROOT
HETATM    1  N1  UNL     1       0.136  39.895   0.955  1.00  0.00     0.129 N
HETATM    2  C9  UNL     1      -0.248  39.352   2.237  1.00  0.00     0.423 C
HETATM    3  C10 UNL     1       0.726  38.308   2.736  1.00  0.00     0.104 C
HETATM    4  C11 UNL     1       2.147  38.520   2.309  1.00  0.00     0.071 A
HETATM    5  C15 UNL     1       2.925  39.581   3.041  1.00  0.00     0.048 A
HETATM    6  C16 UNL     1       2.467  39.816   1.679  1.00  0.00     0.058 A
HETATM    7  C17 UNL     1       1.284  40.685   1.361  1.00  0.00     0.258 C
HETATM    8  C18 UNL     1       0.772  41.410   2.566  1.00  0.00     0.271 C
HETATM    9  N2  UNL     1      -0.254  40.548   3.055  1.00  0.00    -0.041 N
ATOM     10  H21 UNL     1      -0.163  40.348   4.051  1.00  0.00     0.279 HD
ATOM     11  H22 UNL     1      -1.168  40.998   3.093  1.00  0.00     0.279 HD
ENDROOT
BRANCH   1  12
HETATM   12  C8  UNL     1      -0.912  40.801   0.519  1.00  0.00     0.303 C
BRANCH  12  13
HETATM   13  C7  UNL     1      -1.996  40.118  -0.192  1.00  0.00    -0.001 C
HETATM   14  C6  UNL     1      -3.253  40.174   0.157  1.00  0.00    -0.029 C
BRANCH  14  15
HETATM   15  C5  UNL     1      -3.775  40.908   1.286  1.00  0.00     0.027 C
BRANCH  15  16
HETATM   16  C4  UNL     1      -5.172  40.721   1.737  1.00  0.00     0.004 C
BRANCH  16  17
HETATM   17  C3  UNL     1      -6.258  40.318   0.859  1.00  0.00    -0.000 C
BRANCH  17  18
HETATM   18  C2  UNL     1      -6.677  41.267  -0.187  1.00  0.00    -0.005 C
HETATM   19  C1  UNL     1      -6.722  40.477  -1.521  1.00  0.00     0.005 C
ENDBRANCH  17  18
ENDBRANCH  16  17
ENDBRANCH  15  16
ENDBRANCH  14  15
ENDBRANCH  12  13
ENDBRANCH   1  12
BRANCH   4  20
HETATM   20  O1  UNL     1       2.841  37.440   1.885  1.00  0.00    -0.378 OA
BRANCH  20  21
HETATM   21  C12 UNL     1       2.290  36.263   1.600  1.00  0.00     0.195 C
BRANCH  21  22
HETATM   22  C13 UNL     1       2.549  35.075   2.457  1.00  0.00     0.193 C
BRANCH  22  23
HETATM   23  O2  UNL     1       2.550  33.884   1.672  1.00  0.00    -0.394 OA
HETATM   24  C14 UNL     1       2.814  32.792   2.507  1.00  0.00     0.201 C
ENDBRANCH  22  23
ENDBRANCH  21  22
ENDBRANCH  20  21
ENDBRANCH   4  20
TORSDOF 10
ENDMDL