MODEL 5
REMARK VINA RESULT: -5.167637155      1.944      2.406
REMARK  10 active torsions:
REMARK  status: ('A' for Active; 'I' for Inactive)
REMARK    1  A    between atoms: C2_2  and  C3_3
REMARK    2  A    between atoms: C3_3  and  C5_5
REMARK    3  A    between atoms: C5_5  and  C7_7
REMARK    4  A    between atoms: C5_5  and  C14_17
REMARK    5  A    between atoms: C7_7  and  C8_8
REMARK    6  A    between atoms: C8_8  and  C9_9
REMARK    7  A    between atoms: C9_9  and  N1_10
REMARK    8  A    between atoms: N1_10  and  C12_13
REMARK    9  A    between atoms: C12_13  and  C13_14
REMARK   10  A    between atoms: C13_14  and  O1_15
ROOT
HETATM    1  C5  UNL     1       0.625  40.054   1.875  1.00  0.00     0.013 C
HETATM    2  C6  UNL     1       1.399  41.225   1.284  1.00  0.00     0.023 C
ENDROOT
BRANCH   1   3
HETATM    3  C3  UNL     1       1.617  39.010   2.411  1.00  0.00     0.018 C
HETATM    4  C4  UNL     1       2.947  39.597   2.730  1.00  0.00     0.015 C
BRANCH   3   5
HETATM    5  C2  UNL     1       1.619  37.751   1.647  1.00  0.00    -0.031 C
HETATM    6  C1  UNL     1       2.338  36.694   1.947  1.00  0.00     0.007 C
ENDBRANCH   3   5
ENDBRANCH   1   3
BRANCH   1   7
HETATM    7  C7  UNL     1      -0.286  39.376   0.968  1.00  0.00     0.018 C
BRANCH   7   8
HETATM    8  C8  UNL     1      -1.108  40.240  -0.001  1.00  0.00     0.029 C
BRANCH   8   9
HETATM    9  C9  UNL     1      -2.527  39.999   0.427  1.00  0.00     0.236 C
BRANCH   9  10
HETATM   10  N1  UNL     1      -3.290  41.168   0.783  1.00  0.00    -0.073 N
HETATM   11  C10 UNL     1      -2.601  42.409   0.598  1.00  0.00     0.272 C
HETATM   12  C11 UNL     1      -3.543  41.022   2.212  1.00  0.00     0.272 C
BRANCH  10  13
HETATM   13  C12 UNL     1      -4.526  41.213   0.051  1.00  0.00     0.262 C
BRANCH  13  14
HETATM   14  C13 UNL     1      -5.650  40.463   0.702  1.00  0.00     0.192 C
BRANCH  14  15
HETATM   15  O1  UNL     1      -6.127  39.435  -0.146  1.00  0.00    -0.399 OA
ATOM     16  H1  UNL     1      -6.922  39.051   0.204  1.00  0.00     0.209 HD
ENDBRANCH  14  15
ENDBRANCH  13  14
ENDBRANCH  10  13
ENDBRANCH   9  10
ENDBRANCH   8   9
ENDBRANCH   7   8
ENDBRANCH   1   7
BRANCH   1  17
HETATM   17  C14 UNL     1      -0.008  40.660   3.119  1.00  0.00     0.077 A
HETATM   18  N2  UNL     1      -0.567  40.080   4.165  1.00  0.00    -0.297 N
HETATM   19  N3  UNL     1      -0.972  40.777   5.145  1.00  0.00    -0.298 N
ATOM     20  H2  UNL     1      -0.673  39.065   4.186  1.00  0.00     0.187 HD
HETATM   21  C15 UNL     1      -0.831  42.109   5.119  1.00  0.00     0.064 A
ATOM     22  H3  UNL     1      -1.404  40.324   5.950  1.00  0.00     0.187 HD
HETATM   23  C16 UNL     1      -1.244  43.042   6.179  1.00  0.00     0.078 C
HETATM   24  S1  UNL     1      -0.081  42.315   3.601  1.00  0.00    -0.060 SA
ENDBRANCH   1  17
TORSDOF 10
ENDMDL