MODEL 4
REMARK VINA RESULT: -5.379516977      1.007      1.188
REMARK  10 active torsions:
REMARK  status: ('A' for Active; 'I' for Inactive)
REMARK    1  A    between atoms: C2_2  and  C3_3
REMARK    2  A    between atoms: C3_3  and  O1_4
REMARK    3  A    between atoms: C3_3  and  C4_6
REMARK    4  A    between atoms: C4_6  and  C5_7
REMARK    5  A    between atoms: C4_6  and  C7_9
REMARK    6  A    between atoms: C4_6  and  O2_11
REMARK    7  A    between atoms: O2_11  and  C9_12
REMARK    8  A    between atoms: C9_12  and  C10_13
REMARK    9  A    between atoms: N1_16  and  C13_17
REMARK   10  A    between atoms: C13_17  and  C14_18
ROOT
HETATM    1  C9  UNL     1       0.318  41.504   2.569  1.00  0.00     0.174 C
ENDROOT
BRANCH   1   2
HETATM    2  O2  UNL     1       0.823  42.443   1.857  1.00  0.00    -0.377 OA
BRANCH   2   3
HETATM    3  C4  UNL     1       0.363  43.212   0.866  1.00  0.00     0.086 C
BRANCH   3   4
HETATM    4  C3  UNL     1      -1.037  42.789   0.440  1.00  0.00     0.152 C
BRANCH   4   5
HETATM    5  C2  UNL     1      -1.186  41.977  -0.767  1.00  0.00     0.030 C
HETATM    6  C1  UNL     1      -1.812  40.613  -0.610  1.00  0.00     0.007 C
ENDBRANCH   4   5
BRANCH   4   7
HETATM    7  O1  UNL     1      -1.932  43.835   0.449  1.00  0.00    -0.393 OA
ATOM      8  H1  UNL     1      -2.825  43.520   0.523  1.00  0.00     0.210 HD
ENDBRANCH   4   7
ENDBRANCH   3   4
BRANCH   3   9
HETATM    9  C5  UNL     1       0.225  44.669   1.195  1.00  0.00     0.036 C
HETATM   10  C6  UNL     1       0.498  45.091   2.584  1.00  0.00     0.008 C
ENDBRANCH   3   9
BRANCH   3  11
HETATM   11  C7  UNL     1       1.394  43.082  -0.247  1.00  0.00     0.036 C
HETATM   12  C8  UNL     1       2.356  44.184  -0.413  1.00  0.00     0.008 C
ENDBRANCH   3  11
ENDBRANCH   2   3
ENDBRANCH   1   2
BRANCH   1  13
HETATM   13  C10 UNL     1       0.938  40.185   2.777  1.00  0.00     0.016 C
HETATM   14  C11 UNL     1       2.205  39.913   1.984  1.00  0.00     0.027 C
HETATM   15  C12 UNL     1       2.843  38.701   2.636  1.00  0.00     0.122 C
HETATM   16  N1  UNL     1       1.975  37.565   2.652  1.00  0.00    -0.389 N
HETATM   17  C16 UNL     1       0.623  37.787   2.974  1.00  0.00     0.059 C
HETATM   18  C17 UNL     1       0.008  39.027   2.378  1.00  0.00     0.051 C
BRANCH  16  19
HETATM   19  C13 UNL     1       2.235  36.606   1.634  1.00  0.00     0.166 C
BRANCH  19  20
HETATM   20  C14 UNL     1       2.508  35.239   2.161  1.00  0.00     0.074 C
HETATM   21  N2  UNL     1       3.358  35.082   3.100  1.00  0.00    -0.405 N
HETATM   22  C15 UNL     1       3.653  33.800   3.637  1.00  0.00     0.145 C
ATOM     23  H2  UNL     1       3.839  35.899   3.475  1.00  0.00     0.158 HD
ENDBRANCH  19  20
ENDBRANCH  16  19
ENDBRANCH   1  13
TORSDOF 10
ENDMDL