MODEL 3
REMARK VINA RESULT: -5.822613009      2.566      3.482
REMARK  10 active torsions:
REMARK  status: ('A' for Active; 'I' for Inactive)
REMARK    1  A    between atoms: C2_2  and  C3_3
REMARK    2  A    between atoms: C3_3  and  C4_4
REMARK    3  A    between atoms: C4_4  and  C5_5
REMARK    4  A    between atoms: C5_5  and  C6_6
REMARK    5  A    between atoms: C5_5  and  C10_11
REMARK    6  A    between atoms: C6_6  and  N1_7
REMARK    7  A    between atoms: C10_11  and  C11_12
REMARK    8  A    between atoms: C14_16  and  C15_17
REMARK    9  A    between atoms: C15_17  and  C16_18
REMARK   10  A    between atoms: C16_18  and  O2_20
ROOT
HETATM    1  C10 UNL     1       0.801  39.578   2.443  1.00  0.00     0.169 C
HETATM    2  O1  UNL     1       2.087  40.084   2.635  1.00  0.00    -0.352 OA
HETATM    3  C13 UNL     1       2.919  39.003   2.240  1.00  0.00     0.203 C
HETATM    4  C14 UNL     1       2.145  37.790   2.575  1.00  0.00     0.151 C
HETATM    5  O3  UNL     1       0.859  38.254   2.862  1.00  0.00    -0.347 OA
ENDROOT
BRANCH   1   6
HETATM    6  C5  UNL     1      -0.219  40.370   3.159  1.00  0.00     0.076 C
BRANCH   6   7
HETATM    7  C4  UNL     1       0.318  41.790   3.477  1.00  0.00     0.012 C
BRANCH   7   8
HETATM    8  C3  UNL     1      -0.284  42.775   2.547  1.00  0.00     0.000 C
BRANCH   8   9
HETATM    9  C2  UNL     1       0.643  43.616   1.746  1.00  0.00    -0.005 C
HETATM   10  C1  UNL     1       1.245  42.979   0.547  1.00  0.00     0.005 C
ENDBRANCH   8   9
ENDBRANCH   7   8
ENDBRANCH   6   7
BRANCH   6  11
HETATM   11  C6  UNL     1      -0.785  39.849   4.419  1.00  0.00     0.282 C
BRANCH  11  12
HETATM   12  N1  UNL     1      -1.228  40.759   5.427  1.00  0.00     0.089 N
HETATM   13  C7  UNL     1      -1.397  40.081   6.742  1.00  0.00     0.274 A
HETATM   14  C8  UNL     1      -2.874  40.094   6.659  1.00  0.00     0.060 A
HETATM   15  C9  UNL     1      -2.693  40.828   5.385  1.00  0.00     0.274 A
ENDBRANCH  11  12
ENDBRANCH   6  11
ENDBRANCH   1   6
BRANCH   1  16
HETATM   16  C11 UNL     1       0.508  39.512   0.948  1.00  0.00     0.064 C
HETATM   17  C12 UNL     1      -0.935  39.716   0.617  1.00  0.00     0.010 C
ENDBRANCH   1  16
BRANCH   4  18
HETATM   18  C15 UNL     1       2.177  36.639   1.662  1.00  0.00     0.065 C
BRANCH  18  19
HETATM   19  C16 UNL     1       2.181  35.317   2.398  1.00  0.00     0.116 C
HETATM   20  C17 UNL     1       3.373  35.234   3.324  1.00  0.00     0.039 C
BRANCH  19  21
HETATM   21  O2  UNL     1       2.252  34.298   1.472  1.00  0.00    -0.396 OA
ATOM     22  H2  UNL     1       1.849  33.522   1.843  1.00  0.00     0.210 HD
ENDBRANCH  19  21
ENDBRANCH  18  19
ENDBRANCH   4  18
TORSDOF 10
ENDMDL