MODEL 4
REMARK VINA RESULT: -5.077623975      2.747      4.635
REMARK  10 active torsions:
REMARK  status: ('A' for Active; 'I' for Inactive)
REMARK    1  A    between atoms: C2_2  and  C3_3
REMARK    2  A    between atoms: C3_3  and  N1_5
REMARK    3  A    between atoms: N1_5  and  C5_6
REMARK    4  A    between atoms: C5_6  and  C6_7
REMARK    5  A    between atoms: C8_9  and  C9_10
REMARK    6  A    between atoms: C9_10  and  N2_11
REMARK    7  A    between atoms: C9_10  and  C10_15
REMARK    8  A    between atoms: C10_15  and  O1_16
REMARK    9  A    between atoms: O1_16  and  C11_17
REMARK   10  A    between atoms: C11_17  and  C12_19
ROOT
HETATM    1  C9  UNL     1      -2.369  42.174  -0.422  1.00  0.00     0.246 C
ENDROOT
BRANCH   1   2
HETATM    2  C8  UNL     1      -3.428  41.099  -0.381  1.00  0.00     0.098 C
HETATM    3  N1  UNL     1      -4.230  40.916   0.683  1.00  0.00    -0.364 N
BRANCH   3   4
HETATM    4  C3  UNL     1      -5.503  40.252   0.350  1.00  0.00     0.106 C
HETATM    5  C4  UNL     1      -6.408  40.524   1.545  1.00  0.00     0.037 C
BRANCH   4   6
HETATM    6  C2  UNL     1      -6.115  40.777  -0.905  1.00  0.00    -0.012 C
HETATM    7  C1  UNL     1      -7.048  40.106  -1.475  1.00  0.00     0.009 C
ENDBRANCH   4   6
ENDBRANCH   3   4
BRANCH   3   8
HETATM    8  C5  UNL     1      -4.265  41.339   1.988  1.00  0.00     0.063 C
BRANCH   8   9
HETATM    9  C6  UNL     1      -3.231  40.945   2.985  1.00  0.00     0.040 C
HETATM   10  C7  UNL     1      -2.601  42.223   3.618  1.00  0.00     0.010 C
ENDBRANCH   8   9
ENDBRANCH   3   8
ENDBRANCH   1   2
BRANCH   1  11
HETATM   11  N2  UNL     1      -2.363  42.648  -1.849  1.00  0.00    -0.068 N
ATOM     12  H23 UNL     1      -1.432  42.712  -2.261  1.00  0.00     0.275 HD
ATOM     13  H22 UNL     1      -2.735  41.970  -2.513  1.00  0.00     0.275 HD
ATOM     14  H21 UNL     1      -2.870  43.532  -1.829  1.00  0.00     0.275 HD
ENDBRANCH   1  11
BRANCH   1  15
HETATM   15  C10 UNL     1      -1.014  41.484  -0.320  1.00  0.00     0.217 C
BRANCH  15  16
HETATM   16  O1  UNL     1      -0.618  41.091   0.939  1.00  0.00    -0.319 OA
BRANCH  16  17
HETATM   17  C11 UNL     1       0.688  41.269   1.363  1.00  0.00     0.263 C
HETATM   18  O2  UNL     1       1.404  42.049   0.669  1.00  0.00    -0.265 OA
BRANCH  17  19
HETATM   19  C12 UNL     1       1.263  40.586   2.580  1.00  0.00     0.085 C
HETATM   20  C13 UNL     1       0.272  39.496   2.954  1.00  0.00     0.015 C
HETATM   21  C14 UNL     1       0.530  38.240   2.155  1.00  0.00     0.005 C
HETATM   22  C15 UNL     1       1.828  37.661   2.626  1.00  0.00    -0.019 C
HETATM   23  C16 UNL     1       2.213  36.428   1.788  1.00  0.00     0.010 C
HETATM   24  C17 UNL     1       2.917  38.652   2.543  1.00  0.00     0.005 C
HETATM   25  C18 UNL     1       2.595  40.053   2.209  1.00  0.00     0.015 C
ENDBRANCH  17  19
ENDBRANCH  16  17
ENDBRANCH  15  16
ENDBRANCH   1  15
TORSDOF 10
ENDMDL