MODEL 3
REMARK VINA RESULT: -6.902789869      1.840      5.444
REMARK  4 active torsions:
REMARK  status: ('A' for Active; 'I' for Inactive)
REMARK    1  A    between atoms: N3_17  and  C11_18
REMARK    2  A    between atoms: C11_18  and  C12_19
REMARK    3  A    between atoms: C12_19  and  C13_20
REMARK    4  A    between atoms: C15_22  and  N4_24
ROOT
HETATM    1  C1  UNL     1      -3.962   0.812  15.450  1.00  0.00     0.024 C
HETATM    2  C2  UNL     1      -4.833   1.794  15.436  1.00  0.00    -0.004 C
HETATM    3  C3  UNL     1      -5.971   1.940  16.328  1.00  0.00     0.102 C
HETATM    4  N1  UNL     1      -6.327   1.133  17.268  1.00  0.00    -0.385 N
ATOM      5  H11 UNL     1      -7.126   1.236  17.893  1.00  0.00     0.157 HD
ATOM      6  H12 UNL     1      -5.850   0.267  17.519  1.00  0.00     0.157 HD
HETATM    7  N2  UNL     1      -6.646   3.167  15.971  1.00  0.00    -0.369 N
ATOM      8  H2  UNL     1      -7.336   3.649  16.548  1.00  0.00     0.161 HD
HETATM    9  C4  UNL     1      -6.189   3.610  14.662  1.00  0.00     0.114 C
HETATM   10  C5  UNL     1      -5.433   4.943  14.698  1.00  0.00    -0.017 C
HETATM   11  C6  UNL     1      -5.561   5.708  13.427  1.00  0.00     0.018 C
HETATM   12  C7  UNL     1      -5.998   5.767  15.851  1.00  0.00     0.018 C
HETATM   13  C8  UNL     1      -4.205   4.196  14.983  1.00  0.00     0.076 C
HETATM   14  C9  UNL     1      -4.850   2.933  14.541  1.00  0.00     0.100 C
HETATM   15  C10 UNL     1      -4.337   2.747  13.174  1.00  0.00     0.237 C
HETATM   16  O1  UNL     1      -4.872   1.932  12.355  1.00  0.00    -0.272 OA
HETATM   17  N3  UNL     1      -3.206   3.582  12.930  1.00  0.00    -0.318 N
HETATM   18  C15 UNL     1      -3.005   4.327  14.148  1.00  0.00     0.202 C
HETATM   19  C16 UNL     1      -2.628   5.747  13.949  1.00  0.00     0.071 C
ENDROOT
BRANCH  18  20
HETATM   20  N4  UNL     1      -1.897   3.652  14.847  1.00  0.00    -0.052 N
ATOM     21  H43 UNL     1      -2.127   3.406  15.810  1.00  0.00     0.277 HD
ATOM     22  H42 UNL     1      -1.730   2.706  14.504  1.00  0.00     0.277 HD
ATOM     23  H41 UNL     1      -1.075   4.251  14.776  1.00  0.00     0.277 HD
ENDBRANCH  18  20
BRANCH  17  24
HETATM   24  C11 UNL     1      -2.511   3.580  11.691  1.00  0.00     0.128 C
BRANCH  24  25
HETATM   25  C12 UNL     1      -1.378   2.593  11.610  1.00  0.00     0.020 C
BRANCH  25  26
HETATM   26  C13 UNL     1      -1.777   1.536  10.581  1.00  0.00    -0.003 C
HETATM   27  C14 UNL     1      -2.152   0.246  11.285  1.00  0.00     0.005 C
ENDBRANCH  25  26
ENDBRANCH  24  25
ENDBRANCH  17  24
TORSDOF 4
ENDMDL