MODEL 1
REMARK VINA RESULT: -6.826301685      0.000      0.000
REMARK  5 active torsions:
REMARK  status: ('A' for Active; 'I' for Inactive)
REMARK    1  A    between atoms: C2_2  and  C3_3
REMARK    2  A    between atoms: C3_3  and  N1_4
REMARK    3  A    between atoms: N1_4  and  C4_6
REMARK    4  A    between atoms: C7_11  and  C8_12
REMARK       I    between atoms: C8_12  and  N3_14
REMARK    5  A    between atoms: N3_14  and  C9_16
ROOT
HETATM    1  C4  UNL     1      -4.463   0.766  15.529  1.00  0.00     0.145 A
HETATM    2  N2  UNL     1      -4.583   0.106  14.373  1.00  0.00    -0.339 N
ATOM      3  H2  UNL     1      -5.038  -0.806  14.338  1.00  0.00     0.168 HD
HETATM    4  C5  UNL     1      -4.106   0.658  13.289  1.00  0.00     0.030 A
HETATM    5  C6  UNL     1      -4.191  -0.008  11.928  1.00  0.00     0.070 C
HETATM    6  C7  UNL     1      -3.507   1.881  13.395  1.00  0.00     0.098 A
HETATM    7  S1  UNL     1      -3.655   2.198  15.071  1.00  0.00    -0.047 SA
ENDROOT
BRANCH   6   8
HETATM    8  C8  UNL     1      -2.894   2.724  12.373  1.00  0.00     0.266 C
HETATM    9  O1  UNL     1      -3.470   3.790  12.054  1.00  0.00    -0.267 OA
HETATM   10  N3  UNL     1      -1.700   2.369  11.757  1.00  0.00    -0.307 N
ATOM     11  H3  UNL     1      -1.613   1.423  11.385  1.00  0.00     0.170 HD
BRANCH  10  12
HETATM   12  C9  UNL     1      -0.699   3.167  11.629  1.00  0.00     0.124 A
HETATM   13  C10 UNL     1       0.170   3.252  10.570  1.00  0.00     0.076 A
HETATM   14  C11 UNL     1       1.096   4.253  10.862  1.00  0.00     0.025 A
HETATM   15  C12 UNL     1       2.212   4.665   9.975  1.00  0.00     0.070 C
HETATM   16  N4  UNL     1       0.755   4.722  12.067  1.00  0.00    -0.304 N
HETATM   17  N5  UNL     1      -0.301   4.086  12.523  1.00  0.00    -0.285 N
ATOM     18  H4  UNL     1       1.246   5.467  12.562  1.00  0.00     0.186 HD
ATOM     19  H5  UNL     1      -0.752   4.265  13.420  1.00  0.00     0.188 HD
ENDBRANCH  10  12
ENDBRANCH   6   8
BRANCH   1  20
HETATM   20  N1  UNL     1      -4.850   0.436  16.732  1.00  0.00    -0.370 N
ATOM     21  H1  UNL     1      -4.210  -0.006  17.393  1.00  0.00     0.161 HD
BRANCH  20  22
HETATM   22  C3  UNL     1      -6.221   0.723  17.091  1.00  0.00     0.121 C
BRANCH  22  23
HETATM   23  C2  UNL     1      -6.343   1.999  17.885  1.00  0.00     0.015 C
HETATM   24  C1  UNL     1      -6.858   3.096  16.989  1.00  0.00     0.006 C
ENDBRANCH  22  23
ENDBRANCH  20  22
ENDBRANCH   1  20
TORSDOF 5
ENDMDL