MODEL 5
REMARK VINA RESULT: -7.530305887      2.559      5.875
REMARK  3 active torsions:
REMARK  status: ('A' for Active; 'I' for Inactive)
REMARK    1  A    between atoms: C2_2  and  C3_3
REMARK    2  A    between atoms: C4_6  and  C5_7
REMARK    3  A    between atoms: C5_7  and  C6_9
ROOT
HETATM    1  C3  UNL     1      -6.114   2.315  15.583  1.00  0.00     0.015 A
HETATM    2  N1  UNL     1      -5.516   1.929  14.440  1.00  0.00    -0.355 N
ATOM      3  H1  UNL     1      -5.427   0.932  14.240  1.00  0.00     0.166 HD
HETATM    4  C4  UNL     1      -5.031   2.817  13.554  1.00  0.00     0.090 A
HETATM    5  C10 UNL     1      -5.187   4.161  13.911  1.00  0.00    -0.025 A
HETATM    6  C11 UNL     1      -4.553   5.178  13.037  1.00  0.00     0.051 C
HETATM    7  C12 UNL     1      -5.791   4.591  15.052  1.00  0.00    -0.046 A
HETATM    8  C13 UNL     1      -5.979   6.004  15.432  1.00  0.00     0.049 C
HETATM    9  C14 UNL     1      -6.283   3.643  15.934  1.00  0.00    -0.033 A
HETATM   10  C15 UNL     1      -7.027   4.006  17.163  1.00  0.00     0.050 C
ENDROOT
BRANCH   4  11
HETATM   11  C5  UNL     1      -4.459   2.513  12.283  1.00  0.00     0.216 C
HETATM   12  O1  UNL     1      -5.241   2.672  11.258  1.00  0.00    -0.285 OA
BRANCH  11  13
HETATM   13  C6  UNL     1      -3.132   2.060  11.941  1.00  0.00     0.109 A
HETATM   14  C7  UNL     1      -2.784   0.709  11.765  1.00  0.00     0.042 A
HETATM   15  C8  UNL     1      -3.732  -0.433  11.952  1.00  0.00     0.071 C
HETATM   16  N2  UNL     1      -1.509   0.597  11.456  1.00  0.00    -0.301 N
HETATM   17  N3  UNL     1      -0.989   1.822  11.420  1.00  0.00    -0.266 N
ATOM     18  H2  UNL     1      -1.008  -0.273  11.278  1.00  0.00     0.186 HD
HETATM   19  C9  UNL     1      -1.949   2.734  11.710  1.00  0.00     0.276 A
ATOM     20  H3  UNL     1      -0.016   2.042  11.206  1.00  0.00     0.190 HD
HETATM   21  O2  UNL     1      -1.789   3.971  11.759  1.00  0.00    -0.266 OA
ENDBRANCH  11  13
ENDBRANCH   4  11
BRANCH   1  22
HETATM   22  C2  UNL     1      -6.536   1.291  16.613  1.00  0.00     0.053 C
HETATM   23  C1  UNL     1      -5.293   0.900  17.410  1.00  0.00     0.011 C
ENDBRANCH   1  22
TORSDOF 3
ENDMDL