MODEL 3
REMARK VINA RESULT: -7.601589933      1.972      4.753
REMARK  7 active torsions:
REMARK  status: ('A' for Active; 'I' for Inactive)
REMARK    1  A    between atoms: C3_3  and  C4_4
REMARK    2  A    between atoms: C4_4  and  C7_7
REMARK    3  A    between atoms: C7_7  and  C8_8
REMARK    4  A    between atoms: C8_8  and  C9_9
REMARK    5  A    between atoms: C9_9  and  C10_10
REMARK    6  A    between atoms: C11_13  and  N2_14
REMARK       I    between atoms: N2_14  and  C12_16
REMARK    7  A    between atoms: C15_23  and  O3_24
ROOT
HETATM    1  C1  UNL     1      -6.098   5.049  14.640  1.00  0.00     0.112 C
HETATM    2  C2  UNL     1      -6.188   3.929  15.574  1.00  0.00    -0.110 C
HETATM    3  C3  UNL     1      -6.275   3.000  16.336  1.00  0.00    -0.098 C
ENDROOT
BRANCH   3   4
HETATM    4  C4  UNL     1      -6.401   1.847  17.309  1.00  0.00     0.016 C
HETATM    5  C5  UNL     1      -7.643   1.075  17.007  1.00  0.00     0.029 C
HETATM    6  C6  UNL     1      -6.410   2.517  18.672  1.00  0.00     0.029 C
BRANCH   4   7
HETATM    7  C7  UNL     1      -5.184   1.048  17.083  1.00  0.00     0.022 C
BRANCH   7   8
HETATM    8  C8  UNL     1      -4.363   1.330  15.891  1.00  0.00     0.008 C
BRANCH   8   9
HETATM    9  C9  UNL     1      -4.328   0.347  14.771  1.00  0.00     0.061 C
BRANCH   9  10
HETATM   10  C10 UNL     1      -3.936   1.151  13.542  1.00  0.00     0.065 A
HETATM   11  N1  UNL     1      -3.449   2.412  13.670  1.00  0.00    -0.192 N
HETATM   12  C11 UNL     1      -3.141   3.104  12.560  1.00  0.00     0.688 A
ATOM     13  H1  UNL     1      -3.320   2.827  14.593  1.00  0.00     0.184 HD
HETATM   14  N3  UNL     1      -3.320   2.533  11.351  1.00  0.00    -0.153 N
HETATM   15  C14 UNL     1      -3.799   1.288  11.203  1.00  0.00     0.294 A
ATOM     16  H3  UNL     1      -3.083   3.068  10.516  1.00  0.00     0.187 HD
HETATM   17  O2  UNL     1      -3.963   0.761  10.056  1.00  0.00    -0.265 OA
HETATM   18  C15 UNL     1      -4.133   0.535  12.329  1.00  0.00     0.158 A
BRANCH  12  19
HETATM   19  N2  UNL     1      -2.686   4.304  12.646  1.00  0.00    -0.160 N
HETATM   20  C12 UNL     1      -1.466   4.683  13.242  1.00  0.00     0.231 C
HETATM   21  C13 UNL     1      -0.363   5.324  12.481  1.00  0.00     0.118 C
HETATM   22  O1  UNL     1      -1.348   4.447  14.487  1.00  0.00    -0.273 OA
ATOM     23  H2  UNL     1      -3.260   5.049  12.249  1.00  0.00     0.187 HD
ENDBRANCH  12  19
BRANCH  18  24
HETATM   24  O3  UNL     1      -4.612  -0.723  12.141  1.00  0.00    -0.354 OA
ATOM     25  H3  UNL     1      -4.839  -1.115  11.306  1.00  0.00     0.218 HD
ENDBRANCH  18  24
ENDBRANCH   9  10
ENDBRANCH   8   9
ENDBRANCH   7   8
ENDBRANCH   4   7
ENDBRANCH   3   4
TORSDOF 7
ENDMDL