MODEL 2
REMARK VINA RESULT: -6.423910671      1.935      2.769
REMARK  5 active torsions:
REMARK  status: ('A' for Active; 'I' for Inactive)
REMARK    1  A    between atoms: C3_5  and  N2_6
REMARK       I    between atoms: N2_6  and  C4_8
REMARK       I    between atoms: C4_8  and  N4_12
REMARK    2  A    between atoms: N4_12  and  C5_14
REMARK    3  A    between atoms: C5_14  and  C6_15
REMARK    4  A    between atoms: C6_15  and  N5_16
REMARK    5  A    between atoms: C9_20  and  C10_21
ROOT
HETATM    1  N2  UNL     1      -2.715   2.618  13.379  1.00  0.00    -0.171 N
ATOM      2  H2  UNL     1      -2.405   1.794  12.865  1.00  0.00     0.186 HD
HETATM    3  C4  UNL     1      -2.133   3.903  13.177  1.00  0.00     0.673 C
HETATM    4  N3  UNL     1      -1.164   4.324  13.933  1.00  0.00    -0.235 N
ATOM      5  H31 UNL     1      -0.747   5.244  13.789  1.00  0.00     0.174 HD
ATOM      6  H32 UNL     1      -0.844   3.697  14.671  1.00  0.00     0.174 HD
HETATM    7  N4  UNL     1      -2.579   4.775  12.150  1.00  0.00    -0.225 N
ATOM      8  H4  UNL     1      -2.438   5.784  12.215  1.00  0.00     0.177 HD
ENDROOT
BRANCH   1   9
HETATM    9  C3  UNL     1      -3.682   2.566  14.275  1.00  0.00     0.164 A
HETATM   10  N1  UNL     1      -4.596   3.506  14.530  1.00  0.00    -0.339 N
HETATM   11  C2  UNL     1      -5.485   3.263  15.470  1.00  0.00     0.021 A
ATOM     12  H1  UNL     1      -4.606   4.385  14.013  1.00  0.00     0.168 HD
HETATM   13  C1  UNL     1      -6.559   4.281  15.823  1.00  0.00     0.069 C
HETATM   14  C9  UNL     1      -5.412   2.067  16.119  1.00  0.00     0.016 A
HETATM   15  S1  UNL     1      -4.078   1.323  15.371  1.00  0.00    -0.055 SA
BRANCH  14  16
HETATM   16  C10 UNL     1      -6.290   1.533  17.223  1.00  0.00    -0.016 C
HETATM   17  C11 UNL     1      -7.703   1.343  16.752  1.00  0.00     0.020 C
HETATM   18  C12 UNL     1      -6.182   2.351  18.472  1.00  0.00     0.020 C
HETATM   19  C13 UNL     1      -5.739   0.151  17.552  1.00  0.00     0.020 C
ENDBRANCH  14  16
ENDBRANCH   1   9
BRANCH   7  20
HETATM   20  C5  UNL     1      -3.245   4.180  11.001  1.00  0.00     0.168 C
BRANCH  20  21
HETATM   21  C6  UNL     1      -2.457   4.457   9.731  1.00  0.00     0.291 C
BRANCH  21  22
HETATM   22  N5  UNL     1      -1.195   3.738   9.733  1.00  0.00     0.081 N
HETATM   23  C7  UNL     1      -1.483   2.340   9.957  1.00  0.00     0.309 C
HETATM   24  C8  UNL     1      -0.548   3.853   8.430  1.00  0.00     0.309 C
ENDBRANCH  21  22
ENDBRANCH  20  21
ENDBRANCH   7  20
TORSDOF 5
ENDMDL