MODEL 3
REMARK VINA RESULT: -6.203674266      1.941      6.050
REMARK  4 active torsions:
REMARK  status: ('A' for Active; 'I' for Inactive)
REMARK    1  A    between atoms: C2_2  and  N1_3
REMARK    2  A    between atoms: N2_6  and  C5_7
REMARK    3  A    between atoms: C5_7  and  C6_8
REMARK    4  A    between atoms: C8_12  and  N4_13
ROOT
HETATM    1  C6  UNL     1      -4.080   2.870  12.111  1.00  0.00    -0.002 A
HETATM    2  C7  UNL     1      -3.732   2.185  10.961  1.00  0.00     0.099 A
HETATM    3  N3  UNL     1      -3.605   0.849  10.876  1.00  0.00    -0.350 N
ATOM      4  H3  UNL     1      -3.345   0.406   9.995  1.00  0.00     0.166 HD
HETATM    5  C8  UNL     1      -3.826   0.117  11.963  1.00  0.00     0.126 A
HETATM    6  C9  UNL     1      -4.179   0.695  13.161  1.00  0.00     0.088 A
HETATM    7  N5  UNL     1      -4.452   0.172  14.377  1.00  0.00    -0.356 N
ATOM      8  H5  UNL     1      -4.433  -0.822  14.602  1.00  0.00     0.166 HD
HETATM    9  C10 UNL     1      -4.750   1.146  15.242  1.00  0.00     0.012 A
HETATM   10  C11 UNL     1      -5.112   1.076  16.676  1.00  0.00     0.068 C
HETATM   11  C12 UNL     1      -4.658   2.345  14.521  1.00  0.00    -0.026 A
HETATM   12  C13 UNL     1      -4.903   3.681  15.069  1.00  0.00     0.051 C
HETATM   13  C14 UNL     1      -4.303   2.081  13.221  1.00  0.00     0.012 A
ENDROOT
BRANCH   1  14
HETATM   14  C5  UNL     1      -4.247   4.311  12.143  1.00  0.00     0.313 C
BRANCH  14  15
HETATM   15  N2  UNL     1      -3.045   5.083  11.795  1.00  0.00     0.096 N
HETATM   16  C4  UNL     1      -3.435   6.495  11.690  1.00  0.00     0.303 C
HETATM   17  C3  UNL     1      -3.087   7.261  12.919  1.00  0.00     0.302 C
HETATM   18  N1  UNL     1      -1.639   7.346  13.063  1.00  0.00     0.091 N
HETATM   19  C16 UNL     1      -1.034   6.088  12.622  1.00  0.00     0.302 C
HETATM   20  C15 UNL     1      -2.032   4.948  12.821  1.00  0.00     0.303 C
BRANCH  18  21
HETATM   21  C2  UNL     1      -1.281   7.653  14.423  1.00  0.00     0.268 C
HETATM   22  C1  UNL     1      -2.360   8.429  15.140  1.00  0.00     0.037 C
ENDBRANCH  18  21
ENDBRANCH  14  15
ENDBRANCH   1  14
BRANCH   5  23
HETATM   23  N4  UNL     1      -3.710  -1.184  11.910  1.00  0.00    -0.384 N
ATOM     24  H42 UNL     1      -2.796  -1.581  11.693  1.00  0.00     0.157 HD
ATOM     25  H41 UNL     1      -4.522  -1.776  12.085  1.00  0.00     0.157 HD
ENDBRANCH   5  23
TORSDOF 4
ENDMDL