MODEL 3
REMARK VINA RESULT: -5.715825579      2.227      5.114
REMARK  6 active torsions:
REMARK  status: ('A' for Active; 'I' for Inactive)
REMARK    1  A    between atoms: C2_2  and  N1_3
REMARK    2  A    between atoms: N1_3  and  C3_5
REMARK    3  A    between atoms: C3_5  and  N2_7
REMARK    4  A    between atoms: N2_7  and  C4_9
REMARK    5  A    between atoms: C5_12  and  C6_13
REMARK    6  A    between atoms: C6_13  and  C7_14
ROOT
HETATM    1  C4  UNL     1      -5.344   4.073  14.532  1.00  0.00     0.150 A
HETATM    2  N3  UNL     1      -5.105   3.556  13.327  1.00  0.00    -0.339 N
ATOM      3  H3  UNL     1      -5.642   2.758  12.990  1.00  0.00     0.168 HD
HETATM    4  C5  UNL     1      -4.176   4.087  12.589  1.00  0.00     0.025 A
HETATM    5  C11 UNL     1      -3.488   5.158  13.096  1.00  0.00     0.078 A
HETATM    6  S2  UNL     1      -4.218   5.352  14.627  1.00  0.00    -0.064 SA
ENDROOT
BRANCH   4   7
HETATM    7  C6  UNL     1      -3.822   3.577  11.198  1.00  0.00     0.134 C
BRANCH   7   8
HETATM    8  C7  UNL     1      -3.979   2.114  11.112  1.00  0.00     0.086 A
HETATM    9  N4  UNL     1      -3.066   1.151  11.361  1.00  0.00    -0.348 N
HETATM   10  C8  UNL     1      -3.594  -0.060  11.170  1.00  0.00     0.022 A
ATOM     11  H4  UNL     1      -2.105   1.324  11.655  1.00  0.00     0.167 HD
HETATM   12  C9  UNL     1      -2.940  -1.382  11.332  1.00  0.00     0.069 C
HETATM   13  C10 UNL     1      -4.899   0.152  10.782  1.00  0.00     0.114 A
HETATM   14  N5  UNL     1      -5.111   1.476  10.754  1.00  0.00    -0.354 N
ATOM     15  H5  UNL     1      -5.990   1.929  10.502  1.00  0.00     0.166 HD
ENDBRANCH   7   8
ENDBRANCH   4   7
BRANCH   1  16
HETATM   16  N2  UNL     1      -6.229   3.689  15.424  1.00  0.00    -0.314 N
ATOM     17  H2  UNL     1      -7.117   4.174  15.548  1.00  0.00     0.170 HD
BRANCH  16  18
HETATM   18  C3  UNL     1      -5.867   2.542  16.215  1.00  0.00     0.173 C
HETATM   19  S1  UNL     1      -7.020   1.684  16.983  1.00  0.00    -0.041 SA
BRANCH  18  20
HETATM   20  N1  UNL     1      -4.519   2.144  16.338  1.00  0.00    -0.367 N
ATOM     21  H1  UNL     1      -3.804   2.824  16.598  1.00  0.00     0.161 HD
BRANCH  20  22
HETATM   22  C2  UNL     1      -4.161   0.775  16.093  1.00  0.00     0.117 C
HETATM   23  C1  UNL     1      -4.378   0.441  14.611  1.00  0.00     0.026 C
ENDBRANCH  20  22
ENDBRANCH  18  20
ENDBRANCH  16  18
ENDBRANCH   1  16
TORSDOF 6
ENDMDL