MODEL 4
REMARK VINA RESULT: -6.384880525      2.657      5.085
REMARK  5 active torsions:
REMARK  status: ('A' for Active; 'I' for Inactive)
REMARK    1  A    between atoms: C2_2  and  C3_3
REMARK    2  A    between atoms: C3_3  and  C6_6
REMARK    3  A    between atoms: C6_6  and  C7_7
REMARK    4  A    between atoms: C7_7  and  O1_8
REMARK    5  A    between atoms: N1_11  and  C9_12
ROOT
HETATM    1  C7  UNL     1      -4.350   1.207  15.064  1.00  0.00     0.070 C
HETATM    2  C8  UNL     1      -4.007   2.055  14.142  1.00  0.00     0.083 C
HETATM    3  N1  UNL     1      -4.019   1.711  12.706  1.00  0.00    -0.231 N
HETATM    4  N3  UNL     1      -4.462   2.907  12.039  1.00  0.00    -0.260 N
ATOM      5  H3  UNL     1      -4.593   3.026  11.035  1.00  0.00     0.190 HD
HETATM    6  C10 UNL     1      -4.683   3.891  13.040  1.00  0.00     0.250 C
HETATM    7  O2  UNL     1      -5.492   4.801  13.050  1.00  0.00    -0.271 OA
HETATM    8  C11 UNL     1      -3.628   3.478  14.082  1.00  0.00     0.082 C
HETATM    9  C12 UNL     1      -2.306   3.670  13.360  1.00  0.00     0.032 C
HETATM   10  C13 UNL     1      -3.708   4.341  15.257  1.00  0.00     0.032 C
ENDROOT
BRANCH   1  11
HETATM   11  C6  UNL     1      -4.355   1.471  16.495  1.00  0.00     0.079 C
BRANCH  11  12
HETATM   12  C3  UNL     1      -5.728   1.589  17.125  1.00  0.00    -0.025 C
HETATM   13  C4  UNL     1      -6.274   0.180  17.186  1.00  0.00     0.019 C
HETATM   14  C5  UNL     1      -5.683   2.249  18.487  1.00  0.00     0.019 C
BRANCH  12  15
HETATM   15  C2  UNL     1      -6.659   2.411  16.309  1.00  0.00    -0.028 C
HETATM   16  C1  UNL     1      -6.934   3.646  16.760  1.00  0.00     0.007 C
ENDBRANCH  12  15
ENDBRANCH  11  12
ENDBRANCH   1  11
BRANCH   1  17
HETATM   17  O1  UNL     1      -4.770  -0.099  14.723  1.00  0.00    -0.363 OA
ATOM     18  H1  UNL     1      -5.687  -0.268  14.907  1.00  0.00     0.217 HD
ENDBRANCH   1  17
BRANCH   3  19
HETATM   19  C9  UNL     1      -3.608   0.554  12.048  1.00  0.00     0.206 C
HETATM   20  N2  UNL     1      -4.540  -0.544  11.949  1.00  0.00    -0.068 NA
HETATM   21  S1  UNL     1      -2.194   0.376  11.306  1.00  0.00    -0.042 SA
ENDBRANCH   3  19
TORSDOF 5
ENDMDL