MODEL 5
REMARK VINA RESULT: -7.325420839      3.288      3.953
REMARK  3 active torsions:
REMARK  status: ('A' for Active; 'I' for Inactive)
REMARK    1  A    between atoms: C5_5  and  C6_6
REMARK    2  A    between atoms: C6_6  and  C7_7
REMARK    3  A    between atoms: C7_7  and  N1_8
ROOT
HETATM    1  C1  UNL     1      -6.499   5.670  14.716  1.00  0.00     0.049 C
HETATM    2  C2  UNL     1      -5.121   5.198  14.522  1.00  0.00    -0.043 A
HETATM    3  C3  UNL     1      -4.168   5.994  13.875  1.00  0.00     0.022 A
HETATM    4  C4  UNL     1      -2.866   5.601  13.668  1.00  0.00     0.001 A
HETATM    5  C5  UNL     1      -1.785   6.214  13.067  1.00  0.00    -0.029 A
HETATM    6  C10 UNL     1      -0.740   5.305  13.172  1.00  0.00     0.096 A
HETATM    7  N2  UNL     1      -1.183   4.210  13.804  1.00  0.00    -0.363 N
ATOM      8  H2  UNL     1      -0.620   3.385  14.014  1.00  0.00     0.165 HD
HETATM    9  C11 UNL     1      -2.472   4.359  14.119  1.00  0.00     0.071 A
HETATM   10  C12 UNL     1      -3.373   3.533  14.765  1.00  0.00     0.080 A
HETATM   11  N3  UNL     1      -2.943   2.323  15.192  1.00  0.00    -0.305 N
ATOM     12  H3  UNL     1      -1.977   2.034  15.039  1.00  0.00     0.171 HD
HETATM   13  C13 UNL     1      -3.805   1.505  15.820  1.00  0.00     0.327 A
HETATM   14  O1  UNL     1      -3.463   0.362  16.240  1.00  0.00    -0.247 OA
HETATM   15  N4  UNL     1      -5.074   1.904  16.013  1.00  0.00    -0.275 N
ATOM     16  H4  UNL     1      -5.722   1.278  16.491  1.00  0.00     0.173 HD
HETATM   17  C14 UNL     1      -5.519   3.114  15.592  1.00  0.00     0.262 A
HETATM   18  O2  UNL     1      -6.699   3.450  15.791  1.00  0.00    -0.267 OA
HETATM   19  C15 UNL     1      -4.657   3.963  14.950  1.00  0.00     0.067 A
ENDROOT
BRANCH   5  20
HETATM   20  C6  UNL     1      -1.732   7.539  12.443  1.00  0.00     0.071 C
BRANCH  20  21
HETATM   21  C7  UNL     1      -0.971   8.573  13.217  1.00  0.00     0.276 C
BRANCH  21  22
HETATM   22  N1  UNL     1      -1.785   9.089  14.277  1.00  0.00     0.080 N
HETATM   23  C8  UNL     1      -2.038  10.510  14.154  1.00  0.00     0.309 C
HETATM   24  C9  UNL     1      -1.337   8.777  15.597  1.00  0.00     0.309 C
ENDBRANCH  21  22
ENDBRANCH  20  21
ENDBRANCH   5  20
TORSDOF 3
ENDMDL