MODEL 3
REMARK VINA RESULT: -5.984253743      3.258      4.751
REMARK  3 active torsions:
REMARK  status: ('A' for Active; 'I' for Inactive)
REMARK    1  A    between atoms: C3_7  and  C4_8
REMARK    2  A    between atoms: C7_11  and  N3_12
REMARK    3  A    between atoms: N3_12  and  C8_14
ROOT
HETATM    1  C1  UNL     1      -3.463   3.404  15.250  1.00  0.00     0.072 C
HETATM    2  C2  UNL     1      -3.648   2.148  14.446  1.00  0.00     0.050 A
HETATM    3  N1  UNL     1      -4.362   1.146  14.922  1.00  0.00    -0.302 N
ATOM      4  H1  UNL     1      -4.778   1.100  15.853  1.00  0.00     0.186 HD
HETATM    5  N2  UNL     1      -4.451   0.192  13.972  1.00  0.00    -0.298 N
ATOM      6  H2  UNL     1      -4.940  -0.697  14.070  1.00  0.00     0.187 HD
HETATM    7  C3  UNL     1      -3.785   0.607  12.867  1.00  0.00     0.078 A
HETATM    8  C7  UNL     1      -3.272   1.857  13.202  1.00  0.00     0.081 A
ENDROOT
BRANCH   8   9
HETATM    9  N3  UNL     1      -2.378   2.598  12.359  1.00  0.00    -0.375 N
ATOM     10  H3  UNL     1      -1.461   2.212  12.133  1.00  0.00     0.160 HD
BRANCH   9  11
HETATM   11  C8  UNL     1      -2.763   3.888  11.824  1.00  0.00     0.155 C
HETATM   12  C9  UNL     1      -4.160   3.982  11.315  1.00  0.00     0.142 C
HETATM   13  S1  UNL     1      -4.339   5.425  10.266  1.00  0.00     0.035 S
HETATM   14  O1  UNL     1      -3.992   4.897   8.662  1.00  0.00    -0.256 OA
HETATM   15  C10 UNL     1      -2.944   6.498  10.645  1.00  0.00     0.229 C
HETATM   16  N4  UNL     1      -1.770   5.673  10.446  1.00  0.00    -0.372 N
HETATM   17  C11 UNL     1      -1.807   4.291  10.772  1.00  0.00     0.097 C
ATOM     18  H4  UNL     1      -0.916   6.084  10.071  1.00  0.00     0.161 HD
HETATM   19  S2  UNL     1      -0.913   3.144  10.056  1.00  0.00    -0.063 SA
ENDBRANCH   9  11
ENDBRANCH   8   9
BRANCH   7  20
HETATM   20  C4  UNL     1      -3.755  -0.060  11.561  1.00  0.00    -0.057 C
HETATM   21  C5  UNL     1      -4.880   0.311  10.668  1.00  0.00     0.045 C
HETATM   22  C6  UNL     1      -3.201  -1.416  11.473  1.00  0.00     0.045 C
ENDBRANCH   7  20
TORSDOF 3
ENDMDL