MODEL 2
REMARK VINA RESULT: -6.806202452      1.586      2.390
REMARK  7 active torsions:
REMARK  status: ('A' for Active; 'I' for Inactive)
REMARK    1  A    between atoms: C5_6  and  C6_7
REMARK    2  A    between atoms: C6_7  and  N2_8
REMARK    3  A    between atoms: N2_8  and  C7_10
REMARK    4  A    between atoms: C7_10  and  O1_11
REMARK    5  A    between atoms: C7_10  and  C8_13
REMARK    6  A    between atoms: C7_10  and  C9_16
REMARK    7  A    between atoms: C16_26  and  O2_27
ROOT
HETATM    1  C1  UNL     1      -2.036   4.590   9.790  1.00  0.00     0.016 C
HETATM    2  C2  UNL     1      -1.543   3.712  10.917  1.00  0.00    -0.035 C
HETATM    3  C3  UNL     1      -2.576   2.620  11.106  1.00  0.00     0.040 C
HETATM    4  C4  UNL     1      -3.833   3.097  11.756  1.00  0.00     0.274 C
HETATM    5  N1  UNL     1      -3.501   3.778  12.986  1.00  0.00     0.099 N
HETATM    6  C5  UNL     1      -4.638   4.373  13.627  1.00  0.00     0.240 C
HETATM    7  C10 UNL     1      -3.960   5.254  14.682  1.00  0.00     0.040 C
HETATM    8  C11 UNL     1      -2.610   5.577  14.072  1.00  0.00     0.038 C
HETATM    9  C12 UNL     1      -2.708   4.982  12.679  1.00  0.00     0.228 C
HETATM   10  C13 UNL     1      -1.366   4.490  12.203  1.00  0.00     0.027 C
HETATM   11  C14 UNL     1      -0.409   5.603  12.014  1.00  0.00     0.010 C
HETATM   12  C15 UNL     1       0.733   5.332  11.111  1.00  0.00     0.032 C
HETATM   13  C16 UNL     1       0.962   3.915  10.750  1.00  0.00     0.118 C
HETATM   14  C17 UNL     1      -0.233   3.053  10.632  1.00  0.00     0.041 C
ENDROOT
BRANCH   6  15
HETATM   15  C6  UNL     1      -5.522   3.353  14.331  1.00  0.00     0.153 C
BRANCH  15  16
HETATM   16  N2  UNL     1      -4.909   3.092  15.596  1.00  0.00    -0.378 N
ATOM     17  H2  UNL     1      -4.627   3.847  16.222  1.00  0.00     0.156 HD
BRANCH  16  18
HETATM   18  C7  UNL     1      -4.712   1.724  15.937  1.00  0.00     0.288 C
BRANCH  18  19
HETATM   19  O1  UNL     1      -3.493   1.620  16.615  1.00  0.00    -0.360 OA
ATOM     20  H1  UNL     1      -2.848   1.276  16.008  1.00  0.00     0.213 HD
ENDBRANCH  18  19
BRANCH  18  21
HETATM   21  C8  UNL     1      -4.647   0.801  14.761  1.00  0.00     0.417 C
HETATM   22  F1  UNL     1      -4.670  -0.517  15.074  1.00  0.00    -0.209 F
HETATM   23  F2  UNL     1      -3.475   1.064  14.063  1.00  0.00    -0.209 F
ENDBRANCH  18  21
BRANCH  18  24
HETATM   24  C9  UNL     1      -5.783   1.341  16.932  1.00  0.00     0.443 C
HETATM   25  F3  UNL     1      -7.011   1.160  16.350  1.00  0.00    -0.166 F
HETATM   26  F4  UNL     1      -5.449   0.193  17.619  1.00  0.00    -0.166 F
HETATM   27  F5  UNL     1      -5.903   2.355  17.866  1.00  0.00    -0.166 F
ENDBRANCH  18  24
ENDBRANCH  16  18
ENDBRANCH  15  16
ENDBRANCH   6  15
BRANCH  13  28
HETATM   28  O2  UNL     1       1.623   3.896   9.499  1.00  0.00    -0.396 OA
ATOM     29  H2  UNL     1       1.907   3.003   9.339  1.00  0.00     0.210 HD
ENDBRANCH  13  28
TORSDOF 7
ENDMDL