MODEL 4
REMARK VINA RESULT: -7.376749988      4.542      6.583
REMARK  7 active torsions:
REMARK  status: ('A' for Active; 'I' for Inactive)
REMARK    1  A    between atoms: O1_1  and  C1_3
REMARK    2  A    between atoms: C1_3  and  C2_4
REMARK    3  A    between atoms: C2_4  and  O2_5
REMARK    4  A    between atoms: C2_4  and  C3_7
REMARK    5  A    between atoms: C2_4  and  C16_25
REMARK    6  A    between atoms: C5_11  and  N2_12
REMARK    7  A    between atoms: N2_12  and  C6_13
ROOT
HETATM    1  C3  UNL     1      -0.487   3.941  10.689  1.00  0.00     0.004 A
HETATM    2  C4  UNL     1      -0.670   2.625  11.038  1.00  0.00     0.101 A
HETATM    3  N1  UNL     1      -1.700   2.207  11.781  1.00  0.00    -0.340 N
ATOM      4  H1  UNL     1      -1.771   1.213  12.000  1.00  0.00     0.167 HD
HETATM    5  C5  UNL     1      -2.669   3.058  12.263  1.00  0.00     0.194 A
HETATM    6  C14 UNL     1      -2.508   4.413  11.919  1.00  0.00     0.092 A
HETATM    7 CL1  UNL     1      -3.723   5.552  12.517  1.00  0.00    -0.079 Cl
HETATM    8  C15 UNL     1      -1.447   4.833  11.155  1.00  0.00     0.041 A
ENDROOT
BRANCH   1   9
HETATM    9  C2  UNL     1       0.616   4.469   9.885  1.00  0.00     0.205 C
BRANCH   9  10
HETATM   10  C1  UNL     1       1.894   3.709  10.304  1.00  0.00     0.216 C
BRANCH  10  11
HETATM   11  O1  UNL     1       2.244   4.138  11.550  1.00  0.00    -0.397 OA
ATOM     12  H1  UNL     1       3.012   4.691  11.460  1.00  0.00     0.209 HD
ENDBRANCH  10  11
ENDBRANCH   9  10
BRANCH   9  13
HETATM   13  O2  UNL     1       0.775   5.834  10.148  1.00  0.00    -0.375 OA
ATOM     14  H2  UNL     1       0.328   6.342   9.481  1.00  0.00     0.211 HD
ENDBRANCH   9  13
BRANCH   9  15
HETATM   15  C16 UNL     1       0.510   4.225   8.395  1.00  0.00     0.424 C
HETATM   16  F2  UNL     1      -0.540   3.451   8.005  1.00  0.00    -0.167 F
HETATM   17  F3  UNL     1       1.716   3.699   7.939  1.00  0.00    -0.167 F
HETATM   18  F4  UNL     1       0.398   5.455   7.772  1.00  0.00    -0.167 F
ENDBRANCH   9  15
ENDBRANCH   1   9
BRANCH   5  19
HETATM   19  N2  UNL     1      -3.583   2.690  12.955  1.00  0.00    -0.423 NA
BRANCH  19  20
HETATM   20  C6  UNL     1      -4.589   2.302  13.730  1.00  0.00     0.170 C
HETATM   21  C7  UNL     1      -4.406   0.888  14.281  1.00  0.00     0.044 C
HETATM   22  C8  UNL     1      -4.068   1.014  15.742  1.00  0.00    -0.009 C
HETATM   23  C9  UNL     1      -5.308   0.808  16.546  1.00  0.00     0.042 C
HETATM   24  C13 UNL     1      -3.644   2.470  15.892  1.00  0.00     0.012 C
HETATM   25  C10 UNL     1      -6.210   1.981  16.661  1.00  0.00     0.171 C
HETATM   26  F1  UNL     1      -7.528   1.509  16.625  1.00  0.00    -0.249 F
HETATM   27  C11 UNL     1      -6.084   2.971  15.534  1.00  0.00     0.045 C
HETATM   28  C12 UNL     1      -4.693   3.120  15.028  1.00  0.00     0.024 C
ENDBRANCH  19  20
ENDBRANCH   5  19
TORSDOF 7
ENDMDL