MODEL 4
REMARK VINA RESULT: -6.538142119      1.118      1.218
REMARK  5 active torsions:
REMARK  status: ('A' for Active; 'I' for Inactive)
REMARK    1  A    between atoms: C2_2  and  C3_3
REMARK    2  A    between atoms: C5_6  and  C6_7
REMARK    3  A    between atoms: C8_12  and  N2_13
REMARK    4  A    between atoms: C8_12  and  C12_20
REMARK       I    between atoms: N2_13  and  C9_15
REMARK    5  A    between atoms: C9_15  and  C10_17
ROOT
HETATM    1  C6  UNL     1      -4.155   2.338  12.896  1.00  0.00     0.155 C
HETATM    2  N1  UNL     1      -5.200   2.376  11.884  1.00  0.00    -0.347 N
ATOM      3  H1  UNL     1      -6.208   2.223  11.873  1.00  0.00     0.163 HD
HETATM    4  C7  UNL     1      -4.216   2.717  10.915  1.00  0.00     0.258 C
HETATM    5  O1  UNL     1      -4.326   3.361   9.820  1.00  0.00    -0.270 OA
HETATM    6  C8  UNL     1      -3.206   2.054  11.710  1.00  0.00     0.236 C
ENDROOT
BRANCH   6   7
HETATM    7  N2  UNL     1      -1.943   2.699  11.868  1.00  0.00    -0.333 N
HETATM    8  C9  UNL     1      -1.065   2.915  10.788  1.00  0.00     0.233 C
HETATM    9  O2  UNL     1      -1.263   2.595   9.594  1.00  0.00    -0.272 OA
ATOM     10  H2  UNL     1      -1.667   3.017  12.797  1.00  0.00     0.164 HD
BRANCH   8  11
HETATM   11  C10 UNL     1       0.268   3.598  11.041  1.00  0.00     0.146 C
HETATM   12  C11 UNL     1       0.986   3.885   9.746  1.00  0.00     0.032 C
HETATM   13 BR1  UNL     1      -0.137   5.315  11.874  1.00  0.00    -0.082 Br
ENDBRANCH   8  11
ENDBRANCH   6   7
BRANCH   6  14
HETATM   14  C12 UNL     1      -3.143   0.526  11.611  1.00  0.00     0.424 C
HETATM   15  F1  UNL     1      -3.507   0.208  10.303  1.00  0.00    -0.168 F
HETATM   16  F2  UNL     1      -3.782  -0.160  12.565  1.00  0.00    -0.168 F
HETATM   17  F3  UNL     1      -1.794   0.154  11.686  1.00  0.00    -0.168 F
ENDBRANCH   6  14
BRANCH   1  18
HETATM   18  C5  UNL     1      -4.016   3.675  13.479  1.00  0.00     0.008 C
HETATM   19  C2  UNL     1      -4.859   4.027  14.461  1.00  0.00    -0.063 C
HETATM   20  C1  UNL     1      -4.685   5.387  15.025  1.00  0.00     0.048 C
BRANCH  19  21
HETATM   21  C3  UNL     1      -5.867   3.099  14.909  1.00  0.00     0.018 C
HETATM   22  C4  UNL     1      -5.745   2.127  15.760  1.00  0.00     0.085 C
HETATM   23 CL1  UNL     1      -4.240   1.768  16.547  1.00  0.00    -0.097 Cl
ENDBRANCH  19  21
ENDBRANCH   1  18
TORSDOF 5
ENDMDL