MODEL 2
REMARK VINA RESULT: -6.573440695      1.051      1.051
REMARK  5 active torsions:
REMARK  status: ('A' for Active; 'I' for Inactive)
REMARK    1  A    between atoms: C2_2  and  C3_3
REMARK    2  A    between atoms: C2_2  and  C8_18
REMARK       I    between atoms: C3_3  and  N1_5
REMARK    3  A    between atoms: N1_5  and  N2_7
REMARK       I    between atoms: N2_7  and  C4_9
REMARK    4  A    between atoms: C4_9  and  C5_11
REMARK    5  A    between atoms: C5_11  and  N3_14
ROOT
HETATM    1  C3  UNL     1      -3.692   2.352  13.060  1.00  0.00     0.265 C
HETATM    2  O1  UNL     1      -4.801   1.809  12.693  1.00  0.00    -0.266 OA
HETATM    3  N1  UNL     1      -3.662   2.694  14.423  1.00  0.00    -0.263 N
ATOM      4  H1  UNL     1      -2.824   3.128  14.811  1.00  0.00     0.190 HD
ENDROOT
BRANCH   1   5
HETATM    5  C2  UNL     1      -2.681   2.522  12.065  1.00  0.00     0.010 C
HETATM    6  C1  UNL     1      -2.524   1.462  11.232  1.00  0.00     0.025 C
BRANCH   5   7
HETATM    7  C8  UNL     1      -1.814   3.651  11.775  1.00  0.00     0.071 C
HETATM    8  C9  UNL     1      -2.103   4.169  10.305  1.00  0.00     0.133 C
HETATM    9 CL1  UNL     1      -3.848   4.245   9.984  1.00  0.00    -0.121 Cl
HETATM   10  C10 UNL     1      -1.548   5.503  10.775  1.00  0.00     0.152 C
HETATM   11 CL2  UNL     1       0.215   5.665  10.697  1.00  0.00    -0.098 Cl
HETATM   12 CL3  UNL     1      -2.343   6.934  10.146  1.00  0.00    -0.098 Cl
HETATM   13  C11 UNL     1      -2.067   5.040  12.171  1.00  0.00     0.079 C
HETATM   14  C12 UNL     1      -1.049   5.537  13.210  1.00  0.00     0.036 C
HETATM   15 CL4  UNL     1      -3.669   5.572  12.577  1.00  0.00    -0.115 Cl
ENDBRANCH   5   7
ENDBRANCH   1   5
BRANCH   3  16
HETATM   16  N2  UNL     1      -4.779   2.447  15.273  1.00  0.00    -0.265 N
HETATM   17  C4  UNL     1      -4.718   1.479  16.295  1.00  0.00     0.271 C
HETATM   18  O2  UNL     1      -3.637   0.825  16.444  1.00  0.00    -0.269 OA
ATOM     19  H2  UNL     1      -5.638   2.981  15.139  1.00  0.00     0.190 HD
BRANCH  17  20
HETATM   20  C5  UNL     1      -5.823   1.169  17.210  1.00  0.00     0.197 C
HETATM   21  C6  UNL     1      -7.128   1.475  16.481  1.00  0.00     0.056 C
HETATM   22  C7  UNL     1      -5.814   2.023  18.455  1.00  0.00     0.056 C
BRANCH  20  23
HETATM   23  N3  UNL     1      -5.868  -0.212  17.600  1.00  0.00    -0.062 N
ATOM     24  H33 UNL     1      -6.121  -0.804  16.809  1.00  0.00     0.275 HD
ATOM     25  H32 UNL     1      -4.929  -0.567  17.783  1.00  0.00     0.275 HD
ATOM     26  H31 UNL     1      -6.483  -0.387  18.395  1.00  0.00     0.275 HD
ENDBRANCH  20  23
ENDBRANCH  17  20
ENDBRANCH   3  16
TORSDOF 5
ENDMDL