MODEL 2
REMARK VINA RESULT: -6.680251896      1.382      1.574
REMARK  4 active torsions:
REMARK  status: ('A' for Active; 'I' for Inactive)
REMARK    1  A    between atoms: C1_2  and  N2_4
REMARK    2  A    between atoms: N2_4  and  N3_6
REMARK    3  A    between atoms: C2_8  and  C3_9
REMARK    4  A    between atoms: C2_8  and  C8_19
ROOT
HETATM    1  N3  UNL     1      -2.162   3.550  13.351  1.00  0.00    -0.298 N
ATOM      2  H3  UNL     1      -2.194   3.878  14.316  1.00  0.00     0.187 HD
HETATM    3  C2  UNL     1      -3.220   2.972  13.014  1.00  0.00     0.095 C
ENDROOT
BRANCH   3   4
HETATM    4  C3  UNL     1      -4.266   2.888  14.047  1.00  0.00     0.062 A
HETATM    5  C4  UNL     1      -4.338   1.829  14.904  1.00  0.00     0.046 A
HETATM    6  C5  UNL     1      -5.354   1.807  15.865  1.00  0.00     0.073 A
HETATM    7 CL1  UNL     1      -5.389   0.419  16.935  1.00  0.00    -0.081 Cl
HETATM    8  C6  UNL     1      -6.284   2.827  15.971  1.00  0.00     0.128 A
HETATM    9 CL2  UNL     1      -7.519   2.711  17.206  1.00  0.00    -0.062 Cl
HETATM   10  N4  UNL     1      -6.188   3.855  15.113  1.00  0.00    -0.312 N
HETATM   11  C7  UNL     1      -5.221   3.903  14.178  1.00  0.00     0.259 A
ATOM     12  H4  UNL     1      -6.863   4.618  15.172  1.00  0.00     0.170 HD
HETATM   13  O1  UNL     1      -5.142   4.872  13.381  1.00  0.00    -0.267 OA
ENDBRANCH   3   4
BRANCH   3  14
HETATM   14  C8  UNL     1      -3.425   2.414  11.681  1.00  0.00     0.233 C
HETATM   15 CL3  UNL     1      -2.276   1.077  11.304  1.00  0.00    -0.077 Cl
HETATM   16 CL4  UNL     1      -3.350   3.679  10.396  1.00  0.00    -0.077 Cl
HETATM   17 CL5  UNL     1      -5.048   1.701  11.504  1.00  0.00    -0.077 Cl
ENDBRANCH   3  14
BRANCH   1  18
HETATM   18  N2  UNL     1      -0.988   3.845  12.751  1.00  0.00    -0.278 N
ATOM     19  H2  UNL     1      -0.333   3.094  12.532  1.00  0.00     0.189 HD
BRANCH  18  20
HETATM   20  C1  UNL     1      -0.652   5.187  12.421  1.00  0.00     0.199 C
HETATM   21  N1  UNL     1       0.535   5.528  11.713  1.00  0.00    -0.068 NA
HETATM   22  S1  UNL     1      -1.627   6.448  12.842  1.00  0.00    -0.043 SA
ENDBRANCH  18  20
ENDBRANCH   1  18
TORSDOF 4
ENDMDL