MODEL 5
REMARK VINA RESULT: -6.867706260      3.652      5.578
REMARK  8 active torsions:
REMARK  status: ('A' for Active; 'I' for Inactive)
REMARK    1  A    between atoms: C2_2  and  C3_3
REMARK    2  A    between atoms: C3_3  and  N1_4
REMARK    3  A    between atoms: N1_4  and  C4_6
REMARK    4  A    between atoms: C4_6  and  N2_8
REMARK    5  A    between atoms: C7_11  and  O1_12
REMARK    6  A    between atoms: C7_11  and  C8_14
REMARK    7  A    between atoms: C9_17  and  C10_18
REMARK    8  A    between atoms: C10_18  and  C11_21
ROOT
HETATM    1  N2  UNL     1      -2.386   6.988  12.913  1.00  0.00    -0.358 N
HETATM    2  C5  UNL     1      -2.932   6.668  14.246  1.00  0.00     0.128 C
HETATM    3  C6  UNL     1      -3.581   5.316  14.239  1.00  0.00     0.066 C
HETATM    4  C7  UNL     1      -2.641   4.318  13.595  1.00  0.00     0.119 C
HETATM    5  C13 UNL     1      -2.410   4.747  12.166  1.00  0.00     0.066 C
HETATM    6  C14 UNL     1      -1.551   6.024  12.250  1.00  0.00     0.128 C
ENDROOT
BRANCH   4   7
HETATM    7  O1  UNL     1      -1.413   4.344  14.265  1.00  0.00    -0.382 OA
ATOM      8  H1  UNL     1      -1.265   3.502  14.679  1.00  0.00     0.211 HD
ENDBRANCH   4   7
BRANCH   4   9
HETATM    9  C8  UNL     1      -3.192   2.963  13.575  1.00  0.00     0.117 A
HETATM   10  N3  UNL     1      -3.400   2.234  12.471  1.00  0.00    -0.340 N
HETATM   11  C9  UNL     1      -3.917   1.059  12.845  1.00  0.00     0.107 A
ATOM     12  H3  UNL     1      -3.200   2.524  11.514  1.00  0.00     0.167 HD
HETATM   13  C12 UNL     1      -4.034   1.054  14.203  1.00  0.00     0.121 A
HETATM   14  N4  UNL     1      -3.578   2.249  14.640  1.00  0.00    -0.351 N
ATOM     15  H4  UNL     1      -3.535   2.554  15.613  1.00  0.00     0.166 HD
BRANCH  11  16
HETATM   16  C10 UNL     1      -4.278  -0.009  11.868  1.00  0.00     0.382 C
HETATM   17  F1  UNL     1      -4.678  -1.109  12.597  1.00  0.00    -0.189 F
HETATM   18  F2  UNL     1      -5.262   0.455  11.044  1.00  0.00    -0.189 F
BRANCH  16  19
HETATM   19  C11 UNL     1      -3.088  -0.429  11.051  1.00  0.00     0.460 C
HETATM   20  F3  UNL     1      -2.928  -1.790  11.194  1.00  0.00    -0.165 F
HETATM   21  F4  UNL     1      -1.924   0.180  11.467  1.00  0.00    -0.165 F
HETATM   22  F5  UNL     1      -3.347  -0.200   9.704  1.00  0.00    -0.165 F
ENDBRANCH  16  19
ENDBRANCH  11  16
ENDBRANCH   4   9
BRANCH   1  23
HETATM   23  C4  UNL     1      -2.696   8.214  12.321  1.00  0.00     0.169 C
HETATM   24  S1  UNL     1      -1.895   9.544  12.870  1.00  0.00    -0.041 SA
BRANCH  23  25
HETATM   25  N1  UNL     1      -3.668   8.365  11.332  1.00  0.00    -0.367 N
ATOM     26  H1  UNL     1      -3.533   9.079  10.616  1.00  0.00     0.161 HD
BRANCH  25  27
HETATM   27  C3  UNL     1      -4.873   7.540  11.284  1.00  0.00     0.121 C
BRANCH  27  28
HETATM   28  C2  UNL     1      -5.970   8.312  10.621  1.00  0.00     0.015 C
HETATM   29  C1  UNL     1      -7.265   7.880  11.306  1.00  0.00     0.006 C
ENDBRANCH  27  28
ENDBRANCH  25  27
ENDBRANCH  23  25
ENDBRANCH   1  23
TORSDOF 8
ENDMDL