MODEL 5
REMARK VINA RESULT: -6.788987512      1.580      1.884
REMARK  3 active torsions:
REMARK  status: ('A' for Active; 'I' for Inactive)
REMARK       I    between atoms: N1_5  and  C4_6
REMARK       I    between atoms: C4_6  and  N2_8
REMARK    1  A    between atoms: N2_8  and  C5_10
REMARK    2  A    between atoms: C5_10  and  C6_11
REMARK    3  A    between atoms: C6_11  and  C7_12
ROOT
HETATM    1  C1  UNL     1      -2.131   4.196   9.746  1.00  0.00     0.057 C
HETATM    2  C2  UNL     1      -2.483   4.665  11.121  1.00  0.00     0.158 C
HETATM    3  F1  UNL     1      -3.872   4.891  11.094  1.00  0.00    -0.238 F
HETATM    4  C3  UNL     1      -2.301   3.490  12.057  1.00  0.00     0.176 C
HETATM    5  N1  UNL     1      -2.739   3.795  13.399  1.00  0.00    -0.316 N
HETATM    6  C4  UNL     1      -3.364   2.772  14.154  1.00  0.00     0.319 C
HETATM    7  O1  UNL     1      -3.543   1.603  13.670  1.00  0.00    -0.247 OA
HETATM    8  N2  UNL     1      -3.828   2.983  15.484  1.00  0.00    -0.343 N
ATOM      9  H2  UNL     1      -3.703   3.904  15.905  1.00  0.00     0.164 HD
HETATM   10  C8  UNL     1      -2.508   5.137  13.886  1.00  0.00     0.170 C
HETATM   11  S1  UNL     1      -4.008   6.121  14.007  1.00  0.00    -0.069 SA
HETATM   12  C9  UNL     1      -1.447   5.733  13.042  1.00  0.00     0.079 C
HETATM   13  C10 UNL     1      -1.020   7.127  13.476  1.00  0.00     0.092 C
HETATM   14  S2  UNL     1       0.174   7.440  12.092  1.00  0.00    -0.113 SA
HETATM   15  C11 UNL     1      -0.613   6.340  10.919  1.00  0.00     0.084 C
HETATM   16  N3  UNL     1      -0.158   6.034   9.802  1.00  0.00    -0.394 N
ATOM     17  H31 UNL     1      -0.606   5.408   9.134  1.00  0.00     0.156 HD
ATOM     18  H32 UNL     1       0.705   6.324   9.342  1.00  0.00     0.156 HD
HETATM   19  C12 UNL     1      -1.857   5.921  11.582  1.00  0.00     0.195 C
HETATM   20  F5  UNL     1      -2.737   6.998  11.485  1.00  0.00    -0.231 F
ENDROOT
BRANCH   8  21
HETATM   21  C5  UNL     1      -4.460   1.957  16.253  1.00  0.00     0.133 C
BRANCH  21  22
HETATM   22  C6  UNL     1      -5.958   2.068  16.264  1.00  0.00     0.137 C
BRANCH  22  23
HETATM   23  C7  UNL     1      -6.543   1.294  17.416  1.00  0.00     0.389 C
HETATM   24  F2  UNL     1      -7.813   0.869  17.096  1.00  0.00    -0.171 F
HETATM   25  F3  UNL     1      -6.517   2.068  18.554  1.00  0.00    -0.171 F
HETATM   26  F4  UNL     1      -5.758   0.162  17.598  1.00  0.00    -0.171 F
ENDBRANCH  22  23
ENDBRANCH  21  22
ENDBRANCH   8  21
TORSDOF 3
ENDMDL