MODEL 2
REMARK VINA RESULT: -7.007988824      4.208      6.582
REMARK  6 active torsions:
REMARK  status: ('A' for Active; 'I' for Inactive)
REMARK    1  A    between atoms: C2_2  and  O1_3
REMARK    2  A    between atoms: O1_3  and  C3_4
REMARK    3  A    between atoms: C3_4  and  C4_7
REMARK    4  A    between atoms: C9_15  and  C10_16
REMARK    5  A    between atoms: C11_17  and  C12_18
REMARK    6  A    between atoms: C12_18  and  O2_19
ROOT
HETATM    1  C4  UNL     1      -4.531   1.352  13.863  1.00  0.00     0.065 A
HETATM    2  C5  UNL     1      -4.804   0.623  14.980  1.00  0.00     0.043 A
HETATM    3  C6  UNL     1      -5.454   1.197  16.062  1.00  0.00     0.058 A
HETATM    4 CL1  UNL     1      -5.780   0.211  17.471  1.00  0.00    -0.082 Cl
HETATM    5  C7  UNL     1      -5.811   2.517  15.973  1.00  0.00     0.079 A
HETATM    6 CL2  UNL     1      -6.632   3.239  17.341  1.00  0.00    -0.081 Cl
HETATM    7  C8  UNL     1      -5.532   3.252  14.841  1.00  0.00     0.077 A
HETATM    8 CL3  UNL     1      -5.993   4.940  14.740  1.00  0.00    -0.081 Cl
HETATM    9  C9  UNL     1      -4.885   2.701  13.751  1.00  0.00     0.056 A
ENDROOT
BRANCH   9  10
HETATM   10  C10 UNL     1      -4.598   3.494  12.591  1.00  0.00    -0.061 C
HETATM   11  C11 UNL     1      -4.371   4.191  11.608  1.00  0.00    -0.051 C
BRANCH  11  12
HETATM   12  C12 UNL     1      -4.122   5.021  10.428  1.00  0.00     0.218 C
HETATM   13  C13 UNL     1      -3.123   6.090  10.738  1.00  0.00     0.184 C
HETATM   14  N1  UNL     1      -4.222   6.947  11.052  1.00  0.00    -0.353 N
HETATM   15  C14 UNL     1      -5.073   6.144  10.258  1.00  0.00     0.266 C
ATOM     16  H1  UNL     1      -4.342   7.789  11.614  1.00  0.00     0.162 HD
HETATM   17  O3  UNL     1      -6.165   6.221   9.632  1.00  0.00    -0.269 OA
BRANCH  12  18
HETATM   18  O2  UNL     1      -3.876   4.288   9.271  1.00  0.00    -0.368 OA
ATOM     19  H2  UNL     1      -3.002   4.413   8.919  1.00  0.00     0.212 HD
ENDBRANCH  12  18
ENDBRANCH  11  12
ENDBRANCH   9  10
BRANCH   1  20
HETATM   20  C3  UNL     1      -3.796   0.806  12.674  1.00  0.00     0.386 C
HETATM   21  F1  UNL     1      -4.613   1.148  11.565  1.00  0.00    -0.170 F
HETATM   22  F2  UNL     1      -3.658  -0.527  12.755  1.00  0.00    -0.170 F
BRANCH  20  23
HETATM   23  O1  UNL     1      -2.640   1.526  12.477  1.00  0.00    -0.322 OA
BRANCH  23  24
HETATM   24  C2  UNL     1      -1.985   1.223  11.312  1.00  0.00     0.170 C
HETATM   25  C1  UNL     1      -1.097   2.412  10.949  1.00  0.00     0.033 C
ENDBRANCH  23  24
ENDBRANCH  20  23
ENDBRANCH   1  20
TORSDOF 6
ENDMDL