MODEL 5
REMARK VINA RESULT: -8.459085526      2.918      4.412
REMARK  3 active torsions:
REMARK  status: ('A' for Active; 'I' for Inactive)
REMARK    1  A    between atoms: C2_7  and  C3_8
REMARK    2  A    between atoms: C2_7  and  C13_25
REMARK    3  A    between atoms: N4_15  and  C8_17
ROOT
HETATM    1  C3  UNL     1      -1.323   4.823  12.487  1.00  0.00     0.020 A
HETATM    2  C4  UNL     1      -0.086   5.356  12.227  1.00  0.00     0.015 A
HETATM    3  C5  UNL     1       0.729   4.819  11.230  1.00  0.00     0.018 A
HETATM    4  C6  UNL     1       0.311   3.744  10.486  1.00  0.00     0.089 A
HETATM    5  N3  UNL     1      -0.894   3.218  10.734  1.00  0.00    -0.352 N
ATOM      6  H3  UNL     1      -1.217   2.419  10.188  1.00  0.00     0.166 HD
HETATM    7  C7  UNL     1      -1.677   3.728  11.686  1.00  0.00     0.110 A
HETATM    8  N4  UNL     1      -2.828   3.154  11.881  1.00  0.00    -0.368 N
ATOM      9  H4  UNL     1      -3.422   3.535  12.617  1.00  0.00     0.161 HD
ENDROOT
BRANCH   1  10
HETATM   10  C2  UNL     1      -2.264   5.378  13.469  1.00  0.00     0.129 C
HETATM   11  N2  UNL     1      -1.642   6.452  14.261  1.00  0.00    -0.337 N
HETATM   12  C1  UNL     1      -1.883   7.836  14.075  1.00  0.00     0.214 C
ATOM     13  H2  UNL     1      -0.991   6.180  14.998  1.00  0.00     0.164 HD
HETATM   14  N1  UNL     1      -1.185   8.730  14.741  1.00  0.00    -0.365 N
HETATM   15  O1  UNL     1      -2.884   8.217  13.166  1.00  0.00    -0.317 OA
ATOM     16  H12 UNL     1      -0.458   8.453  15.401  1.00  0.00     0.159 HD
ATOM     17  H11 UNL     1      -1.358   9.727  14.607  1.00  0.00     0.159 HD
HETATM   18  C16 UNL     1      -3.093   7.217  12.208  1.00  0.00     0.139 A
HETATM   19  C14 UNL     1      -3.519   5.991  13.044  1.00  0.00     0.056 A
HETATM   20  C15 UNL     1      -4.269   6.450  11.957  1.00  0.00     0.043 A
BRANCH  10  21
HETATM   21  C13 UNL     1      -2.672   4.216  14.413  1.00  0.00     0.386 C
HETATM   22  F4  UNL     1      -3.687   4.718  15.200  1.00  0.00    -0.211 F
HETATM   23  F5  UNL     1      -1.571   4.029  15.266  1.00  0.00    -0.211 F
ENDBRANCH  10  21
ENDBRANCH   1  10
BRANCH   8  24
HETATM   24  C8  UNL     1      -3.323   2.040  11.152  1.00  0.00     0.123 C
HETATM   25  C9  UNL     1      -4.835   1.976  11.080  1.00  0.00     0.034 C
HETATM   26  C10 UNL     1      -5.041   0.523  10.656  1.00  0.00     0.084 C
HETATM   27  C11 UNL     1      -3.967  -0.238  11.359  1.00  0.00     0.276 C
HETATM   28  F1  UNL     1      -3.225  -1.022  10.497  1.00  0.00    -0.203 F
HETATM   29  F2  UNL     1      -4.583  -1.013  12.342  1.00  0.00    -0.203 F
HETATM   30  C12 UNL     1      -3.046   0.796  12.011  1.00  0.00     0.264 C
HETATM   31  F3  UNL     1      -3.519   0.980  13.298  1.00  0.00    -0.241 F
ENDBRANCH   8  24
TORSDOF 3
ENDMDL