MODEL 4
REMARK VINA RESULT: -6.934300746      0.937      1.234
REMARK  7 active torsions:
REMARK  status: ('A' for Active; 'I' for Inactive)
REMARK    1  A    between atoms: C2_2  and  N1_3
REMARK    2  A    between atoms: C2_2  and  C12_24
REMARK       I    between atoms: N1_3  and  C3_5
REMARK       I    between atoms: C3_5  and  N2_7
REMARK    3  A    between atoms: C4_9  and  N3_10
REMARK    4  A    between atoms: C4_9  and  C11_20
REMARK    5  A    between atoms: N3_10  and  C5_12
REMARK    6  A    between atoms: C5_12  and  C6_13
REMARK    7  A    between atoms: C6_13  and  O2_14
ROOT
HETATM    1  N1  UNL     1      -2.924   4.007  10.875  1.00  0.00    -0.336 N
ATOM      2  H1  UNL     1      -2.000   3.925  11.298  1.00  0.00     0.164 HD
HETATM    3  C3  UNL     1      -4.014   3.315  11.515  1.00  0.00     0.322 C
HETATM    4  O1  UNL     1      -5.138   3.466  10.919  1.00  0.00    -0.247 OA
HETATM    5  N2  UNL     1      -3.868   2.561  12.664  1.00  0.00    -0.291 N
ATOM      6  H2  UNL     1      -3.819   3.122  13.514  1.00  0.00     0.172 HD
HETATM    7  C4  UNL     1      -3.783   1.318  12.875  1.00  0.00     0.190 C
ENDROOT
BRANCH   7   8
HETATM    8  N3  UNL     1      -3.633   0.867  14.246  1.00  0.00    -0.369 N
ATOM      9  H3  UNL     1      -2.707   0.922  14.672  1.00  0.00     0.161 HD
BRANCH   8  10
HETATM   10  C5  UNL     1      -4.712   0.350  15.036  1.00  0.00     0.159 C
BRANCH  10  11
HETATM   11  C6  UNL     1      -5.085   1.305  16.145  1.00  0.00     0.074 C
HETATM   12  C7  UNL     1      -5.841   0.617  17.257  1.00  0.00     0.039 C
HETATM   13  C8  UNL     1      -6.417   1.801  18.012  1.00  0.00     0.003 C
HETATM   14  C9  UNL     1      -6.564   2.918  16.997  1.00  0.00     0.003 C
HETATM   15  C10 UNL     1      -6.099   2.331  15.675  1.00  0.00     0.039 C
BRANCH  11  16
HETATM   16  O2  UNL     1      -4.009   1.979  16.660  1.00  0.00    -0.388 OA
ATOM     17  H2  UNL     1      -3.337   1.402  17.004  1.00  0.00     0.210 HD
ENDBRANCH  11  16
ENDBRANCH  10  11
ENDBRANCH   8  10
ENDBRANCH   7   8
BRANCH   7  18
HETATM   18  C11 UNL     1      -3.832   0.341  11.779  1.00  0.00     0.449 C
HETATM   19  F1  UNL     1      -5.102   0.317  11.224  1.00  0.00    -0.163 F
HETATM   20  F2  UNL     1      -3.590  -0.952  12.217  1.00  0.00    -0.163 F
HETATM   21  F3  UNL     1      -2.895   0.599  10.822  1.00  0.00    -0.163 F
ENDBRANCH   7  18
BRANCH   1  22
HETATM   22  C2  UNL     1      -3.043   4.797   9.694  1.00  0.00     0.120 C
HETATM   23  C1  UNL     1      -3.318   6.243  10.113  1.00  0.00     0.035 C
BRANCH  22  24
HETATM   24  C12 UNL     1      -1.782   4.853   8.872  1.00  0.00     0.129 C
HETATM   25  C13 UNL     1      -0.974   3.573   8.985  1.00  0.00     0.052 C
HETATM   26 CL1  UNL     1      -2.099   5.150   7.173  1.00  0.00    -0.100 Cl
HETATM   27 CL2  UNL     1      -0.731   6.137   9.552  1.00  0.00    -0.100 Cl
ENDBRANCH  22  24
ENDBRANCH   1  22
TORSDOF 7
ENDMDL