MODEL 2
REMARK VINA RESULT: -7.095308150      2.127      5.698
REMARK  10 active torsions:
REMARK  status: ('A' for Active; 'I' for Inactive)
REMARK    1  A    between atoms: C2_2  and  N1_3
REMARK    2  A    between atoms: C2_2  and  C3_7
REMARK    3  A    between atoms: C3_7  and  N2_8
REMARK    4  A    between atoms: N2_8  and  N3_9
REMARK    5  A    between atoms: N3_9  and  C4_11
REMARK    6  A    between atoms: C4_11  and  N4_12
REMARK    7  A    between atoms: C4_11  and  S1_17
REMARK    8  A    between atoms: N4_12  and  N5_14
REMARK    9  A    between atoms: S1_17  and  N6_18
REMARK   10  A    between atoms: C5_23  and  N9_24
ROOT
HETATM    1  C4  UNL     1      36.729 -24.038  42.574  1.00  0.00     0.193 C
ENDROOT
BRANCH   1   2
HETATM    2  N3  UNL     1      37.496 -24.896  41.776  1.00  0.00    -0.281 N
ATOM      3  H3  UNL     1      37.025 -25.627  41.243  1.00  0.00     0.184 HD
BRANCH   2   4
HETATM    4  N2  UNL     1      38.871 -24.787  41.687  1.00  0.00    -0.137 NA
BRANCH   4   5
HETATM    5  C3  UNL     1      39.319 -24.849  40.303  1.00  0.00     0.167 C
BRANCH   5   6
HETATM    6  C2  UNL     1      40.664 -24.228  40.114  1.00  0.00     0.195 C
HETATM    7  C1  UNL     1      41.541 -25.223  39.384  1.00  0.00     0.041 C
BRANCH   6   8
HETATM    8  N1  UNL     1      41.266 -23.909  41.404  1.00  0.00    -0.074 N
ATOM      9  H13 UNL     1      41.176 -24.674  42.072  1.00  0.00     0.274 HD
ATOM     10  H12 UNL     1      42.285 -23.875  41.357  1.00  0.00     0.274 HD
ATOM     11  H11 UNL     1      40.867 -23.039  41.757  1.00  0.00     0.274 HD
ENDBRANCH   6   8
ENDBRANCH   5   6
ENDBRANCH   4   5
ENDBRANCH   2   4
ENDBRANCH   1   2
BRANCH   1  12
HETATM   12  N4  UNL     1      36.336 -24.463  43.870  1.00  0.00    -0.284 N
ATOM     13  H4  UNL     1      35.374 -24.314  44.172  1.00  0.00     0.188 HD
BRANCH  12  14
HETATM   14  N5  UNL     1      37.242 -25.084  44.745  1.00  0.00    -0.343 N
ATOM     15  H52 UNL     1      38.239 -24.933  44.594  1.00  0.00     0.176 HD
ATOM     16  H51 UNL     1      36.922 -25.673  45.514  1.00  0.00     0.176 HD
ENDBRANCH  12  14
ENDBRANCH   1  12
BRANCH   1  17
HETATM   17  S1  UNL     1      36.276 -22.561  42.049  1.00  0.00     0.056 SA
BRANCH  17  18
HETATM   18  N6  UNL     1      37.457 -21.272  41.741  1.00  0.00    -0.154 N
HETATM   19  N7  UNL     1      38.766 -21.518  41.702  1.00  0.00    -0.211 N
HETATM   20  N8  UNL     1      39.611 -20.531  41.469  1.00  0.00    -0.117 N
ATOM     21  H7  UNL     1      39.114 -22.465  41.852  1.00  0.00     0.210 HD
HETATM   22  C5  UNL     1      39.240 -19.258  41.261  1.00  0.00     0.695 A
ATOM     23  H8  UNL     1      40.607 -20.749  41.445  1.00  0.00     0.207 HD
HETATM   24  N10 UNL     1      37.923 -18.988  41.295  1.00  0.00    -0.138 N
HETATM   25  C6  UNL     1      37.061 -19.992  41.533  1.00  0.00     0.367 A
ATOM     26  H10 UNL     1      37.584 -18.038  41.144  1.00  0.00     0.189 HD
HETATM   27  O1  UNL     1      35.807 -19.795  41.577  1.00  0.00    -0.243 OA
BRANCH  22  28
HETATM   28  N9  UNL     1      40.106 -18.302  41.032  1.00  0.00    -0.233 N
ATOM     29  H92 UNL     1      41.090 -18.431  41.265  1.00  0.00     0.174 HD
ATOM     30  H91 UNL     1      39.838 -17.408  40.621  1.00  0.00     0.174 HD
ENDBRANCH  22  28
ENDBRANCH  17  18
ENDBRANCH   1  17
TORSDOF 10
ENDMDL