MODEL 4
REMARK VINA RESULT: -7.044089758      1.895      3.090
REMARK  9 active torsions:
REMARK  status: ('A' for Active; 'I' for Inactive)
REMARK    1  A    between atoms: N1_1  and  C1_4
REMARK    2  A    between atoms: C2_7  and  N3_8
REMARK    3  A    between atoms: C3_11  and  C4_12
REMARK    4  A    between atoms: C4_12  and  O3_13
REMARK    5  A    between atoms: C4_12  and  C5_15
REMARK    6  A    between atoms: C5_15  and  N4_16
REMARK    7  A    between atoms: C5_15  and  O4_20
REMARK    8  A    between atoms: O4_20  and  C6_21
REMARK    9  A    between atoms: C7_24  and  N6_25
ROOT
HETATM    1  C1  UNL     1      37.374 -20.750  41.552  1.00  0.00     0.679 A
HETATM    2  N2  UNL     1      36.699 -21.900  41.597  1.00  0.00    -0.170 N
ATOM      3  H2  UNL     1      35.694 -21.853  41.769  1.00  0.00     0.186 HD
HETATM    4  C2  UNL     1      37.255 -23.133  41.429  1.00  0.00     0.204 A
HETATM    5  C3  UNL     1      38.636 -23.191  41.203  1.00  0.00     0.092 A
HETATM    6  C7  UNL     1      39.283 -21.971  41.173  1.00  0.00     0.131 A
HETATM    7  N7  UNL     1      38.669 -20.778  41.342  1.00  0.00    -0.176 N
ATOM      8  H7  UNL     1      39.206 -19.911  41.307  1.00  0.00     0.186 HD
ENDROOT
BRANCH   5   9
HETATM    9  C4  UNL     1      39.323 -24.473  41.210  1.00  0.00     0.117 C
BRANCH   9  10
HETATM   10  O3  UNL     1      39.453 -25.170  42.375  1.00  0.00    -0.359 OA
ATOM     11  H3  UNL     1      40.310 -25.274  42.772  1.00  0.00     0.217 HD
ENDBRANCH   9  10
BRANCH   9  12
HETATM   12  C5  UNL     1      39.454 -25.330  40.031  1.00  0.00     0.386 C
BRANCH  12  13
HETATM   13  N4  UNL     1      38.349 -26.019  39.444  1.00  0.00    -0.046 N
ATOM     14  H43 UNL     1      37.793 -25.330  38.939  1.00  0.00     0.277 HD
ATOM     15  H42 UNL     1      38.717 -26.598  38.688  1.00  0.00     0.277 HD
ATOM     16  H41 UNL     1      37.705 -26.597  39.983  1.00  0.00     0.277 HD
ENDBRANCH  12  13
BRANCH  12  17
HETATM   17  O4  UNL     1      40.248 -24.680  39.011  1.00  0.00    -0.266 OA
BRANCH  17  18
HETATM   18  C6  UNL     1      41.659 -24.759  39.082  1.00  0.00     0.375 C
HETATM   19  N5  UNL     1      42.317 -25.916  38.600  1.00  0.00    -0.032 NA
HETATM   20  O5  UNL     1      42.316 -23.815  39.565  1.00  0.00    -0.242 OA
ENDBRANCH  17  18
ENDBRANCH  12  17
ENDBRANCH   9  12
ENDBRANCH   5   9
BRANCH   4  21
HETATM   21  N3  UNL     1      36.342 -24.176  41.456  1.00  0.00    -0.096 N
HETATM   22  O1  UNL     1      36.162 -24.981  42.332  1.00  0.00    -0.530 OA
HETATM   23  O2  UNL     1      35.550 -24.415  40.316  1.00  0.00    -0.530 OA
ENDBRANCH   4  21
BRANCH   6  24
HETATM   24  N6  UNL     1      40.575 -21.907  41.076  1.00  0.00    -0.384 N
ATOM     25  H62 UNL     1      40.924 -21.754  40.130  1.00  0.00     0.157 HD
ATOM     26  H61 UNL     1      41.163 -21.933  41.909  1.00  0.00     0.157 HD
ENDBRANCH   6  24
BRANCH   1  27
HETATM   27  N1  UNL     1      36.730 -19.608  41.706  1.00  0.00    -0.234 N
ATOM     28  H12 UNL     1      35.717 -19.584  41.816  1.00  0.00     0.174 HD
ATOM     29  H11 UNL     1      37.254 -18.733  41.725  1.00  0.00     0.174 HD
ENDBRANCH   1  27
TORSDOF 9
ENDMDL