MODEL 4
REMARK VINA RESULT: -7.670615047      1.526      2.327
REMARK  5 active torsions:
REMARK  status: ('A' for Active; 'I' for Inactive)
REMARK    1  A    between atoms: C2_7  and  N3_8
REMARK       I    between atoms: N3_8  and  C3_10
REMARK    2  A    between atoms: C3_10  and  C4_12
REMARK    3  A    between atoms: C4_12  and  N4_13
REMARK    4  A    between atoms: C4_12  and  N5_17
REMARK    5  A    between atoms: C5_18  and  N6_19
ROOT
HETATM    1  N3  UNL     1      38.373 -22.317  41.412  1.00  0.00    -0.328 N
ATOM      2  H3  UNL     1      39.151 -22.640  40.837  1.00  0.00     0.165 HD
HETATM    3  C3  UNL     1      37.532 -23.232  42.051  1.00  0.00     0.271 C
HETATM    4  O1  UNL     1      36.574 -22.857  42.759  1.00  0.00    -0.269 OA
ENDROOT
BRANCH   3   5
HETATM    5  C4  UNL     1      37.716 -24.723  41.936  1.00  0.00     0.401 C
BRANCH   5   6
HETATM    6  N4  UNL     1      39.074 -25.085  41.778  1.00  0.00    -0.048 N
ATOM      7  H43 UNL     1      39.290 -25.290  40.803  1.00  0.00     0.277 HD
ATOM      8  H42 UNL     1      39.688 -24.281  41.916  1.00  0.00     0.277 HD
ATOM      9  H41 UNL     1      39.340 -25.860  42.385  1.00  0.00     0.277 HD
ENDBRANCH   5   6
BRANCH   5  10
HETATM   10  N5  UNL     1      36.932 -25.179  40.806  1.00  0.00    -0.091 N
HETATM   11  C5  UNL     1      35.631 -25.520  40.767  1.00  0.00     0.699 A
HETATM   12  N7  UNL     1      35.276 -25.897  39.505  1.00  0.00    -0.128 N
HETATM   13  N8  UNL     1      36.356 -25.791  38.766  1.00  0.00    -0.236 N
ATOM     14  H7  UNL     1      34.353 -26.201  39.195  1.00  0.00     0.205 HD
HETATM   15  C6  UNL     1      37.366 -25.360  39.527  1.00  0.00     0.358 A
ATOM     16  H8  UNL     1      36.414 -26.003  37.769  1.00  0.00     0.192 HD
HETATM   17  O2  UNL     1      38.555 -25.135  39.185  1.00  0.00    -0.244 OA
BRANCH  11  18
HETATM   18  N6  UNL     1      34.805 -25.503  41.760  1.00  0.00    -0.233 N
ATOM     19  H62 UNL     1      35.104 -25.459  42.735  1.00  0.00     0.174 HD
ATOM     20  H61 UNL     1      33.787 -25.532  41.701  1.00  0.00     0.174 HD
ENDBRANCH  11  18
ENDBRANCH   5  10
ENDBRANCH   3   5
BRANCH   1  21
HETATM   21  C2  UNL     1      38.119 -20.899  41.583  1.00  0.00     0.304 C
HETATM   22  N2  UNL     1      38.755 -20.485  42.811  1.00  0.00    -0.194 N
HETATM   23  C1  UNL     1      39.292 -19.188  42.995  1.00  0.00     0.694 C
ATOM     24  H2  UNL     1      38.820 -21.154  43.578  1.00  0.00     0.180 HD
HETATM   25  N1  UNL     1      39.617 -18.710  44.147  1.00  0.00    -0.233 N
HETATM   26  N9  UNL     1      39.481 -18.372  41.846  1.00  0.00    -0.088 N
ATOM     27  H12 UNL     1      39.480 -19.296  44.971  1.00  0.00     0.174 HD
ATOM     28  H11 UNL     1      40.004 -17.776  44.280  1.00  0.00     0.174 HD
HETATM   29  O4  UNL     1      39.138 -18.874  40.627  1.00  0.00    -0.181 OA
ATOM     30  H9  UNL     1      39.865 -17.431  41.933  1.00  0.00     0.213 HD
HETATM   31  C7  UNL     1      38.618 -20.120  40.412  1.00  0.00     0.324 C
HETATM   32  O3  UNL     1      38.553 -20.616  39.260  1.00  0.00    -0.259 OA
ENDBRANCH   1  21
TORSDOF 5
ENDMDL