MODEL 3
REMARK VINA RESULT: -7.520376665      3.631      6.519
REMARK  8 active torsions:
REMARK  status: ('A' for Active; 'I' for Inactive)
REMARK    1  A    between atoms: N1_1  and  C1_4
REMARK    2  A    between atoms: C2_9  and  N4_10
REMARK    3  A    between atoms: N4_10  and  C3_12
REMARK    4  A    between atoms: C5_16  and  C6_17
REMARK    5  A    between atoms: C6_17  and  N6_18
REMARK    6  A    between atoms: N6_18  and  O1_19
REMARK    7  A    between atoms: O1_19  and  C7_20
REMARK       I    between atoms: C7_20  and  N7_22
REMARK    8  A    between atoms: N7_22  and  N8_24
ROOT
HETATM    1  C3  UNL     1      38.105 -22.826  41.475  1.00  0.00     0.151 A
HETATM    2  C4  UNL     1      38.384 -21.784  40.613  1.00  0.00     0.139 A
HETATM    3  N5  UNL     1      39.386 -21.863  39.689  1.00  0.00    -0.350 N
ATOM      4  H5  UNL     1      39.583 -21.087  39.058  1.00  0.00     0.166 HD
HETATM    5  C5  UNL     1      40.096 -22.986  39.642  1.00  0.00     0.113 A
HETATM    6  N9  UNL     1      39.826 -24.007  40.482  1.00  0.00    -0.286 N
ATOM      7  H9  UNL     1      40.386 -24.857  40.425  1.00  0.00     0.188 HD
HETATM    8  N10 UNL     1      38.856 -23.936  41.379  1.00  0.00    -0.283 N
ATOM      9  H10 UNL     1      38.679 -24.726  41.999  1.00  0.00     0.188 HD
ENDROOT
BRANCH   1  10
HETATM   10  N4  UNL     1      37.053 -22.680  42.408  1.00  0.00    -0.172 N
ATOM     11  H4  UNL     1      36.906 -21.764  42.831  1.00  0.00     0.186 HD
BRANCH  10  12
HETATM   12  C2  UNL     1      36.269 -23.644  42.751  1.00  0.00     0.713 A
HETATM   13  N3  UNL     1      35.247 -24.156  42.047  1.00  0.00    -0.117 N
HETATM   14  N2  UNL     1      34.672 -25.143  42.731  1.00  0.00    -0.118 N
ATOM     15  H3  UNL     1      34.954 -23.837  41.124  1.00  0.00     0.206 HD
HETATM   16  C1  UNL     1      35.345 -25.246  43.872  1.00  0.00     0.705 A
ATOM     17  H2  UNL     1      33.875 -25.708  42.438  1.00  0.00     0.206 HD
HETATM   18  N11 UNL     1      36.335 -24.330  43.905  1.00  0.00    -0.020 N
ATOM     19  H11 UNL     1      37.005 -24.186  44.661  1.00  0.00     0.203 HD
BRANCH  16  20
HETATM   20  N1  UNL     1      35.125 -26.071  44.825  1.00  0.00    -0.233 N
ATOM     21  H12 UNL     1      35.219 -27.081  44.719  1.00  0.00     0.174 HD
ATOM     22  H11 UNL     1      34.839 -25.848  45.779  1.00  0.00     0.174 HD
ENDBRANCH  16  20
ENDBRANCH  10  12
ENDBRANCH   1  10
BRANCH   5  23
HETATM   23  C6  UNL     1      41.206 -23.185  38.682  1.00  0.00     0.221 C
BRANCH  23  24
HETATM   24  N6  UNL     1      42.399 -23.677  39.307  1.00  0.00    -0.082 NA
BRANCH  24  25
HETATM   25  O1  UNL     1      42.274 -25.040  39.446  1.00  0.00    -0.188 OA
BRANCH  25  26
HETATM   26  C7  UNL     1      41.852 -25.868  38.407  1.00  0.00     0.397 C
HETATM   27  O2  UNL     1      40.859 -26.599  38.654  1.00  0.00    -0.235 OA
HETATM   28  N7  UNL     1      42.507 -25.879  37.150  1.00  0.00    -0.251 N
ATOM     29  H7  UNL     1      43.309 -25.269  36.992  1.00  0.00     0.191 HD
BRANCH  28  30
HETATM   30  N8  UNL     1      42.064 -26.716  36.130  1.00  0.00    -0.341 N
ATOM     31  H82 UNL     1      42.160 -26.404  35.163  1.00  0.00     0.177 HD
ATOM     32  H81 UNL     1      41.652 -27.623  36.347  1.00  0.00     0.177 HD
ENDBRANCH  28  30
ENDBRANCH  25  26
ENDBRANCH  24  25
ENDBRANCH  23  24
ENDBRANCH   5  23
TORSDOF 8
ENDMDL