MODEL 3
REMARK VINA RESULT: -6.321191913      8.096     10.272
REMARK  7 active torsions:
REMARK  status: ('A' for Active; 'I' for Inactive)
REMARK    1  A    between atoms: C2_2  and  N1_3
REMARK    2  A    between atoms: C3_4  and  C4_5
REMARK    3  A    between atoms: C4_5  and  O1_6
REMARK    4  A    between atoms: C7_12  and  N3_13
REMARK    5  A    between atoms: N3_13  and  N4_15
REMARK    6  A    between atoms: N4_15  and  N5_16
REMARK       I    between atoms: N6_19  and  C8_20
REMARK       I    between atoms: C8_20  and  N8_24
REMARK    7  A    between atoms: N8_24  and  N9_26
ROOT
HETATM    1  N1  UNL     1      35.502 -28.656  32.507  1.00  0.00    -0.327 N
HETATM    2  C3  UNL     1      35.604 -28.674  31.144  1.00  0.00     0.130 A
HETATM    3  N2  UNL     1      36.875 -28.904  30.789  1.00  0.00    -0.339 N
ATOM      4  H2  UNL     1      37.230 -28.968  29.835  1.00  0.00     0.167 HD
HETATM    5  C5  UNL     1      37.589 -29.034  31.896  1.00  0.00     0.066 A
HETATM    6  C6  UNL     1      36.730 -28.879  32.987  1.00  0.00     0.110 A
HETATM    7  C7  UNL     1      37.197 -28.958  34.220  1.00  0.00     0.170 A
HETATM    8  N6  UNL     1      38.607 -29.211  34.396  1.00  0.00    -0.139 N
HETATM    9  C8  UNL     1      39.077 -29.292  35.728  1.00  0.00     0.698 C
HETATM   10  N7  UNL     1      39.229 -30.409  36.326  1.00  0.00    -0.233 N
ATOM     11  H71 UNL     1      39.567 -30.467  37.287  1.00  0.00     0.174 HD
ATOM     12  H72 UNL     1      39.006 -31.271  35.830  1.00  0.00     0.174 HD
HETATM   13  N8  UNL     1      39.385 -28.101  36.414  1.00  0.00    -0.138 N
ATOM     14  H8  UNL     1      38.649 -27.417  36.591  1.00  0.00     0.205 HD
HETATM   15  C9  UNL     1      39.490 -29.371  33.288  1.00  0.00     0.119 A
HETATM   16  C10 UNL     1      39.023 -29.290  32.080  1.00  0.00     0.050 A
ENDROOT
BRANCH   7  17
HETATM   17  N3  UNL     1      36.405 -28.807  35.373  1.00  0.00    -0.267 N
ATOM     18  H3  UNL     1      35.873 -29.618  35.689  1.00  0.00     0.186 HD
BRANCH  17  19
HETATM   19  N4  UNL     1      36.290 -27.625  36.121  1.00  0.00    -0.028 NA
BRANCH  19  20
HETATM   20  N5  UNL     1      35.167 -27.604  36.918  1.00  0.00    -0.329 N
ATOM     21  H52 UNL     1      34.740 -28.452  37.292  1.00  0.00     0.174 HD
ATOM     22  H51 UNL     1      34.819 -26.660  37.087  1.00  0.00     0.174 HD
ENDBRANCH  19  20
ENDBRANCH  17  19
ENDBRANCH   7  17
BRANCH  13  23
HETATM   23  N9  UNL     1      40.688 -27.846  36.855  1.00  0.00    -0.331 N
ATOM     24  H92 UNL     1      41.294 -28.637  37.073  1.00  0.00     0.177 HD
ATOM     25  H91 UNL     1      41.026 -26.889  36.955  1.00  0.00     0.177 HD
ENDBRANCH  13  23
BRANCH   1  26
HETATM   26  C2  UNL     1      34.290 -28.429  33.243  1.00  0.00     0.126 C
HETATM   27  C1  UNL     1      33.996 -26.947  33.431  1.00  0.00     0.027 C
ENDBRANCH   1  26
BRANCH   2  28
HETATM   28  C4  UNL     1      34.619 -28.502  30.286  1.00  0.00     0.179 C
BRANCH  28  29
HETATM   29  O1  UNL     1      33.994 -29.586  29.707  1.00  0.00    -0.369 OA
ATOM     30  H1  UNL     1      33.263 -29.463  29.114  1.00  0.00     0.216 HD
ENDBRANCH  28  29
ENDBRANCH   2  28
TORSDOF 7
ENDMDL