MODEL 3
REMARK VINA RESULT: -6.521680083      3.217      6.019
REMARK  10 active torsions:
REMARK  status: ('A' for Active; 'I' for Inactive)
REMARK    1  A    between atoms: N1_1  and  C1_4
REMARK    2  A    between atoms: C2_7  and  S1_8
REMARK    3  A    between atoms: S1_8  and  C3_9
REMARK    4  A    between atoms: C4_10  and  C5_11
REMARK    5  A    between atoms: C5_11  and  O1_12
REMARK    6  A    between atoms: C5_11  and  O2_14
REMARK    7  A    between atoms: N3_16  and  O3_17
REMARK    8  A    between atoms: C6_19  and  N4_20
REMARK    9  A    between atoms: N4_20  and  N5_22
REMARK   10  A    between atoms: C7_25  and  N6_26
ROOT
HETATM    1  C1  UNL     1      39.451 -22.418  40.123  1.00  0.00     0.679 C
HETATM    2  N2  UNL     1      38.266 -22.770  40.706  1.00  0.00    -0.168 N
ATOM      3  H2  UNL     1      37.807 -23.612  40.358  1.00  0.00     0.186 HD
HETATM    4  C2  UNL     1      37.646 -22.095  41.708  1.00  0.00     0.192 C
HETATM    5  N3  UNL     1      38.043 -20.960  42.336  1.00  0.00    -0.179 N
HETATM    6  C6  UNL     1      38.925 -20.006  41.954  1.00  0.00     0.194 C
HETATM    7  C7  UNL     1      39.649 -20.079  40.783  1.00  0.00     0.163 C
HETATM    8  N7  UNL     1      39.956 -21.160  40.019  1.00  0.00    -0.173 N
ATOM      9  H7  UNL     1      40.645 -21.011  39.281  1.00  0.00     0.186 HD
ENDROOT
BRANCH   4  10
HETATM   10  S1  UNL     1      36.113 -22.811  42.235  1.00  0.00    -0.063 SA
BRANCH  10  11
HETATM   11  C3  UNL     1      36.007 -24.509  41.722  1.00  0.00     0.054 C
HETATM   12  C4  UNL     1      35.904 -25.490  42.610  1.00  0.00     0.040 C
BRANCH  12  13
HETATM   13  C5  UNL     1      35.882 -25.090  44.063  1.00  0.00     0.278 C
BRANCH  13  14
HETATM   14  O1  UNL     1      37.184 -25.177  44.529  1.00  0.00    -0.368 OA
ATOM     15  H1  UNL     1      37.355 -26.093  44.712  1.00  0.00     0.213 HD
ENDBRANCH  13  14
BRANCH  13  16
HETATM   16  O2  UNL     1      35.100 -25.952  44.827  1.00  0.00    -0.368 OA
ATOM     17  H2  UNL     1      34.724 -26.648  44.302  1.00  0.00     0.213 HD
ENDBRANCH  13  16
ENDBRANCH  12  13
ENDBRANCH  10  11
ENDBRANCH   4  10
BRANCH   5  18
HETATM   18  O3  UNL     1      37.445 -20.760  43.542  1.00  0.00    -0.279 OA
ATOM     19  H3  UNL     1      36.575 -20.382  43.481  1.00  0.00     0.245 HD
ENDBRANCH   5  18
BRANCH   1  20
HETATM   20  N1  UNL     1      40.113 -23.406  39.642  1.00  0.00    -0.234 N
ATOM     21  H12 UNL     1      40.785 -23.895  40.234  1.00  0.00     0.174 HD
ATOM     22  H11 UNL     1      39.897 -23.619  38.669  1.00  0.00     0.174 HD
ENDBRANCH   1  20
BRANCH   6  23
HETATM   23  N4  UNL     1      39.097 -18.896  42.823  1.00  0.00    -0.287 N
ATOM     24  H4  UNL     1      38.778 -17.985  42.495  1.00  0.00     0.188 HD
BRANCH  23  25
HETATM   25  N5  UNL     1      39.672 -18.963  44.094  1.00  0.00    -0.343 N
ATOM     26  H52 UNL     1      40.654 -19.236  44.136  1.00  0.00     0.176 HD
ATOM     27  H51 UNL     1      39.182 -18.759  44.965  1.00  0.00     0.176 HD
ENDBRANCH  23  25
ENDBRANCH   6  23
BRANCH   7  28
HETATM   28  N6  UNL     1      40.100 -18.948  40.371  1.00  0.00    -0.382 N
ATOM     29  H62 UNL     1      40.848 -18.533  40.926  1.00  0.00     0.157 HD
ATOM     30  H61 UNL     1      39.644 -18.599  39.528  1.00  0.00     0.157 HD
ENDBRANCH   7  28
TORSDOF 10
ENDMDL