MODEL 1
REMARK VINA RESULT: -7.683303984      0.000      0.000
REMARK  10 active torsions:
REMARK  status: ('A' for Active; 'I' for Inactive)
REMARK    1  A    between atoms: N1_1  and  C1_4
REMARK    2  A    between atoms: C2_7  and  S1_8
REMARK    3  A    between atoms: S1_8  and  N3_9
REMARK    4  A    between atoms: N3_9  and  O1_11
REMARK    5  A    between atoms: C3_13  and  O2_14
REMARK    6  A    between atoms: O2_14  and  C4_15
REMARK    7  A    between atoms: C4_15  and  N7_23
REMARK    8  A    between atoms: N4_16  and  N5_18
REMARK    9  A    between atoms: N5_18  and  N6_20
REMARK   10  A    between atoms: N7_23  and  N8_25
ROOT
HETATM    1  C1  UNL     1      38.949 -19.550  41.274  1.00  0.00     0.679 A
HETATM    2  N2  UNL     1      39.793 -20.568  41.022  1.00  0.00    -0.181 N
ATOM      3  H2  UNL     1      40.795 -20.383  40.981  1.00  0.00     0.185 HD
HETATM    4  C2  UNL     1      39.345 -21.839  40.820  1.00  0.00     0.148 A
HETATM    5  C3  UNL     1      37.995 -22.122  40.868  1.00  0.00     0.183 A
HETATM    6  C5  UNL     1      37.145 -21.066  41.126  1.00  0.00     0.296 A
HETATM    7  O3  UNL     1      35.908 -21.318  41.171  1.00  0.00    -0.264 OA
HETATM    8  N9  UNL     1      37.632 -19.823  41.321  1.00  0.00    -0.154 N
ATOM      9  H9  UNL     1      36.978 -19.063  41.509  1.00  0.00     0.187 HD
ENDROOT
BRANCH   5  10
HETATM   10  O2  UNL     1      37.551 -23.422  40.660  1.00  0.00    -0.269 OA
BRANCH  10  11
HETATM   11  C4  UNL     1      36.701 -23.969  41.608  1.00  0.00     0.259 C
HETATM   12  N4  UNL     1      37.091 -23.871  42.833  1.00  0.00    -0.249 N
ATOM     13  H4  UNL     1      37.980 -23.409  43.022  1.00  0.00     0.192 HD
BRANCH  12  14
HETATM   14  N5  UNL     1      36.360 -24.365  43.914  1.00  0.00    -0.246 N
ATOM     15  H5  UNL     1      35.364 -24.173  44.017  1.00  0.00     0.208 HD
BRANCH  14  16
HETATM   16  N6  UNL     1      37.060 -25.140  44.855  1.00  0.00    -0.331 N
ATOM     17  H62 UNL     1      37.837 -24.740  45.381  1.00  0.00     0.178 HD
ATOM     18  H61 UNL     1      36.754 -26.105  44.978  1.00  0.00     0.178 HD
ENDBRANCH  14  16
ENDBRANCH  12  14
BRANCH  11  19
HETATM   19  N7  UNL     1      35.483 -24.591  41.231  1.00  0.00    -0.270 N
ATOM     20  H7  UNL     1      34.600 -24.112  41.405  1.00  0.00     0.190 HD
BRANCH  19  21
HETATM   21  N8  UNL     1      35.475 -25.849  40.625  1.00  0.00    -0.342 N
ATOM     22  H82 UNL     1      36.369 -26.292  40.415  1.00  0.00     0.176 HD
ATOM     23  H81 UNL     1      34.598 -26.316  40.396  1.00  0.00     0.176 HD
ENDBRANCH  19  21
ENDBRANCH  11  19
ENDBRANCH  10  11
ENDBRANCH   5  10
BRANCH   4  24
HETATM   24  S1  UNL     1      40.472 -23.168  40.490  1.00  0.00     0.029 SA
BRANCH  24  25
HETATM   25  N3  UNL     1      40.613 -24.256  41.854  1.00  0.00    -0.236 N
ATOM     26  H3  UNL     1      41.409 -24.208  42.491  1.00  0.00     0.203 HD
BRANCH  25  27
HETATM   27  O1  UNL     1      39.746 -25.052  42.007  1.00  0.00    -0.283 OA
ATOM     28  H1  UNL     1      38.878 -24.813  41.704  1.00  0.00     0.245 HD
ENDBRANCH  25  27
ENDBRANCH  24  25
ENDBRANCH   4  24
BRANCH   1  29
HETATM   29  N1  UNL     1      39.406 -18.355  41.461  1.00  0.00    -0.234 N
ATOM     30  H12 UNL     1      39.177 -17.814  42.295  1.00  0.00     0.174 HD
ATOM     31  H11 UNL     1      40.013 -17.922  40.765  1.00  0.00     0.174 HD
ENDBRANCH   1  29
TORSDOF 10
ENDMDL