MODEL 2
REMARK VINA RESULT: -7.935841489      3.357      6.527
REMARK  6 active torsions:
REMARK  status: ('A' for Active; 'I' for Inactive)
REMARK    1  A    between atoms: N1_1  and  C1_4
REMARK    2  A    between atoms: C3_9  and  C4_10
REMARK       I    between atoms: C4_10  and  N4_12
REMARK       I    between atoms: N4_12  and  C5_14
REMARK    3  A    between atoms: C5_14  and  C6_16
REMARK    4  A    between atoms: C6_16  and  O3_17
REMARK    5  A    between atoms: C6_16  and  O4_19
REMARK    6  A    between atoms: C7_23  and  C8_24
ROOT
HETATM    1  C1  UNL     1      40.672 -23.355  39.183  1.00  0.00     0.132 A
HETATM    2  N2  UNL     1      39.896 -22.307  39.511  1.00  0.00    -0.327 N
ATOM      3  H2  UNL     1      40.187 -21.354  39.290  1.00  0.00     0.168 HD
HETATM    4  C2  UNL     1      38.712 -22.542  40.146  1.00  0.00     0.150 A
HETATM    5  N3  UNL     1      37.900 -21.420  40.489  1.00  0.00    -0.080 NA
HETATM    6  C3  UNL     1      38.349 -23.829  40.431  1.00  0.00     0.143 A
HETATM    7  N5  UNL     1      39.148 -24.839  40.088  1.00  0.00    -0.342 N
ATOM      8  H5  UNL     1      38.855 -25.791  40.310  1.00  0.00     0.166 HD
HETATM    9  C7  UNL     1      40.315 -24.656  39.465  1.00  0.00     0.142 A
ENDROOT
BRANCH   6  10
HETATM   10  C4  UNL     1      37.104 -24.092  41.100  1.00  0.00     0.278 C
HETATM   11  O1  UNL     1      36.017 -23.994  40.476  1.00  0.00    -0.265 OA
HETATM   12  N4  UNL     1      37.127 -24.464  42.482  1.00  0.00    -0.288 N
HETATM   13  C5  UNL     1      35.897 -24.718  43.123  1.00  0.00     0.279 C
ATOM     14  H4  UNL     1      38.008 -24.543  42.990  1.00  0.00     0.172 HD
HETATM   15  O2  UNL     1      34.836 -24.613  42.479  1.00  0.00    -0.268 OA
BRANCH  13  16
HETATM   16  C6  UNL     1      35.884 -25.104  44.547  1.00  0.00     0.349 C
BRANCH  16  17
HETATM   17  O3  UNL     1      37.177 -25.384  44.949  1.00  0.00    -0.363 OA
ATOM     18  H3  UNL     1      37.437 -24.759  45.616  1.00  0.00     0.213 HD
ENDBRANCH  16  17
BRANCH  16  19
HETATM   19  O4  UNL     1      35.099 -26.247  44.678  1.00  0.00    -0.363 OA
ATOM     20  H4  UNL     1      35.010 -26.439  45.604  1.00  0.00     0.213 HD
ENDBRANCH  16  19
ENDBRANCH  13  16
ENDBRANCH   6  10
BRANCH   9  21
HETATM   21  C8  UNL     1      41.146 -25.799  39.115  1.00  0.00     0.285 C
HETATM   22  N6  UNL     1      40.589 -26.911  38.404  1.00  0.00    -0.056 NA
HETATM   23  O5  UNL     1      42.358 -25.793  39.444  1.00  0.00    -0.269 OA
ENDBRANCH   9  21
BRANCH   1  24
HETATM   24  N1  UNL     1      41.802 -23.167  38.580  1.00  0.00    -0.383 N
ATOM     25  H12 UNL     1      42.297 -22.297  38.774  1.00  0.00     0.157 HD
ATOM     26  H11 UNL     1      42.166 -23.872  37.938  1.00  0.00     0.157 HD
ENDBRANCH   1  24
TORSDOF 6
ENDMDL