MODEL 5
REMARK VINA RESULT: -7.941350944      2.410      6.116
REMARK  7 active torsions:
REMARK  status: ('A' for Active; 'I' for Inactive)
REMARK    1  A    between atoms: N1_1  and  C1_4
REMARK    2  A    between atoms: C2_7  and  C3_8
REMARK       I    between atoms: C3_8  and  N3_10
REMARK    3  A    between atoms: N3_10  and  C4_12
REMARK    4  A    between atoms: C6_21  and  C7_22
REMARK    5  A    between atoms: C7_22  and  O2_23
REMARK    6  A    between atoms: C7_22  and  N8_25
REMARK    7  A    between atoms: N8_25  and  O3_26
ROOT
HETATM    1  C1  UNL     1      36.362 -25.226  40.142  1.00  0.00     0.676 A
HETATM    2  N2  UNL     1      37.227 -24.262  39.809  1.00  0.00    -0.186 N
ATOM      3  H2  UNL     1      37.474 -24.123  38.830  1.00  0.00     0.184 HD
HETATM    4  C2  UNL     1      37.767 -23.483  40.742  1.00  0.00     0.119 A
HETATM    5  C5  UNL     1      37.409 -23.694  42.077  1.00  0.00     0.065 A
HETATM    6  C6  UNL     1      36.522 -24.681  42.429  1.00  0.00     0.075 A
HETATM    7  N9  UNL     1      36.007 -25.438  41.450  1.00  0.00    -0.192 N
ATOM      8  H9  UNL     1      35.345 -26.178  41.680  1.00  0.00     0.184 HD
ENDROOT
BRANCH   4   9
HETATM    9  C3  UNL     1      38.716 -22.419  40.425  1.00  0.00     0.287 C
HETATM   10  O1  UNL     1      38.858 -22.033  39.236  1.00  0.00    -0.265 OA
HETATM   11  N3  UNL     1      39.474 -21.832  41.482  1.00  0.00    -0.152 N
ATOM     12  H3  UNL     1      40.010 -22.428  42.112  1.00  0.00     0.188 HD
BRANCH  11  13
HETATM   13  C4  UNL     1      39.488 -20.534  41.648  1.00  0.00     0.713 A
HETATM   14  N4  UNL     1      39.444 -19.842  42.803  1.00  0.00    -0.113 N
HETATM   15  N5  UNL     1      39.480 -18.551  42.492  1.00  0.00     0.009 NA
ATOM     16  H4  UNL     1      39.394 -20.237  43.742  1.00  0.00     0.203 HD
HETATM   17  N6  UNL     1      39.546 -18.403  41.178  1.00  0.00    -0.212 N
HETATM   18  N7  UNL     1      39.550 -19.617  40.669  1.00  0.00    -0.118 N
ATOM     19  H6  UNL     1      39.586 -17.523  40.663  1.00  0.00     0.206 HD
ATOM     20  H7  UNL     1      39.593 -19.831  39.673  1.00  0.00     0.207 HD
ENDBRANCH  11  13
ENDBRANCH   4   9
BRANCH   1  21
HETATM   21  N1  UNL     1      35.859 -25.961  39.211  1.00  0.00    -0.234 N
ATOM     22  H12 UNL     1      35.390 -25.527  38.416  1.00  0.00     0.174 HD
ATOM     23  H11 UNL     1      35.942 -26.975  39.283  1.00  0.00     0.174 HD
ENDBRANCH   1  21
BRANCH   6  24
HETATM   24  C7  UNL     1      36.148 -24.904  43.805  1.00  0.00     0.289 C
BRANCH  24  25
HETATM   25  O2  UNL     1      37.174 -25.182  44.678  1.00  0.00    -0.372 OA
ATOM     26  H2  UNL     1      37.782 -24.472  44.852  1.00  0.00     0.212 HD
ENDBRANCH  24  25
BRANCH  24  27
HETATM   27  N8  UNL     1      35.181 -25.994  43.916  1.00  0.00    -0.065 NA
BRANCH  27  28
HETATM   28  O3  UNL     1      34.826 -26.193  45.200  1.00  0.00    -0.293 OA
ATOM     29  H3  UNL     1      34.701 -27.118  45.377  1.00  0.00     0.238 HD
ENDBRANCH  27  28
ENDBRANCH  24  27
ENDBRANCH   6  24
TORSDOF 7
ENDMDL