MODEL 3
REMARK VINA RESULT: -7.259831508      2.965      5.407
REMARK  6 active torsions:
REMARK  status: ('A' for Active; 'I' for Inactive)
REMARK    1  A    between atoms: C2_2  and  O1_3
REMARK    2  A    between atoms: C2_2  and  N1_5
REMARK    3  A    between atoms: N1_5  and  C3_7
REMARK    4  A    between atoms: N4_13  and  C5_15
REMARK    5  A    between atoms: C7_22  and  C8_23
REMARK       I    between atoms: C8_23  and  N8_25
REMARK    6  A    between atoms: N8_25  and  N9_27
ROOT
HETATM    1  C3  UNL     1      37.538 -24.551  40.218  1.00  0.00     0.137 A
HETATM    2  N2  UNL     1      38.403 -23.663  39.657  1.00  0.00    -0.283 N
ATOM      3  H2  UNL     1      38.919 -23.835  38.795  1.00  0.00     0.188 HD
HETATM    4  N3  UNL     1      38.491 -22.578  40.350  1.00  0.00    -0.283 N
ATOM      5  H3  UNL     1      39.078 -21.776  40.120  1.00  0.00     0.188 HD
HETATM    6  C4  UNL     1      37.684 -22.674  41.424  1.00  0.00     0.142 A
HETATM    7  N4  UNL     1      37.533 -21.751  42.335  1.00  0.00    -0.311 N
ATOM      8  H4  UNL     1      36.901 -21.903  43.121  1.00  0.00     0.170 HD
HETATM    9  C7  UNL     1      37.070 -23.926  41.354  1.00  0.00     0.124 A
ENDROOT
BRANCH   7  10
HETATM   10  C5  UNL     1      38.253 -20.539  42.224  1.00  0.00     0.194 C
HETATM   11  N5  UNL     1      38.008 -19.568  41.410  1.00  0.00    -0.346 N
HETATM   12  C6  UNL     1      38.947 -18.486  41.572  1.00  0.00     0.259 C
ATOM     13  H5  UNL     1      37.244 -19.565  40.736  1.00  0.00     0.163 HD
HETATM   14  N6  UNL     1      39.536 -18.749  42.868  1.00  0.00    -0.119 NA
HETATM   15  N7  UNL     1      39.387 -20.133  42.977  1.00  0.00    -0.274 N
ATOM     16  H7  UNL     1      39.994 -20.753  43.513  1.00  0.00     0.185 HD
ENDBRANCH   7  10
BRANCH   9  17
HETATM   17  C8  UNL     1      36.109 -24.469  42.314  1.00  0.00     0.277 C
HETATM   18  O2  UNL     1      34.962 -24.836  41.883  1.00  0.00    -0.266 OA
HETATM   19  N8  UNL     1      36.351 -24.618  43.685  1.00  0.00    -0.272 N
ATOM     20  H8  UNL     1      37.248 -24.342  44.085  1.00  0.00     0.189 HD
BRANCH  19  21
HETATM   21  N9  UNL     1      35.324 -25.164  44.519  1.00  0.00    -0.342 N
ATOM     22  H92 UNL     1      34.379 -24.783  44.465  1.00  0.00     0.176 HD
ATOM     23  H91 UNL     1      35.554 -25.928  45.154  1.00  0.00     0.176 HD
ENDBRANCH  19  21
ENDBRANCH   9  17
BRANCH   1  24
HETATM   24  N1  UNL     1      37.234 -25.819  39.697  1.00  0.00    -0.348 N
ATOM     25  H1  UNL     1      37.487 -26.646  40.240  1.00  0.00     0.163 HD
BRANCH  24  26
HETATM   26  C2  UNL     1      36.573 -26.001  38.416  1.00  0.00     0.215 C
HETATM   27  C1  UNL     1      35.078 -26.122  38.577  1.00  0.00     0.063 C
BRANCH  26  28
HETATM   28  O1  UNL     1      37.071 -27.038  37.680  1.00  0.00    -0.377 OA
ATOM     29  H1  UNL     1      37.981 -27.201  37.895  1.00  0.00     0.212 HD
ENDBRANCH  26  28
ENDBRANCH  24  26
ENDBRANCH   1  24
TORSDOF 6
ENDMDL