MODEL 3
REMARK VINA RESULT: -7.639353170      1.592      3.141
REMARK  5 active torsions:
REMARK  status: ('A' for Active; 'I' for Inactive)
REMARK    1  A    between atoms: C2_2  and  N1_3
REMARK    2  A    between atoms: C3_6  and  C4_7
REMARK    3  A    between atoms: C6_11  and  N4_12
REMARK    4  A    between atoms: N6_25  and  C15_26
REMARK    5  A    between atoms: C15_26  and  C16_27
ROOT
HETATM    1  N1  UNL     1      -3.067   2.995  12.815  1.00  0.00    -0.268 N
HETATM    2  N2  UNL     1      -2.081   3.614  12.183  1.00  0.00    -0.295 N
ATOM      3  H2  UNL     1      -1.673   4.507  12.461  1.00  0.00     0.187 HD
HETATM    4  C3  UNL     1      -1.703   2.885  11.120  1.00  0.00     0.069 A
HETATM    5  C8  UNL     1      -2.496   1.773  11.108  1.00  0.00    -0.005 A
HETATM    6  C9  UNL     1      -3.362   1.849  12.187  1.00  0.00     0.039 A
HETATM    7  C10 UNL     1      -4.218   0.660  12.183  1.00  0.00     0.060 C
HETATM    8  C11 UNL     1      -3.382  -0.352  11.428  1.00  0.00     0.011 C
HETATM    9  C12 UNL     1      -2.761   0.515  10.350  1.00  0.00     0.043 C
ENDROOT
BRANCH   4  10
HETATM   10  C4  UNL     1      -0.644   3.216  10.158  1.00  0.00     0.025 A
HETATM   11  C5  UNL     1       0.605   3.567  10.628  1.00  0.00     0.121 A
HETATM   12  N3  UNL     1       1.548   3.862   9.732  1.00  0.00    -0.201 N
HETATM   13  C6  UNL     1       1.343   3.835   8.391  1.00  0.00     0.675 A
ATOM     14  H3  UNL     1       2.473   4.122  10.073  1.00  0.00     0.183 HD
HETATM   15  N5  UNL     1       0.132   3.496   7.914  1.00  0.00    -0.201 N
HETATM   16  C7  UNL     1      -0.843   3.192   8.801  1.00  0.00     0.121 A
ATOM     17  H5  UNL     1      -0.047   3.470   6.911  1.00  0.00     0.183 HD
BRANCH  13  18
HETATM   18  N4  UNL     1       2.336   4.142   7.630  1.00  0.00    -0.234 N
ATOM     19  H42 UNL     1       3.304   4.145   7.953  1.00  0.00     0.174 HD
ATOM     20  H41 UNL     1       2.130   4.391   6.662  1.00  0.00     0.174 HD
ENDBRANCH  13  18
ENDBRANCH   4  10
BRANCH   1  21
HETATM   21  C2  UNL     1      -3.682   3.555  14.011  1.00  0.00     0.135 C
HETATM   22  C1  UNL     1      -2.767   4.507  14.720  1.00  0.00     0.061 C
HETATM   23  C13 UNL     1      -4.933   4.303  13.568  1.00  0.00     0.068 C
HETATM   24  C14 UNL     1      -6.017   3.344  13.943  1.00  0.00     0.113 C
HETATM   25  N6  UNL     1      -5.483   2.566  15.017  1.00  0.00    -0.232 NA
HETATM   26  N7  UNL     1      -4.112   2.546  14.926  1.00  0.00    -0.131 NA
BRANCH  25  27
HETATM   27  C15 UNL     1      -5.970   3.117  16.266  1.00  0.00     0.114 C
BRANCH  27  28
HETATM   28  C16 UNL     1      -6.737   2.131  17.079  1.00  0.00     0.000 A
HETATM   29  C17 UNL     1      -6.312   1.898  18.533  1.00  0.00     0.006 A
HETATM   30  C18 UNL     1      -5.984   0.891  17.493  1.00  0.00     0.006 A
ENDBRANCH  27  28
ENDBRANCH  25  27
ENDBRANCH   1  21
TORSDOF 5
ENDMDL