MODEL 5
REMARK VINA RESULT: -7.360204298      0.899      1.039
REMARK  6 active torsions:
REMARK  status: ('A' for Active; 'I' for Inactive)
REMARK    1  A    between atoms: O1_1  and  C1_3
REMARK    2  A    between atoms: C4_6  and  O2_7
REMARK    3  A    between atoms: N1_9  and  C5_10
REMARK    4  A    between atoms: C5_10  and  C6_11
REMARK    5  A    between atoms: C6_11  and  C7_12
REMARK    6  A    between atoms: C7_12  and  N2_13
ROOT
HETATM    1  C1  UNL     1      -4.701   2.999  12.222  1.00  0.00     0.151 A
HETATM    2  C2  UNL     1      -4.995   3.267  13.539  1.00  0.00     0.008 A
HETATM    3  C3  UNL     1      -4.666   2.175  14.322  1.00  0.00     0.012 A
HETATM    4  C4  UNL     1      -4.172   1.252  13.457  1.00  0.00     0.151 A
HETATM    5  N1  UNL     1      -4.193   1.750  12.185  1.00  0.00    -0.308 N
HETATM    6  C12 UNL     1      -4.884   2.226  15.763  1.00  0.00     0.053 C
HETATM    7  C13 UNL     1      -5.270   0.890  16.390  1.00  0.00     0.019 C
HETATM    8  C14 UNL     1      -6.715   1.102  16.616  1.00  0.00    -0.005 A
HETATM    9  C15 UNL     1      -7.505   1.556  17.679  1.00  0.00     0.014 A
HETATM   10  C16 UNL     1      -6.506   2.482  17.368  1.00  0.00     0.019 A
HETATM   11  C17 UNL     1      -6.040   3.138  16.140  1.00  0.00    -0.070 C
HETATM   12  C18 UNL     1      -6.332   4.164  15.387  1.00  0.00    -0.018 C
HETATM   13  C19 UNL     1      -5.572   4.491  14.153  1.00  0.00     0.071 C
ENDROOT
BRANCH   5  14
HETATM   14  C5  UNL     1      -3.744   1.031  11.013  1.00  0.00     0.135 C
BRANCH  14  15
HETATM   15  C6  UNL     1      -2.266   1.030  10.835  1.00  0.00     0.050 C
BRANCH  15  16
HETATM   16  C7  UNL     1      -1.769   2.148   9.977  1.00  0.00     0.274 C
BRANCH  16  17
HETATM   17  N2  UNL     1      -0.851   3.028  10.653  1.00  0.00     0.092 N
HETATM   18  C8  UNL     1       0.373   3.258   9.955  1.00  0.00     0.298 C
HETATM   19  C9  UNL     1       0.765   4.725  10.173  1.00  0.00     0.198 C
HETATM   20  O3  UNL     1       0.788   4.991  11.538  1.00  0.00    -0.388 OA
HETATM   21  C10 UNL     1      -0.441   4.852  12.137  1.00  0.00     0.198 C
HETATM   22  C11 UNL     1      -1.456   4.185  11.221  1.00  0.00     0.298 C
ENDBRANCH  16  17
ENDBRANCH  15  16
ENDBRANCH  14  15
ENDBRANCH   5  14
BRANCH   1  23
HETATM   23  O1  UNL     1      -4.907   3.883  11.161  1.00  0.00    -0.345 OA
ATOM     24  H1  UNL     1      -4.333   3.975  10.411  1.00  0.00     0.219 HD
ENDBRANCH   1  23
BRANCH   4  25
HETATM   25  O2  UNL     1      -3.701  -0.021  13.758  1.00  0.00    -0.345 OA
ATOM     26  H2  UNL     1      -4.128  -0.684  14.288  1.00  0.00     0.219 HD
ENDBRANCH   4  25
TORSDOF 6
ENDMDL