MODEL 2
REMARK VINA RESULT: -6.468438521      1.396      1.782
REMARK  7 active torsions:
REMARK  status: ('A' for Active; 'I' for Inactive)
REMARK    1  A    between atoms: N1_7  and  C7_8
REMARK    2  A    between atoms: C7_8  and  C8_9
REMARK    3  A    between atoms: C8_9  and  N2_10
REMARK    4  A    between atoms: N2_10  and  C9_12
REMARK    5  A    between atoms: C10_15  and  S1_16
REMARK    6  A    between atoms: S1_16  and  C11_17
REMARK    7  A    between atoms: C15_23  and  N5_24
ROOT
HETATM    1  C9  UNL     1      -2.492   1.936  11.574  1.00  0.00     0.694 A
HETATM    2  N3  UNL     1      -2.277   2.994  12.385  1.00  0.00    -0.169 N
ATOM      3  H3  UNL     1      -2.655   2.969  13.332  1.00  0.00     0.186 HD
HETATM    4  C10 UNL     1      -1.585   4.078  11.993  1.00  0.00     0.175 A
HETATM    5  N4  UNL     1      -1.072   4.126  10.728  1.00  0.00    -0.170 N
ATOM      6  H4  UNL     1      -0.544   4.939  10.413  1.00  0.00     0.186 HD
HETATM    7  C15 UNL     1      -1.275   3.086   9.908  1.00  0.00     0.692 A
HETATM    8  N6  UNL     1      -1.978   2.006  10.334  1.00  0.00    -0.023 N
ATOM      9  H6  UNL     1      -2.121   1.225   9.693  1.00  0.00     0.203 HD
ENDROOT
BRANCH   1  10
HETATM   10  N2  UNL     1      -3.166   0.935  12.024  1.00  0.00    -0.224 N
ATOM     11  H2  UNL     1      -2.734   0.016  11.928  1.00  0.00     0.177 HD
BRANCH  10  12
HETATM   12  C8  UNL     1      -4.449   0.974  12.641  1.00  0.00     0.168 C
BRANCH  12  13
HETATM   13  C7  UNL     1      -4.291   0.591  14.101  1.00  0.00     0.292 C
BRANCH  13  14
HETATM   14  N1  UNL     1      -5.032   1.451  14.972  1.00  0.00     0.090 N
HETATM   15  C6  UNL     1      -4.415   2.743  15.196  1.00  0.00     0.276 C
HETATM   16  C4  UNL     1      -5.489   3.619  15.829  1.00  0.00     0.010 C
HETATM   17  C3  UNL     1      -5.939   3.049  17.127  1.00  0.00     0.012 C
HETATM   18  C5  UNL     1      -6.615   3.738  14.808  1.00  0.00     0.011 C
HETATM   19  C2  UNL     1      -6.074   1.568  17.189  1.00  0.00     0.010 C
HETATM   20  C1  UNL     1      -7.511   1.111  16.922  1.00  0.00     0.011 C
HETATM   21  C16 UNL     1      -5.152   0.817  16.263  1.00  0.00     0.276 C
ENDBRANCH  13  14
ENDBRANCH  12  13
ENDBRANCH  10  12
ENDBRANCH   1  10
BRANCH   4  22
HETATM   22  S1  UNL     1      -1.360   5.417  13.148  1.00  0.00    -0.084 SA
BRANCH  22  23
HETATM   23  C11 UNL     1      -2.945   6.331  13.216  1.00  0.00     0.005 C
HETATM   24  C12 UNL     1      -3.968   5.691  12.331  1.00  0.00     0.026 C
HETATM   25  C13 UNL     1      -3.421   6.477  14.640  1.00  0.00     0.026 C
HETATM   26  C14 UNL     1      -2.616   7.748  12.725  1.00  0.00     0.026 C
ENDBRANCH  22  23
ENDBRANCH   4  22
BRANCH   7  27
HETATM   27  N5  UNL     1      -0.802   3.120   8.723  1.00  0.00    -0.234 N
ATOM     28  H52 UNL     1      -1.159   2.486   8.009  1.00  0.00     0.174 HD
ATOM     29  H51 UNL     1      -0.063   3.786   8.496  1.00  0.00     0.174 HD
ENDBRANCH   7  27
TORSDOF 7
ENDMDL