MODEL 3
REMARK VINA RESULT: -7.038125872      2.254      3.668
REMARK  6 active torsions:
REMARK  status: ('A' for Active; 'I' for Inactive)
REMARK    1  A    between atoms: N1_2  and  C3_4
REMARK    2  A    between atoms: C3_4  and  C4_5
REMARK    3  A    between atoms: C4_5  and  C5_6
REMARK    4  A    between atoms: C5_6  and  N2_7
REMARK    5  A    between atoms: N2_7  and  C6_9
REMARK    6  A    between atoms: C7_12  and  N4_13
ROOT
HETATM    1  C6  UNL     1      -4.756   6.021  12.163  1.00  0.00     0.680 A
HETATM    2  N3  UNL     1      -5.505   6.039  13.243  1.00  0.00    -0.176 N
ATOM      3  H3  UNL     1      -6.018   6.890  13.474  1.00  0.00     0.186 HD
HETATM    4  C7  UNL     1      -5.620   4.948  14.072  1.00  0.00     0.128 A
HETATM    5  C8  UNL     1      -4.943   3.810  13.785  1.00  0.00     0.050 A
HETATM    6  C9  UNL     1      -4.143   3.806  12.616  1.00  0.00     0.079 A
HETATM    7  C10 UNL     1      -3.432   2.726  12.161  1.00  0.00     0.119 A
HETATM    8  N5  UNL     1      -3.516   1.629  12.881  1.00  0.00    -0.357 N
ATOM      9  H5  UNL     1      -3.010   0.794  12.587  1.00  0.00     0.166 HD
HETATM   10  C11 UNL     1      -4.274   1.593  14.020  1.00  0.00     0.086 A
HETATM   11  S1  UNL     1      -4.512   0.282  15.087  1.00  0.00    -0.076 SA
HETATM   12  C12 UNL     1      -5.528   1.054  16.183  1.00  0.00    -0.008 A
HETATM   13  C13 UNL     1      -5.687   2.346  15.723  1.00  0.00    -0.031 A
HETATM   14  C14 UNL     1      -5.010   2.621  14.548  1.00  0.00     0.021 A
HETATM   15  C15 UNL     1      -6.523   2.963  16.819  1.00  0.00     0.041 C
HETATM   16  C16 UNL     1      -6.315   2.105  18.076  1.00  0.00     0.010 C
HETATM   17  C17 UNL     1      -6.309   0.774  17.450  1.00  0.00     0.047 C
HETATM   18  N6  UNL     1      -4.086   4.919  11.855  1.00  0.00    -0.190 N
ATOM     19  H6  UNL     1      -3.507   4.912  11.014  1.00  0.00     0.184 HD
ENDROOT
BRANCH   1  20
HETATM   20  N2  UNL     1      -4.654   7.037  11.398  1.00  0.00    -0.226 N
ATOM     21  H2  UNL     1      -5.483   7.536  11.074  1.00  0.00     0.177 HD
BRANCH  20  22
HETATM   22  C5  UNL     1      -3.315   7.467  11.000  1.00  0.00     0.143 C
BRANCH  22  23
HETATM   23  C4  UNL     1      -2.920   8.556  11.936  1.00  0.00     0.064 C
BRANCH  23  24
HETATM   24  C3  UNL     1      -1.733   8.235  12.770  1.00  0.00     0.058 C
BRANCH  24  25
HETATM   25  N1  UNL     1      -1.972   7.823  14.065  1.00  0.00    -0.402 N
HETATM   26  C1  UNL     1      -1.887   8.588  15.218  1.00  0.00     0.148 C
HETATM   27  C2  UNL     1      -1.841   6.387  14.277  1.00  0.00     0.148 C
ENDBRANCH  24  25
ENDBRANCH  23  24
ENDBRANCH  22  23
ENDBRANCH  20  22
ENDBRANCH   1  20
BRANCH   4  28
HETATM   28  N4  UNL     1      -6.427   5.051  15.025  1.00  0.00    -0.384 N
ATOM     29  H42 UNL     1      -6.149   5.296  15.976  1.00  0.00     0.157 HD
ATOM     30  H41 UNL     1      -7.399   4.808  14.829  1.00  0.00     0.157 HD
ENDBRANCH   4  28
TORSDOF 6
ENDMDL