MODEL 5
REMARK VINA RESULT: -7.250878199      2.427      4.103
REMARK  7 active torsions:
REMARK  status: ('A' for Active; 'I' for Inactive)
REMARK    1  A    between atoms: C11_12  and  C12_13
REMARK    2  A    between atoms: C13_15  and  C14_16
REMARK    3  A    between atoms: C14_16  and  C15_17
REMARK    4  A    between atoms: C15_17  and  C16_18
REMARK    5  A    between atoms: C16_18  and  O3_19
REMARK    6  A    between atoms: C17_21  and  O4_22
REMARK    7  A    between atoms: C18_24  and  O5_25
ROOT
HETATM    1  C12 UNL     1      -3.328   2.696  11.705  1.00  0.00     0.158 C
HETATM    2  O2  UNL     1      -3.993   1.834  10.823  1.00  0.00    -0.375 OA
HETATM    3  C13 UNL     1      -3.143   0.742  10.699  1.00  0.00     0.153 C
HETATM    4  C17 UNL     1      -1.805   1.315  10.618  1.00  0.00     0.178 C
HETATM    5  C18 UNL     1      -1.913   2.684  11.237  1.00  0.00     0.178 C
ENDROOT
BRANCH   1   6
HETATM    6  C11 UNL     1      -3.948   4.080  11.729  1.00  0.00     0.026 C
HETATM    7  C10 UNL     1      -3.560   4.721  10.386  1.00  0.00     0.009 C
HETATM    8  C9  UNL     1      -2.577   5.835  10.786  1.00  0.00     0.013 C
HETATM    9  C7  UNL     1      -3.242   6.317  12.024  1.00  0.00    -0.003 C
HETATM   10  C5  UNL     1      -2.451   7.242  12.895  1.00  0.00     0.092 A
HETATM   11  C8  UNL     1      -4.535   7.009  11.700  1.00  0.00     0.019 C
HETATM   12  C19 UNL     1      -3.464   4.991  12.741  1.00  0.00     0.031 C
HETATM   13  C4  UNL     1      -2.780   7.269  14.256  1.00  0.00     0.161 A
HETATM   14  O1  UNL     1      -1.491   6.729  13.759  1.00  0.00    -0.368 OA
HETATM   15  C6  UNL     1      -2.148   8.568  12.205  1.00  0.00     0.049 C
HETATM   16  C3  UNL     1      -3.644   6.226  14.896  1.00  0.00     0.069 C
HETATM   17  C2  UNL     1      -4.305   5.336  13.892  1.00  0.00    -0.081 C
HETATM   18  C1  UNL     1      -5.542   4.955  14.103  1.00  0.00     0.015 C
ENDBRANCH   1   6
BRANCH   5  19
HETATM   19  O5  UNL     1      -0.991   2.898  12.247  1.00  0.00    -0.390 OA
ATOM     20  H5  UNL     1      -0.405   2.164  12.390  1.00  0.00     0.210 HD
ENDBRANCH   5  19
BRANCH   3  21
HETATM   21  C14 UNL     1      -3.427  -0.258  11.752  1.00  0.00     0.036 C
BRANCH  21  22
HETATM   22  C15 UNL     1      -3.793  -1.627  11.297  1.00  0.00     0.029 C
BRANCH  22  23
HETATM   23  C16 UNL     1      -2.620  -2.578  11.434  1.00  0.00     0.164 C
BRANCH  23  24
HETATM   24  O3  UNL     1      -3.035  -3.908  11.335  1.00  0.00    -0.401 OA
ATOM     25  H3  UNL     1      -2.507  -4.386  10.706  1.00  0.00     0.209 HD
ENDBRANCH  23  24
ENDBRANCH  22  23
ENDBRANCH  21  22
ENDBRANCH   3  21
BRANCH   4  26
HETATM   26  O4  UNL     1      -1.458   1.492   9.270  1.00  0.00    -0.390 OA
ATOM     27  H4  UNL     1      -0.651   1.990   9.216  1.00  0.00     0.210 HD
ENDBRANCH   4  26
TORSDOF 7
ENDMDL