MODEL 2
REMARK VINA RESULT: -6.437201402      2.773      4.219
REMARK  6 active torsions:
REMARK  status: ('A' for Active; 'I' for Inactive)
REMARK    1  A    between atoms: C14_16  and  C16_18
REMARK    2  A    between atoms: C16_18  and  O3_19
REMARK    3  A    between atoms: C17_21  and  O4_22
REMARK    4  A    between atoms: C17_21  and  C18_24
REMARK    5  A    between atoms: C18_24  and  C19_25
REMARK    6  A    between atoms: C19_25  and  O5_26
ROOT
HETATM    1  C1  UNL     1      -5.672   5.687  13.506  1.00  0.00     0.011 C
HETATM    2  C2  UNL     1      -4.267   5.629  12.873  1.00  0.00     0.000 C
HETATM    3  C3  UNL     1      -3.415   6.680  13.490  1.00  0.00     0.083 C
HETATM    4  C4  UNL     1      -2.178   6.277  14.129  1.00  0.00     0.127 C
HETATM    5  O1  UNL     1      -1.530   7.121  14.715  1.00  0.00    -0.298 OA
HETATM    6  C5  UNL     1      -1.673   4.894  14.101  1.00  0.00     0.083 C
HETATM    7  C6  UNL     1      -2.828   3.923  13.912  1.00  0.00     0.000 C
HETATM    8  C7  UNL     1      -3.547   4.002  15.258  1.00  0.00     0.011 C
HETATM    9  C8  UNL     1      -3.722   4.243  12.772  1.00  0.00    -0.002 C
HETATM   10  C9  UNL     1      -4.890   3.314  12.739  1.00  0.00     0.014 C
HETATM   11  C10 UNL     1      -4.615   1.900  12.452  1.00  0.00     0.009 C
HETATM   12  C11 UNL     1      -3.306   1.512  11.904  1.00  0.00     0.031 C
HETATM   13  C12 UNL     1      -2.392   2.644  11.495  1.00  0.00     0.052 C
HETATM   14  C13 UNL     1      -1.642   2.035  10.397  1.00  0.00     0.177 C
HETATM   15  O2  UNL     1      -2.331   0.926   9.890  1.00  0.00    -0.377 OA
HETATM   16  C14 UNL     1      -3.272   0.529  10.793  1.00  0.00     0.082 C
HETATM   17  C15 UNL     1      -4.577   0.288  10.080  1.00  0.00     0.049 C
HETATM   18  C17 UNL     1      -3.014   3.980  11.405  1.00  0.00     0.074 C
ENDROOT
BRANCH  18  19
HETATM   19  O4  UNL     1      -2.010   4.947  11.352  1.00  0.00    -0.388 OA
ATOM     20  H4  UNL     1      -1.257   4.520  11.743  1.00  0.00     0.210 HD
ENDBRANCH  18  19
BRANCH  18  21
HETATM   21  C18 UNL     1      -3.898   4.232  10.273  1.00  0.00     0.065 C
BRANCH  21  22
HETATM   22  C19 UNL     1      -3.492   5.187   9.192  1.00  0.00     0.167 C
BRANCH  22  23
HETATM   23  O5  UNL     1      -3.858   4.797   7.912  1.00  0.00    -0.401 OA
ATOM     24  H5  UNL     1      -3.211   4.985   7.243  1.00  0.00     0.209 HD
ENDBRANCH  22  23
ENDBRANCH  21  22
ENDBRANCH  18  21
BRANCH  16  25
HETATM   25  C16 UNL     1      -2.824  -0.869  11.246  1.00  0.00     0.202 C
BRANCH  25  26
HETATM   26  O3  UNL     1      -3.874  -1.564  11.826  1.00  0.00    -0.398 OA
ATOM     27  H3  UNL     1      -3.863  -2.478  11.566  1.00  0.00     0.209 HD
ENDBRANCH  25  26
ENDBRANCH  16  25
TORSDOF 6
ENDMDL