MODEL 5
REMARK VINA RESULT: -7.108511975      1.727      4.837
REMARK  6 active torsions:
REMARK  status: ('A' for Active; 'I' for Inactive)
REMARK    1  A    between atoms: C2_2  and  C3_3
REMARK    2  A    between atoms: C3_3  and  C6_6
REMARK    3  A    between atoms: C6_6  and  N1_7
REMARK    4  A    between atoms: N1_7  and  C7_8
REMARK    5  A    between atoms: C11_16  and  N4_17
REMARK    6  A    between atoms: C12_22  and  N6_23
ROOT
HETATM    1  C7  UNL     1      -1.370   3.842  12.145  1.00  0.00     0.209 A
HETATM    2  N2  UNL     1      -0.364   4.675  11.696  1.00  0.00    -0.319 N
ATOM      3  H2  UNL     1       0.284   4.303  11.002  1.00  0.00     0.169 HD
HETATM    4  C8  UNL     1      -0.181   5.923  12.102  1.00  0.00     0.080 A
HETATM    5  C9  UNL     1       0.935   6.781  11.573  1.00  0.00     0.089 C
HETATM    6  N3  UNL     1      -1.019   6.438  13.013  1.00  0.00    -0.341 N
ATOM      7  H3  UNL     1      -0.893   7.397  13.335  1.00  0.00     0.167 HD
HETATM    8  C10 UNL     1      -2.023   5.693  13.500  1.00  0.00     0.110 A
HETATM    9  C11 UNL     1      -2.901   6.220  14.450  1.00  0.00     0.144 A
HETATM   10  N5  UNL     1      -3.886   5.434  14.902  1.00  0.00    -0.175 N
ATOM     11  H5  UNL     1      -4.528   5.820  15.596  1.00  0.00     0.186 HD
HETATM   12  C12 UNL     1      -4.081   4.154  14.492  1.00  0.00     0.682 A
HETATM   13  N7  UNL     1      -3.257   3.636  13.591  1.00  0.00    -0.184 N
ATOM     14  H7  UNL     1      -3.381   2.678  13.266  1.00  0.00     0.184 HD
HETATM   15  C18 UNL     1      -2.246   4.402  13.107  1.00  0.00     0.138 A
ENDROOT
BRANCH   1  16
HETATM   16  N1  UNL     1      -1.540   2.727  11.787  1.00  0.00    -0.400 NA
BRANCH  16  17
HETATM   17  C6  UNL     1      -1.730   1.472  11.384  1.00  0.00     0.170 C
BRANCH  17  18
HETATM   18  C3  UNL     1      -3.185   1.084  11.090  1.00  0.00     0.014 C
HETATM   19  C4  UNL     1      -3.938   2.252  10.501  1.00  0.00     0.026 C
HETATM   20  C5  UNL     1      -3.139   0.001  10.033  1.00  0.00     0.026 C
BRANCH  18  21
HETATM   21  C2  UNL     1      -3.784   0.604  12.354  1.00  0.00    -0.022 C
HETATM   22  C1  UNL     1      -4.222  -0.648  12.405  1.00  0.00     0.008 C
ENDBRANCH  18  21
ENDBRANCH  17  18
ENDBRANCH  16  17
ENDBRANCH   1  16
BRANCH   9  23
HETATM   23  N4  UNL     1      -2.707   7.422  14.826  1.00  0.00    -0.383 N
ATOM     24  H42 UNL     1      -1.994   8.041  14.438  1.00  0.00     0.157 HD
ATOM     25  H41 UNL     1      -3.308   7.787  15.566  1.00  0.00     0.157 HD
ENDBRANCH   9  23
BRANCH  12  26
HETATM   26  N6  UNL     1      -5.148   3.374  15.014  1.00  0.00    -0.218 N
HETATM   27  C13 UNL     1      -4.890   1.983  15.343  1.00  0.00     0.141 C
HETATM   28  C14 UNL     1      -5.190   1.861  16.843  1.00  0.00     0.020 C
HETATM   29  C15 UNL     1      -6.636   2.203  17.040  1.00  0.00     0.003 C
HETATM   30  C16 UNL     1      -6.883   3.658  16.709  1.00  0.00     0.020 C
HETATM   31  C17 UNL     1      -6.487   3.842  15.253  1.00  0.00     0.141 C
ENDBRANCH  12  26
TORSDOF 6
ENDMDL