MODEL 1
REMARK VINA RESULT: -7.539780088      0.000      0.000
REMARK  6 active torsions:
REMARK  status: ('A' for Active; 'I' for Inactive)
REMARK    1  A    between atoms: C2_2  and  C3_3
REMARK    2  A    between atoms: C3_3  and  C5_5
REMARK    3  A    between atoms: C3_3  and  N4_16
REMARK    4  A    between atoms: C5_5  and  N1_6
REMARK       I    between atoms: N4_16  and  C12_18
REMARK    5  A    between atoms: C12_18  and  C13_20
REMARK    6  A    between atoms: C16_23  and  N5_24
ROOT
HETATM    1  C3  UNL     1      -2.613   5.717  13.070  1.00  0.00     0.061 C
HETATM    2  C4  UNL     1      -1.112   5.604  13.429  1.00  0.00     0.044 C
ENDROOT
BRANCH   1   3
HETATM    3  C2  UNL     1      -3.010   7.103  13.396  1.00  0.00     0.032 C
HETATM    4  C1  UNL     1      -2.612   7.547  14.795  1.00  0.00     0.008 C
ENDBRANCH   1   3
BRANCH   1   5
HETATM    5  C5  UNL     1      -2.651   5.335  11.613  1.00  0.00     0.096 C
BRANCH   5   6
HETATM    6  N1  UNL     1      -1.914   4.217  11.187  1.00  0.00    -0.347 N
HETATM    7  C6  UNL     1      -0.653   4.147  10.521  1.00  0.00     0.130 C
HETATM    8  C7  UNL     1      -0.339   2.682  10.231  1.00  0.00     0.034 C
HETATM    9  C8  UNL     1      -1.699   2.027  10.301  1.00  0.00     0.076 C
HETATM   10  C9  UNL     1      -1.683   0.654  10.915  1.00  0.00     0.154 C
HETATM   11  C11 UNL     1      -2.349   2.850  11.375  1.00  0.00     0.103 C
HETATM   12  N2  UNL     1      -2.979   0.737  11.623  1.00  0.00    -0.330 N
HETATM   13  C10 UNL     1      -3.870  -0.380  11.749  1.00  0.00     0.170 C
HETATM   14  N3  UNL     1      -3.071   2.054  12.075  1.00  0.00    -0.291 N
ATOM     15  H3  UNL     1      -3.644   2.348  12.867  1.00  0.00     0.188 HD
ENDBRANCH   5   6
ENDBRANCH   1   5
BRANCH   1  16
HETATM   16  N4  UNL     1      -3.300   4.776  13.893  1.00  0.00    -0.347 N
HETATM   17  C12 UNL     1      -4.686   4.569  13.824  1.00  0.00     0.222 C
HETATM   18  O1  UNL     1      -5.391   5.223  13.026  1.00  0.00    -0.273 OA
ATOM     19  H4  UNL     1      -2.758   4.229  14.563  1.00  0.00     0.163 HD
BRANCH  17  20
HETATM   20  C13 UNL     1      -5.378   3.566  14.695  1.00  0.00     0.078 C
HETATM   21  C14 UNL     1      -6.259   4.260  15.699  1.00  0.00     0.016 C
HETATM   22  C15 UNL     1      -7.048   3.234  16.466  1.00  0.00     0.033 C
HETATM   23  C16 UNL     1      -6.190   2.147  17.035  1.00  0.00     0.183 C
HETATM   24  C17 UNL     1      -5.225   1.553  16.045  1.00  0.00     0.033 C
HETATM   25  C18 UNL     1      -4.406   2.690  15.446  1.00  0.00     0.016 C
BRANCH  23  26
HETATM   26  N5  UNL     1      -7.090   1.116  17.546  1.00  0.00    -0.075 N
ATOM     27  H53 UNL     1      -7.852   1.493  18.109  1.00  0.00     0.274 HD
ATOM     28  H52 UNL     1      -7.664   0.690  16.819  1.00  0.00     0.274 HD
ATOM     29  H51 UNL     1      -6.515   0.440  18.050  1.00  0.00     0.274 HD
ENDBRANCH  23  26
ENDBRANCH  17  20
ENDBRANCH   1  16
TORSDOF 6
ENDMDL