MODEL 2
REMARK VINA RESULT: -6.918383345      1.436      1.901
REMARK  8 active torsions:
REMARK  status: ('A' for Active; 'I' for Inactive)
REMARK    1  A    between atoms: C3_4  and  N1_5
REMARK    2  A    between atoms: N1_5  and  C4_7
REMARK    3  A    between atoms: C4_7  and  C5_8
REMARK    4  A    between atoms: C5_8  and  O1_9
REMARK    5  A    between atoms: C5_8  and  C6_11
REMARK    6  A    between atoms: C10_17  and  C11_18
REMARK    7  A    between atoms: C11_18  and  N3_19
REMARK    8  A    between atoms: C15_23  and  O2_24
ROOT
HETATM    1  C1  UNL     1      -4.043   5.030  10.978  1.00  0.00     0.058 C
HETATM    2  C2  UNL     1      -3.906   3.767  11.800  1.00  0.00     0.006 A
HETATM    3  S1  UNL     1      -4.559   3.480  13.351  1.00  0.00    -0.057 SA
HETATM    4  C3  UNL     1      -3.957   1.825  13.562  1.00  0.00     0.145 A
HETATM    5  N2  UNL     1      -3.316   1.639  12.425  1.00  0.00    -0.338 N
ATOM      6  H2  UNL     1      -2.856   0.747  12.246  1.00  0.00     0.168 HD
HETATM    7  C10 UNL     1      -3.264   2.589  11.521  1.00  0.00     0.052 A
ENDROOT
BRANCH   4   8
HETATM    8  N1  UNL     1      -4.129   1.234  14.635  1.00  0.00    -0.368 N
ATOM      9  H1  UNL     1      -4.321   0.268  14.372  1.00  0.00     0.161 HD
BRANCH   8  10
HETATM   10  C4  UNL     1      -4.188   1.241  16.013  1.00  0.00     0.154 C
BRANCH  10  11
HETATM   11  C5  UNL     1      -5.657   0.914  16.376  1.00  0.00     0.143 C
BRANCH  11  12
HETATM   12  O1  UNL     1      -5.644  -0.358  17.024  1.00  0.00    -0.393 OA
ATOM     13  H1  UNL     1      -5.179  -0.952  16.447  1.00  0.00     0.210 HD
ENDBRANCH  11  12
BRANCH  11  14
HETATM   14  C6  UNL     1      -6.481   1.870  17.091  1.00  0.00    -0.024 C
HETATM   15  C7  UNL     1      -6.692   3.200  16.380  1.00  0.00     0.017 C
HETATM   16  C8  UNL     1      -6.253   2.088  18.545  1.00  0.00     0.017 C
HETATM   17  C9  UNL     1      -7.950   1.257  17.069  1.00  0.00     0.017 C
ENDBRANCH  11  14
ENDBRANCH  10  11
ENDBRANCH   8  10
ENDBRANCH   4   8
BRANCH   7  18
HETATM   18  C11 UNL     1      -2.301   2.554  10.368  1.00  0.00     0.330 C
BRANCH  18  19
HETATM   19  N3  UNL     1      -1.204   3.460  10.385  1.00  0.00     0.096 N
HETATM   20  C12 UNL     1      -0.627   3.346   8.985  1.00  0.00     0.273 C
HETATM   21  C13 UNL     1       0.125   4.582   8.640  1.00  0.00     0.033 C
HETATM   22  C14 UNL     1       0.572   5.229   9.929  1.00  0.00     0.035 C
HETATM   23  C15 UNL     1       1.019   4.164  10.914  1.00  0.00     0.146 C
HETATM   24  C16 UNL     1      -0.125   3.214  11.296  1.00  0.00     0.304 C
BRANCH  23  25
HETATM   25  O2  UNL     1       1.587   4.793  11.992  1.00  0.00    -0.394 OA
ATOM     26  H2  UNL     1       1.587   4.185  12.723  1.00  0.00     0.210 HD
ENDBRANCH  23  25
ENDBRANCH  18  19
ENDBRANCH   7  18
TORSDOF 8
ENDMDL