MODEL 1
REMARK VINA RESULT: -6.443158029      0.000      0.000
REMARK  8 active torsions:
REMARK  status: ('A' for Active; 'I' for Inactive)
REMARK    1  A    between atoms: C3_5  and  N2_6
REMARK    2  A    between atoms: C6_13  and  C7_14
REMARK    3  A    between atoms: C7_14  and  C8_15
REMARK    4  A    between atoms: C8_15  and  C9_16
REMARK    5  A    between atoms: C10_17  and  O1_18
REMARK    6  A    between atoms: N4_20  and  C11_21
REMARK    7  A    between atoms: C14_24  and  C15_25
REMARK    8  A    between atoms: N5_28  and  O2_29
ROOT
HETATM    1  C9  UNL     1      -0.825   2.597  10.482  1.00  0.00     0.093 A
HETATM    2  C10 UNL     1      -0.219   3.519  11.285  1.00  0.00     0.170 A
HETATM    3  N4  UNL     1       0.540   4.347  10.552  1.00  0.00    -0.309 N
HETATM    4  C14 UNL     1       0.409   3.940   9.281  1.00  0.00     0.118 A
HETATM    5  N5  UNL     1      -0.418   2.881   9.231  1.00  0.00    -0.212 N
ENDROOT
BRANCH   1   6
HETATM    6  C8  UNL     1      -1.742   1.470  10.879  1.00  0.00     0.069 C
BRANCH   6   7
HETATM    7  C7  UNL     1      -3.159   1.939  10.966  1.00  0.00     0.049 C
BRANCH   7   8
HETATM    8  C6  UNL     1      -3.707   1.665  12.307  1.00  0.00    -0.012 A
HETATM    9  C2  UNL     1      -4.009   0.374  12.663  1.00  0.00     0.031 A
HETATM   10  C1  UNL     1      -3.863  -0.796  11.754  1.00  0.00     0.069 C
HETATM   11  N1  UNL     1      -4.484   0.184  13.917  1.00  0.00    -0.196 N
HETATM   12  C3  UNL     1      -4.662   1.183  14.786  1.00  0.00     0.676 A
ATOM     13  H1  UNL     1      -4.716  -0.764  14.211  1.00  0.00     0.184 HD
HETATM   14  N3  UNL     1      -4.355   2.452  14.406  1.00  0.00    -0.196 N
HETATM   15  C4  UNL     1      -3.881   2.729  13.188  1.00  0.00     0.031 A
ATOM     16  H3  UNL     1      -4.490   3.214  15.069  1.00  0.00     0.184 HD
HETATM   17  C5  UNL     1      -3.536   4.096  12.728  1.00  0.00     0.069 C
BRANCH  12  18
HETATM   18  N2  UNL     1      -5.119   0.940  15.969  1.00  0.00    -0.234 N
ATOM     19  H22 UNL     1      -4.515   0.545  16.690  1.00  0.00     0.174 HD
ATOM     20  H21 UNL     1      -6.094   1.141  16.193  1.00  0.00     0.174 HD
ENDBRANCH  12  18
ENDBRANCH   7   8
ENDBRANCH   6   7
ENDBRANCH   1   6
BRANCH   2  21
HETATM   21  O1  UNL     1      -0.395   3.558  12.684  1.00  0.00    -0.344 OA
ATOM     22  H1  UNL     1      -0.468   2.777  13.220  1.00  0.00     0.219 HD
ENDBRANCH   2  21
BRANCH   5  23
HETATM   23  O2  UNL     1      -0.817   2.166   8.127  1.00  0.00    -0.281 OA
ATOM     24  H2  UNL     1      -1.593   2.379   7.622  1.00  0.00     0.245 HD
ENDBRANCH   5  23
BRANCH   3  25
HETATM   25  C11 UNL     1       1.312   5.433  11.057  1.00  0.00     0.085 C
HETATM   26  C12 UNL     1       0.505   6.395  11.932  1.00  0.00     0.032 C
HETATM   27  C13 UNL     1       2.581   4.991  11.754  1.00  0.00     0.032 C
ENDBRANCH   3  25
BRANCH   4  28
HETATM   28  C15 UNL     1       1.042   4.489   8.054  1.00  0.00     0.048 C
HETATM   29  C16 UNL     1       0.704   5.992   8.028  1.00  0.00     0.017 C
HETATM   30  C17 UNL     1       2.555   4.434   8.097  1.00  0.00     0.017 C
ENDBRANCH   4  28
TORSDOF 8
ENDMDL