MODEL 1
REMARK VINA RESULT: -8.789068076      0.000      0.000
REMARK  12 active torsions:
REMARK  status: ('A' for Active; 'I' for Inactive)
REMARK    1  A    between atoms: C2_2  and  C3_3
REMARK    2  A    between atoms: C3_3  and  C5_5
REMARK    3  A    between atoms: C5_5  and  N1_6
REMARK    4  A    between atoms: C5_5  and  C6_10
REMARK       I    between atoms: C6_10  and  N2_12
REMARK    5  A    between atoms: N2_12  and  C7_14
REMARK    6  A    between atoms: C7_14  and  C8_15
REMARK    7  A    between atoms: C8_15  and  N3_16
REMARK    8  A    between atoms: N3_16  and  C9_17
REMARK    9  A    between atoms: C12_25  and  C13_26
REMARK   10  A    between atoms: C13_26  and  N6_27
REMARK   11  A    between atoms: C14_30  and  N8_31
REMARK   12  A    between atoms: C15_36  and  C16_37
ROOT
HETATM    1  C9  UNL     1       3.752  -6.071   7.009  1.00  0.00     0.272 A
HETATM    2  N4  UNL     1       3.429  -7.315   6.524  1.00  0.00    -0.279 N
ATOM      3  H4  UNL     1       3.547  -8.123   7.136  1.00  0.00     0.173 HD
HETATM    4  C10 UNL     1       2.968  -7.515   5.289  1.00  0.00     0.295 A
HETATM    5  O2  UNL     1       2.676  -8.660   4.860  1.00  0.00    -0.264 OA
HETATM    6  C11 UNL     1       2.797  -6.450   4.439  1.00  0.00     0.202 A
HETATM    7  N5  UNL     1       2.336  -6.668   3.207  1.00  0.00    -0.324 N
ATOM      8  H5  UNL     1       2.116  -7.619   2.909  1.00  0.00     0.169 HD
HETATM    9  C12 UNL     1       2.159  -5.649   2.360  1.00  0.00     0.107 A
HETATM   10  N10 UNL     1       2.463  -4.430   2.798  1.00  0.00    -0.295 N
ATOM     11  H10 UNL     1       2.338  -3.635   2.171  1.00  0.00     0.172 HD
HETATM   12  C19 UNL     1       2.926  -4.213   4.033  1.00  0.00     0.348 A
HETATM   13  O3  UNL     1       3.220  -3.056   4.466  1.00  0.00    -0.245 OA
HETATM   14  N11 UNL     1       3.108  -5.230   4.899  1.00  0.00    -0.179 N
HETATM   15  N12 UNL     1       3.561  -5.045   6.118  1.00  0.00    -0.247 N
ATOM     16  H12 UNL     1       3.783  -4.095   6.416  1.00  0.00     0.192 HD
ENDROOT
BRANCH   1  17
HETATM   17  N3  UNL     1       4.157  -5.910   8.118  1.00  0.00    -0.413 NA
BRANCH  17  18
HETATM   18  C8  UNL     1       4.705  -5.865   9.341  1.00  0.00     0.241 C
BRANCH  18  19
HETATM   19  C7  UNL     1       5.446  -7.163   9.748  1.00  0.00     0.156 C
BRANCH  19  20
HETATM   20  N2  UNL     1       6.798  -7.029   9.259  1.00  0.00    -0.357 N
HETATM   21  C6  UNL     1       7.781  -8.018   9.183  1.00  0.00     0.248 C
HETATM   22  O1  UNL     1       7.547  -9.169   9.592  1.00  0.00    -0.271 OA
ATOM     23  H2  UNL     1       7.067  -6.102   8.929  1.00  0.00     0.162 HD
BRANCH  21  24
HETATM   24  C5  UNL     1       9.113  -7.727   8.624  1.00  0.00     0.278 C
BRANCH  24  25
HETATM   25  C3  UNL     1      10.089  -8.838   8.888  1.00  0.00     0.021 C
HETATM   26  C4  UNL     1      10.557  -9.587   7.692  1.00  0.00     0.012 C
BRANCH  25  27
HETATM   27  C2  UNL     1      11.232  -8.492   9.772  1.00  0.00     0.002 C
HETATM   28  C1  UNL     1      10.792  -8.801  11.218  1.00  0.00     0.005 C
ENDBRANCH  25  27
ENDBRANCH  24  25
BRANCH  24  29
HETATM   29  N1  UNL     1       9.014  -7.470   7.215  1.00  0.00    -0.066 N
ATOM     30  H13 UNL     1       9.677  -8.030   6.679  1.00  0.00     0.275 HD
ATOM     31  H12 UNL     1       8.150  -7.841   6.821  1.00  0.00     0.275 HD
ATOM     32  H11 UNL     1       9.119  -6.473   7.026  1.00  0.00     0.275 HD
ENDBRANCH  24  29
ENDBRANCH  21  24
ENDBRANCH  19  20
ENDBRANCH  18  19
ENDBRANCH  17  18
ENDBRANCH   1  17
BRANCH   9  33
HETATM   33  C13 UNL     1       1.646  -5.942   0.973  1.00  0.00     0.227 C
BRANCH  33  34
HETATM   34  N6  UNL     1       2.287  -7.137   0.434  1.00  0.00    -0.258 N
HETATM   35  N7  UNL     1       3.514  -7.171  -0.062  1.00  0.00    -0.128 N
HETATM   36  C14 UNL     1       3.778  -8.424  -0.448  1.00  0.00     0.692 A
ATOM     37  H7  UNL     1       4.150  -6.377  -0.136  1.00  0.00     0.206 HD
HETATM   38  N9  UNL     1       2.694  -9.159  -0.182  1.00  0.00    -0.178 N
HETATM   39  C15 UNL     1       1.746  -8.365   0.374  1.00  0.00     0.118 A
ATOM     40  H9  UNL     1       2.596 -10.158  -0.368  1.00  0.00     0.185 HD
BRANCH  36  41
HETATM   41  N8  UNL     1       4.898  -8.824  -0.982  1.00  0.00    -0.233 N
ATOM     42  H82 UNL     1       5.669  -8.245  -1.317  1.00  0.00     0.174 HD
ATOM     43  H81 UNL     1       5.159  -9.798  -1.141  1.00  0.00     0.174 HD
ENDBRANCH  36  41
BRANCH  39  44
HETATM   44  C16 UNL     1       0.366  -8.812   0.804  1.00  0.00     0.047 C
HETATM   45  C17 UNL     1       0.398 -10.149   1.474  1.00  0.00     0.017 C
HETATM   46  C18 UNL     1      -0.526  -8.841  -0.448  1.00  0.00     0.017 C
ENDBRANCH  39  44
ENDBRANCH  33  34
ENDBRANCH   9  33
TORSDOF 12
ENDMDL