MODEL 3
REMARK VINA RESULT: -8.307866186      1.238      1.353
REMARK  13 active torsions:
REMARK  status: ('A' for Active; 'I' for Inactive)
REMARK    1  A    between atoms: C2_2  and  O1_3
REMARK    2  A    between atoms: C2_2  and  C3_5
REMARK    3  A    between atoms: C3_5  and  N1_6
REMARK    4  A    between atoms: C3_5  and  C17_37
REMARK       I    between atoms: N1_6  and  C4_8
REMARK    5  A    between atoms: C4_8  and  C5_10
REMARK    6  A    between atoms: C5_10  and  N2_11
REMARK    7  A    between atoms: N2_11  and  O3_13
REMARK    8  A    between atoms: O3_13  and  C6_14
REMARK    9  A    between atoms: C6_14  and  N3_16
REMARK   10  A    between atoms: C9_20  and  C10_21
REMARK   11  A    between atoms: C11_26  and  O5_27
REMARK   12  A    between atoms: C11_26  and  N7_29
REMARK   13  A    between atoms: C15_33  and  C16_34
ROOT
HETATM    1  C5  UNL     1       1.951  -4.131   4.924  1.00  0.00     0.172 C
HETATM    2  C11 UNL     1       2.093  -2.983   4.102  1.00  0.00     0.174 C
ENDROOT
BRANCH   1   3
HETATM    3  C4  UNL     1       1.316  -5.408   4.642  1.00  0.00     0.275 C
HETATM    4  N1  UNL     1       2.037  -6.400   3.845  1.00  0.00    -0.339 N
ATOM      5  H1  UNL     1       2.972  -6.183   3.499  1.00  0.00     0.163 HD
HETATM    6  O2  UNL     1       0.199  -5.801   4.996  1.00  0.00    -0.266 OA
BRANCH   4   7
HETATM    7  C3  UNL     1       1.451  -7.674   3.543  1.00  0.00     0.214 C
BRANCH   7   8
HETATM    8  C2  UNL     1       1.626  -7.958   2.061  1.00  0.00     0.147 C
HETATM    9  C1  UNL     1       0.420  -8.548   1.410  1.00  0.00     0.042 C
BRANCH   8  10
HETATM   10  O1  UNL     1       2.752  -8.771   1.932  1.00  0.00    -0.393 OA
ATOM     11  H1  UNL     1       3.549  -8.334   2.209  1.00  0.00     0.210 HD
ENDBRANCH   8  10
ENDBRANCH   7   8
BRANCH   7  12
HETATM   12  C17 UNL     1       2.094  -8.697   4.376  1.00  0.00     0.199 C
HETATM   13  O8  UNL     1       3.129  -8.458   5.046  1.00  0.00    -0.646 OA
HETATM   14  O9  UNL     1       1.565  -9.979   4.448  1.00  0.00    -0.646 OA
ENDBRANCH   7  12
ENDBRANCH   4   7
ENDBRANCH   1   3
BRANCH   1  15
HETATM   15  N2  UNL     1       2.394  -4.089   6.173  1.00  0.00    -0.255 N
ATOM     16  H2  UNL     1       1.764  -3.659   6.850  1.00  0.00     0.195 HD
BRANCH  15  17
HETATM   17  O3  UNL     1       3.547  -4.529   6.662  1.00  0.00    -0.252 OA
BRANCH  17  18
HETATM   18  C6  UNL     1       3.676  -5.435   7.746  1.00  0.00     0.270 C
HETATM   19  C7  UNL     1       2.511  -6.356   7.908  1.00  0.00     0.067 C
BRANCH  18  20
HETATM   20  N3  UNL     1       4.950  -6.114   7.762  1.00  0.00    -0.255 N
HETATM   21  C8  UNL     1       5.719  -6.311   6.683  1.00  0.00     0.205 A
HETATM   22  N4  UNL     1       6.820  -6.984   7.080  1.00  0.00    -0.332 N
HETATM   23  C9  UNL     1       6.720  -7.202   8.422  1.00  0.00     0.187 A
ATOM     24  H4  UNL     1       7.592  -7.279   6.481  1.00  0.00     0.168 HD
HETATM   25  N6  UNL     1       5.550  -6.645   8.790  1.00  0.00    -0.276 N
ATOM     26  H6  UNL     1       5.183  -6.641   9.743  1.00  0.00     0.189 HD
BRANCH  23  27
HETATM   27  C10 UNL     1       7.705  -7.904   9.241  1.00  0.00     0.300 C
HETATM   28  N5  UNL     1       7.985  -7.450  10.549  1.00  0.00    -0.054 NA
HETATM   29  O4  UNL     1       8.274  -8.906   8.735  1.00  0.00    -0.268 OA
ENDBRANCH  23  27
ENDBRANCH  18  20
ENDBRANCH  17  18
ENDBRANCH  15  17
ENDBRANCH   1  15
BRANCH   2  30
HETATM   30  O5  UNL     1       2.611  -1.955   4.779  1.00  0.00    -0.344 OA
ATOM     31  H5  UNL     1       2.974  -1.300   4.196  1.00  0.00     0.219 HD
ENDBRANCH   2  30
BRANCH   2  32
HETATM   32  N7  UNL     1       1.804  -2.724   2.749  1.00  0.00    -0.345 N
HETATM   33  C12 UNL     1       1.711  -3.579   1.614  1.00  0.00     0.126 C
HETATM   34  C13 UNL     1       1.893  -2.671   0.378  1.00  0.00     0.022 C
HETATM   35  C14 UNL     1       1.232  -1.410   0.830  1.00  0.00     0.038 C
HETATM   36  C15 UNL     1       1.484  -1.348   2.296  1.00  0.00     0.187 C
BRANCH  36  37
HETATM   37  C16 UNL     1       0.331  -0.787   3.019  1.00  0.00     0.196 C
HETATM   38  O6  UNL     1       0.515   0.205   3.761  1.00  0.00    -0.646 OA
HETATM   39  O7  UNL     1      -0.939  -1.306   2.913  1.00  0.00    -0.646 OA
ENDBRANCH  36  37
ENDBRANCH   2  32
TORSDOF 13
ENDMDL