MODEL 5
REMARK VINA RESULT: -6.922008777      2.726      5.188
REMARK  14 active torsions:
REMARK  status: ('A' for Active; 'I' for Inactive)
REMARK    1  A    between atoms: N1_1  and  C1_5
REMARK    2  A    between atoms: C1_5  and  C2_6
REMARK    3  A    between atoms: C2_6  and  C3_7
REMARK    4  A    between atoms: C3_7  and  C4_8
REMARK    5  A    between atoms: C4_8  and  C5_9
REMARK    6  A    between atoms: C5_9  and  N2_10
REMARK    7  A    between atoms: C5_9  and  C6_14
REMARK       I    between atoms: C6_14  and  N3_16
REMARK    8  A    between atoms: C8_18  and  N4_19
REMARK    9  A    between atoms: N5_22  and  C10_23
REMARK   10  A    between atoms: C10_23  and  C11_24
REMARK   11  A    between atoms: C11_24  and  C12_25
REMARK   12  A    between atoms: C12_25  and  N6_26
REMARK   13  A    between atoms: C12_25  and  O3_30
REMARK   14  A    between atoms: C18_42  and  C19_43
ROOT
HETATM    1  C6  UNL     1       3.912  -5.388   6.005  1.00  0.00     0.251 C
HETATM    2  O1  UNL     1       5.072  -4.995   5.594  1.00  0.00    -0.271 OA
HETATM    3  N3  UNL     1       2.898  -5.353   5.034  1.00  0.00    -0.335 N
HETATM    4  C7  UNL     1       3.045  -4.959   3.625  1.00  0.00     0.152 C
HETATM    5  C8  UNL     1       1.723  -4.473   3.128  1.00  0.00     0.116 C
HETATM    6  C17 UNL     1       0.797  -4.716   4.295  1.00  0.00     0.062 C
HETATM    7  C18 UNL     1       1.522  -5.687   5.205  1.00  0.00     0.178 C
ENDROOT
BRANCH   5   8
HETATM    8  N4  UNL     1       1.721  -3.098   2.666  1.00  0.00    -0.276 N
HETATM    9  C9  UNL     1       1.738  -2.741   1.360  1.00  0.00     0.333 A
HETATM   10  O2  UNL     1       1.760  -3.731   0.545  1.00  0.00    -0.246 OA
HETATM   11  N5  UNL     1       1.739  -1.481   0.930  1.00  0.00    -0.264 N
HETATM   12  C13 UNL     1       1.722  -0.486   1.839  1.00  0.00     0.282 A
HETATM   13  O4  UNL     1       1.722   0.729   1.515  1.00  0.00    -0.265 OA
HETATM   14  C14 UNL     1       1.704  -0.800   3.173  1.00  0.00     0.147 A
HETATM   15  N7  UNL     1       1.684  -0.067   4.311  1.00  0.00    -0.345 N
HETATM   16  C16 UNL     1       1.703  -2.111   3.586  1.00  0.00     0.145 A
HETATM   17  C15 UNL     1       1.672  -0.898   5.364  1.00  0.00     0.182 A
ATOM     18  H7  UNL     1       1.679   0.952   4.359  1.00  0.00     0.167 HD
HETATM   19  N8  UNL     1       1.683  -2.177   4.952  1.00  0.00    -0.336 N
ATOM     20  H8  UNL     1       1.679  -3.016   5.532  1.00  0.00     0.168 HD
BRANCH  11  21
HETATM   21  C10 UNL     1       1.723  -1.125  -0.450  1.00  0.00     0.141 C
BRANCH  21  22
HETATM   22  C11 UNL     1       3.002  -1.029  -1.166  1.00  0.00     0.081 C
BRANCH  22  23
HETATM   23  C12 UNL     1       3.580  -2.181  -1.869  1.00  0.00     0.317 C
BRANCH  23  24
HETATM   24  N6  UNL     1       2.649  -3.148  -2.400  1.00  0.00    -0.053 N
ATOM     25  H63 UNL     1       1.799  -3.151  -1.837  1.00  0.00     0.277 HD
ATOM     26  H62 UNL     1       2.282  -2.815  -3.292  1.00  0.00     0.277 HD
ATOM     27  H61 UNL     1       2.993  -4.102  -2.507  1.00  0.00     0.277 HD
ENDBRANCH  23  24
BRANCH  23  28
HETATM   28  O3  UNL     1       4.421  -2.847  -0.942  1.00  0.00    -0.370 OA
ATOM     29  H3  UNL     1       4.870  -3.533  -1.422  1.00  0.00     0.212 HD
ENDBRANCH  23  28
ENDBRANCH  22  23
ENDBRANCH  21  22
ENDBRANCH  11  21
ENDBRANCH   5   8
BRANCH   7  30
HETATM   30  C19 UNL     1       1.213  -7.093   4.838  1.00  0.00     0.254 C
HETATM   31  N9  UNL     1       2.077  -8.131   5.188  1.00  0.00    -0.060 NA
HETATM   32  O5  UNL     1       0.134  -7.276   4.200  1.00  0.00    -0.275 OA
ENDBRANCH   7  30
BRANCH   1  33
HETATM   33  C5  UNL     1       3.847  -5.799   7.385  1.00  0.00     0.275 C
BRANCH  33  34
HETATM   34  C4  UNL     1       4.991  -6.770   7.640  1.00  0.00     0.042 C
BRANCH  34  35
HETATM   35  C3  UNL     1       5.439  -6.802   9.067  1.00  0.00     0.004 C
BRANCH  35  36
HETATM   36  C2  UNL     1       6.954  -7.038   9.031  1.00  0.00     0.027 C
BRANCH  36  37
HETATM   37  C1  UNL     1       7.461  -7.057   7.626  1.00  0.00     0.229 C
BRANCH  37  38
HETATM   38  N1  UNL     1       8.846  -7.434   7.561  1.00  0.00    -0.079 N
ATOM     39  H13 UNL     1       9.324  -6.957   6.796  1.00  0.00     0.274 HD
ATOM     40  H12 UNL     1       9.373  -7.047   8.345  1.00  0.00     0.274 HD
ATOM     41  H11 UNL     1       8.963  -8.445   7.500  1.00  0.00     0.274 HD
ENDBRANCH  37  38
ENDBRANCH  36  37
ENDBRANCH  35  36
ENDBRANCH  34  35
ENDBRANCH  33  34
BRANCH  33  42
HETATM   42  N2  UNL     1       2.613  -6.255   7.909  1.00  0.00    -0.067 N
ATOM     43  H23 UNL     1       2.745  -7.089   8.480  1.00  0.00     0.275 HD
ATOM     44  H22 UNL     1       2.263  -5.618   8.624  1.00  0.00     0.275 HD
ATOM     45  H21 UNL     1       1.911  -6.414   7.186  1.00  0.00     0.275 HD
ENDBRANCH  33  42
ENDBRANCH   1  33
TORSDOF 14
ENDMDL