MODEL 5
REMARK VINA RESULT: -8.335671584      2.067      2.859
REMARK  12 active torsions:
REMARK  status: ('A' for Active; 'I' for Inactive)
REMARK    1  A    between atoms: C1_2  and  C2_4
REMARK    2  A    between atoms: C3_7  and  N3_8
REMARK    3  A    between atoms: C6_18  and  C7_19
REMARK       I    between atoms: C7_19  and  N5_21
REMARK    4  A    between atoms: N5_21  and  C8_23
REMARK    5  A    between atoms: C8_23  and  C9_24
REMARK    6  A    between atoms: C9_24  and  O7_25
REMARK    7  A    between atoms: C9_24  and  C10_27
REMARK    8  A    between atoms: C10_27  and  N6_28
REMARK    9  A    between atoms: C10_27  and  C11_32
REMARK   10  A    between atoms: C11_32  and  S2_33
REMARK   11  A    between atoms: S2_33  and  C12_34
REMARK   12  A    between atoms: C12_34  and  C13_35
ROOT
HETATM    1  C7  UNL     1       3.858  -4.410   4.762  1.00  0.00     0.278 C
HETATM    2  O6  UNL     1       4.963  -4.248   4.216  1.00  0.00    -0.265 OA
HETATM    3  N5  UNL     1       3.846  -5.460   5.762  1.00  0.00    -0.353 N
ATOM      4  H5  UNL     1       2.980  -5.664   6.262  1.00  0.00     0.162 HD
ENDROOT
BRANCH   1   5
HETATM    5  C6  UNL     1       2.642  -3.669   4.492  1.00  0.00     0.178 A
HETATM    6  C2  UNL     1       1.351  -4.042   4.679  1.00  0.00     0.141 A
HETATM    7  N2  UNL     1       0.581  -2.980   4.266  1.00  0.00    -0.314 N
HETATM    8  C3  UNL     1       1.387  -2.014   3.849  1.00  0.00     0.243 A
ATOM      9  H2  UNL     1      -0.438  -2.942   4.278  1.00  0.00     0.170 HD
HETATM   10  O5  UNL     1       2.607  -2.432   3.987  1.00  0.00    -0.270 OA
BRANCH   6  11
HETATM   11  C1  UNL     1       0.790  -5.279   5.198  1.00  0.00     0.284 C
HETATM   12  N1  UNL     1       0.838  -5.475   6.623  1.00  0.00    -0.056 NA
HETATM   13  O1  UNL     1       0.278  -6.174   4.534  1.00  0.00    -0.269 OA
ENDBRANCH   6  11
BRANCH   8  14
HETATM   14  N3  UNL     1       0.957  -0.762   3.348  1.00  0.00    -0.214 N
HETATM   15  C4  UNL     1       0.059  -0.514   2.247  1.00  0.00     0.250 C
HETATM   16  C5  UNL     1      -0.702   0.728   2.552  1.00  0.00     0.251 C
HETATM   17  O2  UNL     1      -1.943   0.920   2.300  1.00  0.00    -0.271 OA
HETATM   18  N4  UNL     1       0.114   1.711   3.170  1.00  0.00    -0.235 N
HETATM   19  S1  UNL     1       1.397   0.800   3.927  1.00  0.00     0.331 S
ATOM     20  H4  UNL     1      -0.020   2.722   3.172  1.00  0.00     0.183 HD
HETATM   21  O3  UNL     1       1.357   0.914   5.402  1.00  0.00    -0.182 OA
HETATM   22  O4  UNL     1       2.700   1.260   3.340  1.00  0.00    -0.182 OA
ENDBRANCH   8  14
ENDBRANCH   1   5
BRANCH   3  23
HETATM   23  C8  UNL     1       5.042  -6.229   6.066  1.00  0.00     0.156 C
BRANCH  23  24
HETATM   24  C9  UNL     1       4.964  -6.664   7.489  1.00  0.00     0.167 C
BRANCH  24  25
HETATM   25  O7  UNL     1       4.526  -5.619   8.317  1.00  0.00    -0.392 OA
ATOM     26  H7  UNL     1       3.810  -5.899   8.876  1.00  0.00     0.210 HD
ENDBRANCH  24  25
BRANCH  24  27
HETATM   27  C10 UNL     1       6.243  -7.222   8.029  1.00  0.00     0.223 C
BRANCH  27  28
HETATM   28  N6  UNL     1       7.321  -6.768   7.150  1.00  0.00    -0.072 N
ATOM     29  H63 UNL     1       8.241  -6.813   7.589  1.00  0.00     0.274 HD
ATOM     30  H62 UNL     1       7.509  -7.414   6.383  1.00  0.00     0.274 HD
ATOM     31  H61 UNL     1       7.078  -5.830   6.832  1.00  0.00     0.274 HD
ENDBRANCH  27  28
BRANCH  27  32
HETATM   32  C11 UNL     1       6.563  -6.717   9.416  1.00  0.00     0.109 C
BRANCH  32  33
HETATM   33  S2  UNL     1       7.058  -8.020  10.541  1.00  0.00    -0.156 SA
BRANCH  33  34
HETATM   34  C12 UNL     1       8.840  -8.199  10.691  1.00  0.00     0.186 C
BRANCH  34  35
HETATM   35  C13 UNL     1       9.495  -8.426   9.376  1.00  0.00     0.182 C
HETATM   36  O8  UNL     1      10.549  -7.878   9.013  1.00  0.00    -0.647 OA
HETATM   37  O9  UNL     1       8.866  -9.321   8.506  1.00  0.00    -0.647 OA
ENDBRANCH  34  35
ENDBRANCH  33  34
ENDBRANCH  32  33
ENDBRANCH  27  32
ENDBRANCH  24  27
ENDBRANCH  23  24
ENDBRANCH   3  23
TORSDOF 12
ENDMDL