MODEL 2
REMARK VINA RESULT: -7.191675693      1.930      4.017
REMARK  15 active torsions:
REMARK  status: ('A' for Active; 'I' for Inactive)
REMARK    1  A    between atoms: O1_2  and  C2_3
REMARK    2  A    between atoms: C2_3  and  C3_5
REMARK    3  A    between atoms: N1_9  and  C7_10
REMARK    4  A    between atoms: C7_10  and  O3_11
REMARK    5  A    between atoms: C8_13  and  N2_14
REMARK    6  A    between atoms: C8_13  and  C16_34
REMARK       I    between atoms: N2_14  and  C9_16
REMARK    7  A    between atoms: C9_16  and  C10_18
REMARK    8  A    between atoms: C10_18  and  C11_19
REMARK    9  A    between atoms: C10_18  and  N4_23
REMARK   10  A    between atoms: C11_19  and  S1_20
REMARK       I    between atoms: N4_23  and  C13_25
REMARK   11  A    between atoms: C13_25  and  C14_27
REMARK   12  A    between atoms: C14_27  and  N5_28
REMARK   13  A    between atoms: C14_27  and  C15_32
REMARK   14  A    between atoms: C16_34  and  N6_35
REMARK   15  A    between atoms: C16_34  and  N7_39
ROOT
HETATM    1  S1  UNL     1       1.084  -7.557   4.282  1.00  0.00    -0.048 SA
HETATM    2  C12 UNL     1       1.351  -7.666   2.526  1.00  0.00     0.133 C
HETATM    3  N3  UNL     1       1.521  -7.757   1.381  1.00  0.00    -0.184 NA
ENDROOT
BRANCH   1   4
HETATM    4  C11 UNL     1       2.739  -7.563   5.090  1.00  0.00     0.125 C
BRANCH   4   5
HETATM    5  C10 UNL     1       3.242  -6.170   5.136  1.00  0.00     0.187 C
BRANCH   5   6
HETATM    6  C9  UNL     1       3.962  -5.890   6.382  1.00  0.00     0.245 C
HETATM    7  N2  UNL     1       4.965  -6.711   6.894  1.00  0.00    -0.322 N
ATOM      8  H2  UNL     1       5.221  -7.546   6.369  1.00  0.00     0.169 HD
HETATM    9  O4  UNL     1       3.605  -4.815   7.002  1.00  0.00    -0.271 OA
BRANCH   7  10
HETATM   10  C8  UNL     1       5.689  -6.430   8.179  1.00  0.00     0.121 C
HETATM   11  C7  UNL     1       7.001  -7.015   8.193  1.00  0.00     0.166 C
BRANCH  11  12
HETATM   12  N1  UNL     1       7.772  -7.705   9.106  1.00  0.00    -0.346 N
HETATM   13  C3  UNL     1       9.066  -7.532   9.654  1.00  0.00     0.186 C
HETATM   14  C4  UNL     1       8.775  -7.886  11.144  1.00  0.00     0.037 C
HETATM   15  C5  UNL     1       8.072  -9.197  10.945  1.00  0.00     0.022 C
HETATM   16  C6  UNL     1       7.237  -8.972   9.738  1.00  0.00     0.126 C
BRANCH  13  17
HETATM   17  C2  UNL     1      10.002  -8.621   9.187  1.00  0.00     0.281 C
HETATM   18  O2  UNL     1       9.810  -9.086   8.037  1.00  0.00    -0.263 OA
BRANCH  17  19
HETATM   19  O1  UNL     1      11.029  -9.108   9.949  1.00  0.00    -0.325 OA
HETATM   20  C1  UNL     1      12.283  -8.474  10.109  1.00  0.00     0.213 C
ENDBRANCH  17  19
ENDBRANCH  13  17
ENDBRANCH  11  12
BRANCH  11  21
HETATM   21  O3  UNL     1       7.637  -6.844   7.022  1.00  0.00    -0.345 OA
ATOM     22  H3  UNL     1       8.546  -6.594   7.141  1.00  0.00     0.219 HD
ENDBRANCH  11  21
BRANCH  10  23
HETATM   23  C16 UNL     1       4.762  -6.384   9.296  1.00  0.00     0.431 C
BRANCH  23  24
HETATM   24  N6  UNL     1       3.677  -7.336   9.258  1.00  0.00    -0.045 N
ATOM     25  H63 UNL     1       3.640  -7.781   8.341  1.00  0.00     0.277 HD
ATOM     26  H62 UNL     1       3.901  -8.140   9.844  1.00  0.00     0.277 HD
ATOM     27  H61 UNL     1       2.756  -6.973   9.505  1.00  0.00     0.277 HD
ENDBRANCH  23  24
BRANCH  23  28
HETATM   28  N7  UNL     1       4.273  -5.094   9.708  1.00  0.00    -0.045 N
ATOM     29  H73 UNL     1       5.012  -4.400   9.592  1.00  0.00     0.277 HD
ATOM     30  H72 UNL     1       3.589  -4.761   9.028  1.00  0.00     0.277 HD
ATOM     31  H71 UNL     1       3.880  -5.012  10.646  1.00  0.00     0.277 HD
ENDBRANCH  23  28
ENDBRANCH  10  23
ENDBRANCH   7  10
ENDBRANCH   5   6
BRANCH   5  32
HETATM   32  N4  UNL     1       2.311  -5.116   4.845  1.00  0.00    -0.345 N
HETATM   33  C13 UNL     1       2.678  -3.891   4.228  1.00  0.00     0.249 C
HETATM   34  O5  UNL     1       3.889  -3.676   3.894  1.00  0.00    -0.271 OA
ATOM     35  H4  UNL     1       1.332  -5.255   5.096  1.00  0.00     0.163 HD
BRANCH  33  36
HETATM   36  C14 UNL     1       1.734  -2.805   3.930  1.00  0.00     0.284 C
BRANCH  36  37
HETATM   37  N5  UNL     1       0.391  -3.342   4.021  1.00  0.00    -0.066 N
ATOM     38  H53 UNL     1       0.266  -3.959   4.824  1.00  0.00     0.275 HD
ATOM     39  H52 UNL     1      -0.299  -2.637   4.281  1.00  0.00     0.275 HD
ATOM     40  H51 UNL     1       0.173  -3.799   3.135  1.00  0.00     0.275 HD
ENDBRANCH  36  37
BRANCH  36  41
HETATM   41  C15 UNL     1       1.858  -1.783   5.070  1.00  0.00     0.128 C
HETATM   42  S2  UNL     1       1.538  -0.125   4.452  1.00  0.00    -0.095 SA
ENDBRANCH  36  41
ENDBRANCH  33  36
ENDBRANCH   5  32
ENDBRANCH   4   5
ENDBRANCH   1   4
TORSDOF 15
ENDMDL