MODEL 5
REMARK VINA RESULT: -8.503598116      2.019      6.280
REMARK  12 active torsions:
REMARK  status: ('A' for Active; 'I' for Inactive)
REMARK    1  A    between atoms: C2_8  and  S1_9
REMARK    2  A    between atoms: S1_9  and  C3_10
REMARK    3  A    between atoms: C3_10  and  C4_11
REMARK    4  A    between atoms: C4_11  and  C5_12
REMARK    5  A    between atoms: C5_12  and  C6_13
REMARK    6  A    between atoms: C5_12  and  C9_24
REMARK       I    between atoms: C6_13  and  N5_15
REMARK    7  A    between atoms: N5_15  and  C7_17
REMARK    8  A    between atoms: C7_17  and  N6_18
REMARK    9  A    between atoms: C7_17  and  C8_22
REMARK   10  A    between atoms: C9_24  and  C10_26
REMARK   11  A    between atoms: C10_26  and  O4_27
REMARK   12  A    between atoms: C10_26  and  C11_29
ROOT
HETATM    1  C5  UNL     1       2.769  -5.737   6.573  1.00  0.00     0.151 C
ENDROOT
BRANCH   1   2
HETATM    2  C4  UNL     1       3.838  -5.703   7.618  1.00  0.00     0.032 C
BRANCH   2   3
HETATM    3  C3  UNL     1       3.888  -6.877   8.543  1.00  0.00     0.084 C
BRANCH   3   4
HETATM    4  S1  UNL     1       5.372  -6.593   9.599  1.00  0.00    -0.091 SA
BRANCH   4   5
HETATM    5  C2  UNL     1       6.841  -7.112   8.729  1.00  0.00     0.175 A
HETATM    6  N1  UNL     1       7.688  -8.029   9.209  1.00  0.00    -0.257 N
HETATM    7  C1  UNL     1       7.615  -8.757  10.455  1.00  0.00     0.177 C
HETATM    8  N2  UNL     1       8.660  -8.174   8.315  1.00  0.00    -0.003 NA
HETATM    9  N3  UNL     1       8.412  -7.359   7.304  1.00  0.00    -0.224 N
HETATM   10  N4  UNL     1       7.306  -6.705   7.541  1.00  0.00    -0.266 N
ATOM     11  H3  UNL     1       8.991  -7.258   6.471  1.00  0.00     0.205 HD
ATOM     12  H4  UNL     1       6.874  -6.010   6.931  1.00  0.00     0.190 HD
ENDBRANCH   4   5
ENDBRANCH   3   4
ENDBRANCH   2   3
ENDBRANCH   1   2
BRANCH   1  13
HETATM   13  C6  UNL     1       2.862  -4.517   5.742  1.00  0.00     0.231 C
HETATM   14  O1  UNL     1       3.807  -4.372   4.954  1.00  0.00    -0.273 OA
HETATM   15  N5  UNL     1       1.881  -3.476   5.815  1.00  0.00    -0.327 N
ATOM     16  H5  UNL     1       1.086  -3.557   6.449  1.00  0.00     0.164 HD
BRANCH  15  17
HETATM   17  C7  UNL     1       2.037  -2.310   4.976  1.00  0.00     0.346 C
BRANCH  17  18
HETATM   18  N6  UNL     1       1.667  -1.129   5.760  1.00  0.00    -0.052 N
ATOM     19  H63 UNL     1       2.069  -0.269   5.387  1.00  0.00     0.277 HD
ATOM     20  H62 UNL     1       0.684  -0.880   5.655  1.00  0.00     0.277 HD
ATOM     21  H61 UNL     1       1.928  -1.296   6.732  1.00  0.00     0.277 HD
ENDBRANCH  17  18
BRANCH  17  22
HETATM   22  C8  UNL     1       1.104  -2.352   3.814  1.00  0.00     0.285 C
HETATM   23  O2  UNL     1       1.153  -3.226   2.956  1.00  0.00    -0.303 OA
ENDBRANCH  17  22
ENDBRANCH  15  17
ENDBRANCH   1  13
BRANCH   1  24
HETATM   24  C9  UNL     1       2.950  -6.941   5.735  1.00  0.00     0.169 C
HETATM   25  O3  UNL     1       4.090  -7.309   5.477  1.00  0.00    -0.294 OA
BRANCH  24  26
HETATM   26  C10 UNL     1       1.792  -7.742   5.183  1.00  0.00     0.207 C
BRANCH  26  27
HETATM   27  O4  UNL     1       0.688  -6.987   4.914  1.00  0.00    -0.387 OA
ATOM     28  H4  UNL     1      -0.125  -7.477   4.956  1.00  0.00     0.210 HD
ENDBRANCH  26  27
BRANCH  26  29
HETATM   29  C11 UNL     1       2.327  -8.543   4.048  1.00  0.00     0.162 C
HETATM   30  C12 UNL     1       1.929  -8.081   2.708  1.00  0.00     0.231 C
HETATM   31  O5  UNL     1       1.587  -6.936   2.318  1.00  0.00    -0.273 OA
HETATM   32  N7  UNL     1       2.005  -9.247   1.860  1.00  0.00    -0.349 N
HETATM   33  C13 UNL     1       2.233 -10.418   2.682  1.00  0.00     0.150 C
ATOM     34  H7  UNL     1       1.914  -9.246   0.844  1.00  0.00     0.163 HD
HETATM   35  C14 UNL     1       1.485 -11.598   2.182  1.00  0.00     0.169 C
HETATM   36  C16 UNL     1       1.751  -9.938   4.029  1.00  0.00     0.044 C
HETATM   37  N8  UNL     1       1.057 -12.477   3.266  1.00  0.00    -0.224 N
HETATM   38  C15 UNL     1       0.660 -11.952   4.520  1.00  0.00     0.671 C
ATOM     39  H8  UNL     1       1.043 -13.485   3.118  1.00  0.00     0.177 HD
HETATM   40  N9  UNL     1      -0.050 -12.665   5.353  1.00  0.00    -0.235 N
HETATM   41  N10 UNL     1       1.061 -10.629   4.835  1.00  0.00    -0.197 N
ATOM     42  H92 UNL     1      -0.338 -13.617   5.127  1.00  0.00     0.174 HD
ATOM     43  H91 UNL     1      -0.336 -12.288   6.256  1.00  0.00     0.174 HD
ATOM     44  H10 UNL     1       0.788 -10.224   5.730  1.00  0.00     0.183 HD
ENDBRANCH  26  29
ENDBRANCH  24  26
ENDBRANCH   1  24
TORSDOF 12
ENDMDL