MODEL 3
REMARK VINA RESULT: -7.899832563      2.919      8.923
REMARK  14 active torsions:
REMARK  status: ('A' for Active; 'I' for Inactive)
REMARK    1  A    between atoms: C2_3  and  N2_4
REMARK       I    between atoms: N2_4  and  C3_6
REMARK    2  A    between atoms: C3_6  and  C4_8
REMARK    3  A    between atoms: C4_8  and  N3_9
REMARK    4  A    between atoms: C4_8  and  O2_13
REMARK    5  A    between atoms: C4_8  and  C5_15
REMARK    6  A    between atoms: C5_15  and  C6_16
REMARK    7  A    between atoms: C6_16  and  C7_17
REMARK    8  A    between atoms: C7_17  and  N4_18
REMARK    9  A    between atoms: C7_17  and  C18_47
REMARK       I    between atoms: N4_18  and  C8_20
REMARK   10  A    between atoms: C8_20  and  C9_22
REMARK   11  A    between atoms: C11_26  and  N6_27
REMARK   12  A    between atoms: C14_30  and  N7_31
REMARK   13  A    between atoms: C17_39  and  N9_40
REMARK   14  A    between atoms: N9_40  and  N10_42
ROOT
HETATM    1  N1  UNL     1       4.969   6.325   5.279  1.00  0.00    -0.196 NA
HETATM    2  C1  UNL     1       4.201   5.968   4.472  1.00  0.00     0.078 C
HETATM    3  C2  UNL     1       3.250   5.496   3.440  1.00  0.00     0.247 C
ENDROOT
BRANCH   3   4
HETATM    4  N2  UNL     1       2.581   4.320   4.035  1.00  0.00    -0.344 N
HETATM    5  C3  UNL     1       2.563   3.144   3.283  1.00  0.00     0.286 C
HETATM    6  O1  UNL     1       3.122   3.094   2.139  1.00  0.00    -0.268 OA
ATOM      7  H2  UNL     1       2.150   4.366   4.959  1.00  0.00     0.163 HD
BRANCH   5   8
HETATM    8  C4  UNL     1       1.891   1.899   3.725  1.00  0.00     0.322 C
BRANCH   8   9
HETATM    9  N3  UNL     1       1.619   2.080   5.168  1.00  0.00    -0.034 N
ATOM     10  H33 UNL     1       2.001   1.335   5.752  1.00  0.00     0.279 HD
ATOM     11  H32 UNL     1       2.143   2.847   5.590  1.00  0.00     0.279 HD
ATOM     12  H31 UNL     1       0.608   2.183   5.248  1.00  0.00     0.279 HD
ENDBRANCH   8   9
BRANCH   8  13
HETATM   13  O2  UNL     1       2.727   0.830   3.555  1.00  0.00    -0.355 OA
ATOM     14  H2  UNL     1       2.987   0.482   4.400  1.00  0.00     0.213 HD
ENDBRANCH   8  13
BRANCH   8  15
HETATM   15  C5  UNL     1       0.596   1.737   2.985  1.00  0.00     0.049 C
BRANCH  15  16
HETATM   16  C6  UNL     1       0.434   0.802   1.886  1.00  0.00     0.008 C
BRANCH  16  17
HETATM   17  C7  UNL     1      -0.202  -0.463   1.882  1.00  0.00     0.197 C
BRANCH  17  18
HETATM   18  N4  UNL     1       0.580  -1.356   2.849  1.00  0.00    -0.341 N
HETATM   19  C8  UNL     1       1.491  -2.285   2.469  1.00  0.00     0.257 C
HETATM   20  O3  UNL     1       1.863  -2.520   1.278  1.00  0.00    -0.267 OA
ATOM     21  H4  UNL     1       0.403  -1.245   3.847  1.00  0.00     0.164 HD
BRANCH  19  22
HETATM   22  C9  UNL     1       2.115  -3.119   3.472  1.00  0.00     0.093 A
HETATM   23  C10 UNL     1       1.862  -2.761   4.801  1.00  0.00     0.127 A
HETATM   24  N5  UNL     1       2.367  -3.565   5.766  1.00  0.00    -0.200 N
HETATM   25  C11 UNL     1       3.084  -4.659   5.494  1.00  0.00     0.685 A
ATOM     26  H5  UNL     1       2.192  -3.325   6.742  1.00  0.00     0.183 HD
HETATM   27  N8  UNL     1       3.331  -4.982   4.219  1.00  0.00    -0.174 N
HETATM   28  C17 UNL     1       2.843  -4.213   3.192  1.00  0.00     0.153 A
ATOM     29  H8  UNL     1       3.887  -5.809   4.008  1.00  0.00     0.186 HD
BRANCH  25  30
HETATM   30  N6  UNL     1       3.396  -5.586   6.555  1.00  0.00    -0.197 N
HETATM   31  C12 UNL     1       2.716  -5.837   7.730  1.00  0.00     0.084 C
HETATM   32  C13 UNL     1       3.591  -6.684   8.650  1.00  0.00     0.078 C
HETATM   33  C14 UNL     1       5.040  -6.278   8.584  1.00  0.00     0.189 C
HETATM   34  C15 UNL     1       5.639  -6.443   7.238  1.00  0.00     0.053 C
HETATM   35  C16 UNL     1       4.615  -6.349   6.191  1.00  0.00     0.148 C
BRANCH  33  36
HETATM   36  N7  UNL     1       5.787  -7.161   9.478  1.00  0.00    -0.075 N
ATOM     37  H73 UNL     1       5.182  -7.740  10.062  1.00  0.00     0.274 HD
ATOM     38  H72 UNL     1       6.260  -7.919   8.984  1.00  0.00     0.274 HD
ATOM     39  H71 UNL     1       6.426  -6.581  10.021  1.00  0.00     0.274 HD
ENDBRANCH  33  36
ENDBRANCH  25  30
BRANCH  28  40
HETATM   40  N9  UNL     1       3.077  -4.564   1.819  1.00  0.00    -0.270 N
ATOM     41  H9  UNL     1       3.642  -3.968   1.214  1.00  0.00     0.190 HD
BRANCH  40  42
HETATM   42  N10 UNL     1       2.575  -5.613   1.389  1.00  0.00    -0.248 N
HETATM   43  N11 UNL     1       2.538  -6.732   0.820  1.00  0.00    -0.331 N
ATOM     44 2H11 UNL     1       3.523  -6.805   0.564  1.00  0.00     0.178 HD
ATOM     45 1H11 UNL     1       2.125  -7.595   0.467  1.00  0.00     0.178 HD
ATOM     46  H10 UNL     1       1.600  -5.497   1.666  1.00  0.00     0.207 HD
ENDBRANCH  40  42
ENDBRANCH  28  40
ENDBRANCH  19  22
ENDBRANCH  17  18
BRANCH  17  47
HETATM   47  C18 UNL     1      -1.566  -0.750   2.336  1.00  0.00     0.257 C
HETATM   48  N12 UNL     1      -2.659   0.107   2.059  1.00  0.00    -0.060 NA
HETATM   49  O4  UNL     1      -1.820  -1.780   3.017  1.00  0.00    -0.274 OA
ENDBRANCH  17  47
ENDBRANCH  16  17
ENDBRANCH  15  16
ENDBRANCH   8  15
ENDBRANCH   5   8
ENDBRANCH   3   4
TORSDOF 14
ENDMDL