MODEL 3
REMARK VINA RESULT: -8.782294139      3.275      6.056
REMARK  11 active torsions:
REMARK  status: ('A' for Active; 'I' for Inactive)
REMARK    1  A    between atoms: N3_4  and  C2_6
REMARK    2  A    between atoms: C2_6  and  C3_7
REMARK    3  A    between atoms: C3_7  and  C4_8
REMARK    4  A    between atoms: C4_8  and  C5_9
REMARK    5  A    between atoms: C5_9  and  N4_10
REMARK    6  A    between atoms: C5_9  and  C6_14
REMARK       I    between atoms: C6_14  and  N5_16
REMARK    7  A    between atoms: N5_16  and  C7_18
REMARK    8  A    between atoms: C7_18  and  C8_19
REMARK    9  A    between atoms: C8_19  and  N6_20
REMARK   10  A    between atoms: N8_27  and  C12_28
REMARK   11  A    between atoms: C12_28  and  C13_29
ROOT
HETATM    1  N6  UNL     1       2.007  -2.368   3.921  1.00  0.00    -0.333 N
HETATM    2  C9  UNL     1       1.871  -2.368   5.250  1.00  0.00     0.184 A
HETATM    3  N7  UNL     1       1.638  -1.117   5.690  1.00  0.00    -0.345 N
ATOM      4  H7  UNL     1       1.497  -0.847   6.664  1.00  0.00     0.167 HD
HETATM    5  C10 UNL     1       1.622  -0.261   4.611  1.00  0.00     0.138 A
HETATM    6  C11 UNL     1       1.450   1.051   4.375  1.00  0.00     0.283 A
HETATM    7  O2  UNL     1       1.223   1.928   5.302  1.00  0.00    -0.265 OA
HETATM    8  N8  UNL     1       1.518   1.470   3.112  1.00  0.00    -0.275 N
HETATM    9  S1  UNL     1       1.818   0.058   2.243  1.00  0.00     0.012 SA
HETATM   10  C17 UNL     1       1.853  -1.064   3.528  1.00  0.00     0.126 A
ENDROOT
BRANCH   1  11
HETATM   11  C8  UNL     1       2.262  -3.460   3.043  1.00  0.00     0.150 C
BRANCH  11  12
HETATM   12  C7  UNL     1       2.106  -4.792   3.734  1.00  0.00     0.143 C
BRANCH  12  13
HETATM   13  N5  UNL     1       3.312  -5.064   4.484  1.00  0.00    -0.358 N
HETATM   14  C6  UNL     1       3.244  -5.577   5.789  1.00  0.00     0.248 C
HETATM   15  O1  UNL     1       2.125  -5.805   6.309  1.00  0.00    -0.271 OA
ATOM     16  H5  UNL     1       4.221  -4.879   4.061  1.00  0.00     0.162 HD
BRANCH  14  17
HETATM   17  C5  UNL     1       4.460  -5.871   6.596  1.00  0.00     0.274 C
BRANCH  17  18
HETATM   18  C4  UNL     1       4.170  -6.705   7.788  1.00  0.00     0.044 C
BRANCH  18  19
HETATM   19  C3  UNL     1       4.686  -6.263   9.098  1.00  0.00     0.022 C
BRANCH  19  20
HETATM   20  C2  UNL     1       5.786  -7.075   9.700  1.00  0.00     0.122 C
BRANCH  20  21
HETATM   21  N3  UNL     1       7.004  -6.979   8.867  1.00  0.00    -0.367 N
HETATM   22  C1  UNL     1       7.852  -7.937   8.900  1.00  0.00     0.196 C
HETATM   23  N1  UNL     1       9.025  -7.863   8.109  1.00  0.00    -0.067 NA
HETATM   24  N2  UNL     1       7.637  -9.073   9.716  1.00  0.00    -0.067 NA
ATOM     25  H3  UNL     1       7.165  -6.163   8.278  1.00  0.00     0.161 HD
ENDBRANCH  20  21
ENDBRANCH  19  20
ENDBRANCH  18  19
ENDBRANCH  17  18
BRANCH  17  26
HETATM   26  N4  UNL     1       5.510  -6.310   5.741  1.00  0.00    -0.067 N
ATOM     27  H43 UNL     1       6.200  -6.825   6.287  1.00  0.00     0.275 HD
ATOM     28  H42 UNL     1       5.164  -7.048   5.129  1.00  0.00     0.275 HD
ATOM     29  H41 UNL     1       5.980  -5.598   5.183  1.00  0.00     0.275 HD
ENDBRANCH  17  26
ENDBRANCH  14  17
ENDBRANCH  12  13
ENDBRANCH  11  12
ENDBRANCH   1  11
BRANCH   8  30
HETATM   30  C12 UNL     1       1.362   2.854   2.616  1.00  0.00     0.198 C
BRANCH  30  31
HETATM   31  C13 UNL     1       2.492   3.714   2.994  1.00  0.00     0.038 A
HETATM   32  C14 UNL     1       3.657   3.727   2.252  1.00  0.00     0.101 A
HETATM   33  C15 UNL     1       4.714   4.536   2.611  1.00  0.00     0.251 A
HETATM   34  O3  UNL     1       5.759   4.533   1.929  1.00  0.00    -0.268 OA
HETATM   35  N9  UNL     1       4.585   5.311   3.698  1.00  0.00    -0.275 N
HETATM   36  C16 UNL     1       3.444   5.304   4.431  1.00  0.00     0.327 A
ATOM     37  H9  UNL     1       5.357   5.915   3.979  1.00  0.00     0.173 HD
HETATM   38  O4  UNL     1       3.400   6.059   5.434  1.00  0.00    -0.247 OA
HETATM   39  N10 UNL     1       2.404   4.506   4.075  1.00  0.00    -0.310 N
ATOM     40  H10 UNL     1       1.550   4.508   4.633  1.00  0.00     0.170 HD
ENDBRANCH  30  31
ENDBRANCH   8  30
TORSDOF 11
ENDMDL