MODEL 1
REMARK VINA RESULT: -9.684964043      0.000      0.000
REMARK  12 active torsions:
REMARK  status: ('A' for Active; 'I' for Inactive)
REMARK    1  A    between atoms: C2_2  and  N1_3
REMARK    2  A    between atoms: C2_2  and  C19_41
REMARK    3  A    between atoms: N1_3  and  C3_5
REMARK    4  A    between atoms: C3_5  and  C4_6
REMARK    5  A    between atoms: C3_5  and  C11_25
REMARK       I    between atoms: C4_6  and  N2_8
REMARK       I    between atoms: N2_8  and  C5_10
REMARK    6  A    between atoms: C5_10  and  C6_12
REMARK    7  A    between atoms: C6_12  and  N3_13
REMARK    8  A    between atoms: C6_12  and  C7_17
REMARK    9  A    between atoms: C7_17  and  C8_18
REMARK   10  A    between atoms: C11_25  and  O4_27
REMARK   11  A    between atoms: O4_27  and  C12_28
REMARK   12  A    between atoms: C12_28  and  C13_29
ROOT
HETATM    1  C3  UNL     1       2.567  -5.561   5.227  1.00  0.00     0.271 C
ENDROOT
BRANCH   1   2
HETATM    2  N1  UNL     1       1.433  -6.314   4.993  1.00  0.00    -0.390 N
ATOM      3  H1  UNL     1       0.538  -5.857   5.161  1.00  0.00     0.155 HD
BRANCH   2   4
HETATM    4  C2  UNL     1       1.387  -7.625   4.554  1.00  0.00     0.163 C
HETATM    5  C1  UNL     1       2.449  -8.608   4.875  1.00  0.00     0.041 C
BRANCH   4   6
HETATM    6  C19 UNL     1       1.295  -7.606   3.040  1.00  0.00     0.253 C
HETATM    7  N9  UNL     1       0.890  -8.730   2.297  1.00  0.00    -0.060 NA
HETATM    8  O6  UNL     1       1.592  -6.547   2.448  1.00  0.00    -0.275 OA
ENDBRANCH   4   6
ENDBRANCH   2   4
ENDBRANCH   1   2
BRANCH   1   9
HETATM    9  C4  UNL     1       2.661  -4.174   4.730  1.00  0.00     0.256 C
HETATM   10  O1  UNL     1       3.788  -3.674   4.491  1.00  0.00    -0.270 OA
HETATM   11  N2  UNL     1       1.473  -3.382   4.516  1.00  0.00    -0.294 N
HETATM   12  C5  UNL     1       1.534  -2.055   4.074  1.00  0.00     0.255 C
ATOM     13  H2  UNL     1       0.560  -3.802   4.693  1.00  0.00     0.171 HD
HETATM   14  O2  UNL     1       2.654  -1.566   3.817  1.00  0.00    -0.271 OA
BRANCH  12  15
HETATM   15  C6  UNL     1       0.333  -1.229   3.902  1.00  0.00     0.280 C
BRANCH  15  16
HETATM   16  N3  UNL     1      -0.822  -2.099   3.534  1.00  0.00    -0.066 N
ATOM     17  H33 UNL     1      -1.006  -2.091   2.531  1.00  0.00     0.275 HD
ATOM     18  H32 UNL     1      -0.604  -3.091   3.634  1.00  0.00     0.275 HD
ATOM     19  H31 UNL     1      -1.640  -1.828   4.078  1.00  0.00     0.275 HD
ENDBRANCH  15  16
BRANCH  15  20
HETATM   20  C7  UNL     1       0.437  -0.226   2.761  1.00  0.00     0.101 C
BRANCH  20  21
HETATM   21  C8  UNL     1       0.884   1.084   3.233  1.00  0.00     0.028 A
HETATM   22  C9  UNL     1       0.110   2.201   3.514  1.00  0.00     0.114 A
HETATM   23  N4  UNL     1       0.947   3.202   3.897  1.00  0.00    -0.360 N
HETATM   24  C10 UNL     1       2.208   2.731   3.861  1.00  0.00     0.180 A
ATOM     25  H4  UNL     1       0.668   4.145   4.167  1.00  0.00     0.166 HD
HETATM   26  N5  UNL     1       2.151   1.452   3.458  1.00  0.00    -0.355 N
ATOM     27  H5  UNL     1       2.961   0.844   3.339  1.00  0.00     0.166 HD
ENDBRANCH  20  21
ENDBRANCH  15  20
ENDBRANCH  12  15
ENDBRANCH   1   9
BRANCH   1  28
HETATM   28  C11 UNL     1       2.717  -5.426   6.732  1.00  0.00     0.291 C
HETATM   29  O3  UNL     1       1.759  -5.006   7.408  1.00  0.00    -0.262 OA
BRANCH  28  30
HETATM   30  O4  UNL     1       3.892  -5.757   7.390  1.00  0.00    -0.313 OA
BRANCH  30  31
HETATM   31  C12 UNL     1       5.033  -6.181   6.653  1.00  0.00     0.236 C
BRANCH  31  32
HETATM   32  C13 UNL     1       6.088  -6.713   7.510  1.00  0.00     0.041 A
HETATM   33  C14 UNL     1       5.824  -7.044   8.811  1.00  0.00     0.102 A
HETATM   34  C15 UNL     1       6.802  -7.554   9.634  1.00  0.00     0.252 A
HETATM   35  O5  UNL     1       6.552  -7.862  10.849  1.00  0.00    -0.268 OA
HETATM   36  N6  UNL     1       8.050  -7.741   9.172  1.00  0.00    -0.284 N
HETATM   37  C16 UNL     1       8.304  -7.416   7.896  1.00  0.00     0.184 A
HETATM   38  C18 UNL     1       9.239  -8.259   9.823  1.00  0.00     0.155 A
HETATM   39  N7  UNL     1       7.338  -6.907   7.069  1.00  0.00    -0.329 N
HETATM   40  N8  UNL     1       9.674  -7.685   7.604  1.00  0.00    -0.360 N
ATOM     41  H7  UNL     1       7.574  -6.671   6.105  1.00  0.00     0.169 HD
HETATM   42  C17 UNL     1      10.315  -8.178   8.784  1.00  0.00     0.143 A
ATOM     43  H8  UNL     1      10.125  -7.549   6.699  1.00  0.00     0.162 HD
ENDBRANCH  31  32
ENDBRANCH  30  31
ENDBRANCH  28  30
ENDBRANCH   1  28
TORSDOF 12
ENDMDL