MODEL 2
REMARK VINA RESULT: -8.177011948      2.201      9.174
REMARK  11 active torsions:
REMARK  status: ('A' for Active; 'I' for Inactive)
REMARK    1  A    between atoms: O1_2  and  C2_3
REMARK    2  A    between atoms: C2_3  and  C3_5
REMARK    3  A    between atoms: C3_5  and  C4_6
REMARK    4  A    between atoms: C3_5  and  C11_24
REMARK    5  A    between atoms: C4_6  and  C5_7
REMARK    6  A    between atoms: C8_15  and  N3_16
REMARK       I    between atoms: C11_24  and  N6_26
REMARK    7  A    between atoms: N6_26  and  C12_28
REMARK    8  A    between atoms: C12_28  and  C13_29
REMARK    9  A    between atoms: C12_28  and  C14_31
REMARK   10  A    between atoms: C14_31  and  C15_33
REMARK       I    between atoms: C15_33  and  N7_35
REMARK   11  A    between atoms: N7_35  and  C16_37
ROOT
HETATM    1  C16 UNL     1       6.492  -7.283   9.886  1.00  0.00     0.247 C
HETATM    2  C17 UNL     1       7.439  -8.278   9.419  1.00  0.00     0.078 C
HETATM    3  N8  UNL     1       8.202  -9.067   9.031  1.00  0.00    -0.196 NA
ENDROOT
BRANCH   1   4
HETATM    4  N7  UNL     1       5.453  -7.064   8.900  1.00  0.00    -0.342 N
HETATM    5  C15 UNL     1       5.745  -6.579   7.609  1.00  0.00     0.290 C
HETATM    6  O6  UNL     1       6.926  -6.331   7.304  1.00  0.00    -0.264 OA
ATOM      7  H7  UNL     1       4.485  -7.267   9.147  1.00  0.00     0.163 HD
BRANCH   5   8
HETATM    8  C14 UNL     1       4.686  -6.372   6.653  1.00  0.00     0.239 C
HETATM    9  O5  UNL     1       4.497  -7.273   5.785  1.00  0.00    -0.285 OA
BRANCH   8  10
HETATM   10  C12 UNL     1       3.799  -5.175   6.608  1.00  0.00     0.174 C
BRANCH  10  11
HETATM   11  N6  UNL     1       2.882  -5.300   5.494  1.00  0.00    -0.348 N
HETATM   12  C11 UNL     1       2.862  -4.302   4.503  1.00  0.00     0.232 C
HETATM   13  O4  UNL     1       3.622  -3.323   4.578  1.00  0.00    -0.273 OA
ATOM     14  H6  UNL     1       2.258  -6.103   5.430  1.00  0.00     0.163 HD
BRANCH  12  15
HETATM   15  C3  UNL     1       1.925  -4.429   3.364  1.00  0.00     0.184 C
BRANCH  15  16
HETATM   16  C2  UNL     1       1.743  -5.840   3.030  1.00  0.00     0.272 C
HETATM   17  O2  UNL     1       2.188  -6.419   2.035  1.00  0.00    -0.264 OA
BRANCH  16  18
HETATM   18  O1  UNL     1       0.989  -6.621   3.923  1.00  0.00    -0.326 OA
HETATM   19  C1  UNL     1       1.291  -7.954   4.203  1.00  0.00     0.213 C
ENDBRANCH  16  18
ENDBRANCH  15  16
BRANCH  15  20
HETATM   20  C4  UNL     1       0.682  -3.677   3.728  1.00  0.00     0.101 C
BRANCH  20  21
HETATM   21  C5  UNL     1       0.758  -2.211   3.558  1.00  0.00     0.086 A
HETATM   22  N1  UNL     1       1.102  -1.280   4.456  1.00  0.00    -0.338 N
HETATM   23  C6  UNL     1       1.054  -0.054   3.927  1.00  0.00     0.148 A
ATOM     24  H1  UNL     1       1.368  -1.481   5.421  1.00  0.00     0.167 HD
HETATM   25  C7  UNL     1       1.296   1.229   4.377  1.00  0.00     0.290 A
HETATM   26  C9  UNL     1       0.658  -0.193   2.622  1.00  0.00     0.157 A
HETATM   27  O3  UNL     1       1.660   1.346   5.580  1.00  0.00    -0.265 OA
HETATM   28  N2  UNL     1       1.153   2.303   3.572  1.00  0.00    -0.154 N
HETATM   29  C8  UNL     1       0.762   2.149   2.283  1.00  0.00     0.680 A
ATOM     30  H2  UNL     1       1.341   3.237   3.936  1.00  0.00     0.187 HD
HETATM   31  N4  UNL     1       0.529   0.903   1.856  1.00  0.00    -0.174 N
ATOM     32  H4  UNL     1       0.233   0.776   0.888  1.00  0.00     0.186 HD
HETATM   33  N5  UNL     1       0.484  -1.521   2.421  1.00  0.00    -0.325 N
HETATM   34  C10 UNL     1       0.070  -2.096   1.182  1.00  0.00     0.159 C
BRANCH  29  35
HETATM   35  N3  UNL     1       0.618   3.181   1.487  1.00  0.00    -0.234 N
ATOM     36  H32 UNL     1      -0.268   3.684   1.427  1.00  0.00     0.174 HD
ATOM     37  H31 UNL     1       1.386   3.512   0.905  1.00  0.00     0.174 HD
ENDBRANCH  29  35
ENDBRANCH  20  21
ENDBRANCH  15  20
ENDBRANCH  12  15
ENDBRANCH  10  11
BRANCH  10  38
HETATM   38  C13 UNL     1       3.056  -4.990   7.912  1.00  0.00     0.119 C
HETATM   39  S1  UNL     1       1.308  -5.353   7.786  1.00  0.00    -0.095 SA
ENDBRANCH  10  38
ENDBRANCH   8  10
ENDBRANCH   5   8
ENDBRANCH   1   4
TORSDOF 11
ENDMDL