MODEL 1
REMARK VINA RESULT: -7.336503804      0.000      0.000
REMARK  8 active torsions:
REMARK  status: ('A' for Active; 'I' for Inactive)
REMARK    1  A    between atoms: C2_2  and  C3_3
REMARK    2  A    between atoms: C3_3  and  C4_4
REMARK    3  A    between atoms: C4_4  and  N1_5
REMARK    4  A    between atoms: N1_5  and  C5_7
REMARK    5  A    between atoms: C6_10  and  S1_11
REMARK    6  A    between atoms: C8_15  and  N4_16
REMARK    7  A    between atoms: N4_16  and  C9_18
REMARK    8  A    between atoms: C13_25  and  C14_26
ROOT
HETATM    1  C5  UNL     1       2.133  -5.180   6.573  1.00  0.00     0.694 A
HETATM    2  N2  UNL     1       1.989  -5.954   5.489  1.00  0.00    -0.169 N
ATOM      3  H2  UNL     1       2.091  -6.965   5.569  1.00  0.00     0.186 HD
HETATM    4  C6  UNL     1       1.706  -5.392   4.274  1.00  0.00     0.174 A
HETATM    5  N3  UNL     1       1.565  -4.063   4.134  1.00  0.00    -0.169 N
ATOM      6  H3  UNL     1       1.355  -3.656   3.222  1.00  0.00     0.186 HD
HETATM    7  C8  UNL     1       1.708  -3.278   5.216  1.00  0.00     0.695 A
HETATM    8  N6  UNL     1       1.985  -3.833   6.402  1.00  0.00    -0.022 N
ATOM      9  H6  UNL     1       2.089  -3.224   7.214  1.00  0.00     0.203 HD
ENDROOT
BRANCH   7  10
HETATM   10  N4  UNL     1       1.581  -1.991   5.129  1.00  0.00    -0.220 N
ATOM     11  H4  UNL     1       1.673  -1.428   5.975  1.00  0.00     0.178 HD
BRANCH  10  12
HETATM   12  C9  UNL     1       1.312  -1.323   3.869  1.00  0.00     0.114 C
HETATM   13  C10 UNL     1       1.913   0.086   3.966  1.00  0.00     0.128 C
HETATM   14  C11 UNL     1       0.876   1.153   3.928  1.00  0.00     0.219 C
HETATM   15  O1  UNL     1       0.895   2.131   4.737  1.00  0.00    -0.274 OA
HETATM   16  N5  UNL     1      -0.141   1.025   2.936  1.00  0.00    -0.356 N
HETATM   17  C12 UNL     1      -0.218  -0.277   2.393  1.00  0.00     0.095 A
ATOM     18  H5  UNL     1      -0.748   1.793   2.648  1.00  0.00     0.162 HD
HETATM   19  C13 UNL     1      -1.040  -1.395   2.645  1.00  0.00     0.016 A
HETATM   20  C16 UNL     1      -0.130  -1.155   3.699  1.00  0.00     0.038 A
BRANCH  19  21
HETATM   21  C14 UNL     1      -0.855  -2.642   1.791  1.00  0.00     0.002 C
HETATM   22  C15 UNL     1      -1.219  -2.370   0.347  1.00  0.00     0.005 C
ENDBRANCH  19  21
ENDBRANCH  10  12
ENDBRANCH   7  10
BRANCH   4  23
HETATM   23  S1  UNL     1       1.528  -6.500   2.866  1.00  0.00    -0.097 SA
HETATM   24  C7  UNL     1      -0.137  -6.300   2.182  1.00  0.00     0.099 C
ENDBRANCH   4  23
BRANCH   1  25
HETATM   25  N1  UNL     1       2.398  -5.669   7.727  1.00  0.00    -0.225 N
ATOM     26  H1  UNL     1       1.749  -6.335   8.146  1.00  0.00     0.177 HD
BRANCH  25  27
HETATM   27  C4  UNL     1       3.584  -5.302   8.447  1.00  0.00     0.142 C
BRANCH  27  28
HETATM   28  C3  UNL     1       4.610  -6.446   8.465  1.00  0.00     0.046 C
BRANCH  28  29
HETATM   29  C2  UNL     1       5.301  -6.459   9.775  1.00  0.00    -0.035 C
HETATM   30  C1  UNL     1       6.442  -7.107   9.897  1.00  0.00     0.007 C
ENDBRANCH  28  29
ENDBRANCH  27  28
ENDBRANCH  25  27
ENDBRANCH   1  25
TORSDOF 8
ENDMDL