MODEL 4
REMARK VINA RESULT: -8.975544860      1.634      2.257
REMARK  7 active torsions:
REMARK  status: ('A' for Active; 'I' for Inactive)
REMARK    1  A    between atoms: C2_3  and  N2_4
REMARK       I    between atoms: N2_4  and  C3_6
REMARK    2  A    between atoms: C3_6  and  C4_8
REMARK    3  A    between atoms: N3_10  and  C6_11
REMARK    4  A    between atoms: C6_11  and  C7_12
REMARK    5  A    between atoms: C7_12  and  C8_13
REMARK    6  A    between atoms: C8_13  and  O2_14
REMARK    7  A    between atoms: O2_14  and  C9_15
ROOT
HETATM    1  N1  UNL     1      12.161 -10.740   8.004  1.00  0.00    -0.195 NA
HETATM    2  C1  UNL     1      11.929  -9.987   8.864  1.00  0.00     0.091 C
HETATM    3  C2  UNL     1      11.661  -9.035   9.955  1.00  0.00     0.122 A
HETATM    4  C17 UNL     1      12.553  -7.865  10.006  1.00  0.00     0.050 A
HETATM    5  C18 UNL     1      12.757  -8.976  10.996  1.00  0.00     0.050 A
ENDROOT
BRANCH   3   6
HETATM    6  N2  UNL     1      10.288  -8.978  10.386  1.00  0.00    -0.337 N
HETATM    7  C3  UNL     1       9.285  -8.280   9.660  1.00  0.00     0.251 C
HETATM    8  O1  UNL     1       9.617  -7.696   8.610  1.00  0.00    -0.271 OA
ATOM      9  H2  UNL     1      10.025  -9.458  11.247  1.00  0.00     0.164 HD
BRANCH   7  10
HETATM   10  C4  UNL     1       7.877  -8.218  10.093  1.00  0.00     0.307 C
HETATM   11  C5  UNL     1       6.961  -8.091   8.894  1.00  0.00     0.317 C
HETATM   12  N3  UNL     1       6.764  -6.665   8.743  1.00  0.00     0.116 N
HETATM   13  C16 UNL     1       7.056  -6.045   9.988  1.00  0.00     0.503 C
HETATM   14  N5  UNL     1       7.625  -7.030  10.882  1.00  0.00    -0.034 N
ATOM     15  H52 UNL     1       7.046  -7.209  11.703  1.00  0.00     0.280 HD
ATOM     16  H51 UNL     1       8.451  -6.695  11.376  1.00  0.00     0.280 HD
BRANCH  12  17
HETATM   17  C6  UNL     1       5.537  -6.289   8.119  1.00  0.00     0.277 C
BRANCH  17  18
HETATM   18  C7  UNL     1       4.317  -6.414   9.003  1.00  0.00     0.056 C
BRANCH  18  19
HETATM   19  C8  UNL     1       3.120  -6.046   8.153  1.00  0.00     0.170 C
BRANCH  19  20
HETATM   20  O2  UNL     1       3.439  -5.574   6.905  1.00  0.00    -0.384 OA
BRANCH  20  21
HETATM   21  C9  UNL     1       2.687  -4.517   6.461  1.00  0.00     0.144 C
HETATM   22  C10 UNL     1       1.232  -4.793   6.762  1.00  0.00     0.038 C
HETATM   23  C11 UNL     1       0.598  -4.945   5.387  1.00  0.00    -0.009 C
HETATM   24  C12 UNL     1       0.925  -6.323   4.906  1.00  0.00     0.024 C
HETATM   25  C15 UNL     1       1.370  -3.917   4.587  1.00  0.00     0.032 C
HETATM   26  C13 UNL     1       2.125  -6.437   4.037  1.00  0.00     0.114 C
HETATM   27  N4  UNL     1       3.159  -5.476   4.251  1.00  0.00    -0.415 N
HETATM   28  C14 UNL     1       2.790  -4.300   4.969  1.00  0.00     0.105 C
ATOM     29  H4  UNL     1       4.108  -5.623   3.910  1.00  0.00     0.153 HD
ENDBRANCH  20  21
ENDBRANCH  19  20
ENDBRANCH  18  19
ENDBRANCH  17  18
ENDBRANCH  12  17
ENDBRANCH   7  10
ENDBRANCH   3   6
TORSDOF 7
ENDMDL