MODEL 5
REMARK VINA RESULT: -7.199765807      2.348      6.491
REMARK  8 active torsions:
REMARK  status: ('A' for Active; 'I' for Inactive)
REMARK    1  A    between atoms: C2_2  and  C4_4
REMARK       I    between atoms: C4_4  and  N1_6
REMARK    2  A    between atoms: N1_6  and  C5_8
REMARK    3  A    between atoms: C5_8  and  C7_10
REMARK       I    between atoms: C7_10  and  N2_12
REMARK    4  A    between atoms: C10_15  and  C11_16
REMARK       I    between atoms: C11_16  and  N3_18
REMARK    5  A    between atoms: N3_18  and  O4_20
REMARK    6  A    between atoms: C13_22  and  C14_23
REMARK    7  A    between atoms: C14_23  and  C15_25
REMARK    8  A    between atoms: C15_25  and  C16_26
ROOT
HETATM    1  C7  UNL     1       3.509  -5.335   6.042  1.00  0.00     0.243 C
HETATM    2  O2  UNL     1       4.592  -4.950   5.526  1.00  0.00    -0.271 OA
HETATM    3  N2  UNL     1       2.321  -5.171   5.288  1.00  0.00    -0.338 N
HETATM    4  C8  UNL     1       0.996  -5.580   5.710  1.00  0.00     0.127 C
HETATM    5  C9  UNL     1       0.491  -6.167   4.382  1.00  0.00     0.036 C
HETATM    6  C10 UNL     1       0.847  -5.071   3.439  1.00  0.00     0.112 C
HETATM    7  C13 UNL     1       2.192  -4.582   3.980  1.00  0.00     0.169 C
ENDROOT
BRANCH   1   8
HETATM    8  C5  UNL     1       3.553  -5.934   7.397  1.00  0.00     0.173 C
HETATM    9  C6  UNL     1       3.191  -4.848   8.410  1.00  0.00     0.042 C
BRANCH   8  10
HETATM   10  N1  UNL     1       4.949  -6.263   7.712  1.00  0.00    -0.344 N
HETATM   11  C4  UNL     1       5.294  -6.767   8.977  1.00  0.00     0.247 C
HETATM   12  O1  UNL     1       4.398  -6.940   9.849  1.00  0.00    -0.268 OA
ATOM     13  H1  UNL     1       5.674  -6.125   7.008  1.00  0.00     0.163 HD
BRANCH  11  14
HETATM   14  C2  UNL     1       6.657  -7.102   9.323  1.00  0.00    -0.004 C
HETATM   15  C1  UNL     1       7.062  -7.497  10.516  1.00  0.00     0.024 C
HETATM   16  C3  UNL     1       7.742  -7.005   8.277  1.00  0.00     0.053 C
ENDBRANCH  11  14
ENDBRANCH   8  10
ENDBRANCH   1   8
BRANCH   7  17
HETATM   17  C14 UNL     1       2.121  -3.096   4.016  1.00  0.00     0.150 C
HETATM   18  O5  UNL     1       2.483  -2.474   5.026  1.00  0.00    -0.296 OA
BRANCH  17  19
HETATM   19  C15 UNL     1       1.630  -2.274   2.887  1.00  0.00     0.080 C
BRANCH  19  20
HETATM   20  C16 UNL     1       0.503  -1.356   3.322  1.00  0.00     0.003 C
HETATM   21  C17 UNL     1      -0.821  -1.890   2.837  1.00  0.00     0.005 C
ENDBRANCH  19  20
ENDBRANCH  17  19
ENDBRANCH   7  17
BRANCH   6  22
HETATM   22  C11 UNL     1       0.980  -5.527   2.033  1.00  0.00     0.247 C
HETATM   23  O3  UNL     1      -0.037  -5.489   1.280  1.00  0.00    -0.271 OA
HETATM   24  N3  UNL     1       2.189  -6.001   1.501  1.00  0.00    -0.235 N
ATOM     25  H3  UNL     1       3.022  -6.041   2.088  1.00  0.00     0.197 HD
BRANCH  24  26
HETATM   26  O4  UNL     1       2.254  -6.402   0.224  1.00  0.00    -0.283 OA
HETATM   27  C12 UNL     1       3.000  -5.520  -0.556  1.00  0.00     0.237 C
ENDBRANCH  24  26
ENDBRANCH   6  22
TORSDOF 8
ENDMDL