MODEL 1
REMARK VINA RESULT: -9.287128314      0.000      0.000
REMARK  9 active torsions:
REMARK  status: ('A' for Active; 'I' for Inactive)
REMARK    1  A    between atoms: N1_1  and  C1_5
REMARK    2  A    between atoms: C1_5  and  C2_6
REMARK    3  A    between atoms: C2_6  and  C3_7
REMARK    4  A    between atoms: C3_7  and  C4_8
REMARK    5  A    between atoms: C4_8  and  N2_9
REMARK    6  A    between atoms: N3_12  and  C7_13
REMARK    7  A    between atoms: C9_15  and  N4_16
REMARK    8  A    between atoms: N4_16  and  C10_18
REMARK    9  A    between atoms: C10_18  and  C11_19
ROOT
HETATM    1  C7  UNL     1       4.546  -5.932   7.623  1.00  0.00     0.107 A
HETATM    2  C8  UNL     1       5.806  -6.280   7.189  1.00  0.00     0.096 A
HETATM    3  C9  UNL     1       6.768  -6.684   8.089  1.00  0.00     0.105 A
HETATM    4  N6  UNL     1       6.417  -6.721   9.408  1.00  0.00    -0.339 N
ATOM      5  H6  UNL     1       7.112  -7.016  10.093  1.00  0.00     0.168 HD
HETATM    6  C16 UNL     1       5.191  -6.383   9.835  1.00  0.00     0.183 A
HETATM    7  N7  UNL     1       4.263  -5.991   8.946  1.00  0.00    -0.339 N
ATOM      8  H7  UNL     1       3.332  -5.735   9.271  1.00  0.00     0.168 HD
ENDROOT
BRANCH   1   9
HETATM    9  N3  UNL     1       3.586  -5.498   6.694  1.00  0.00    -0.364 N
HETATM   10  C6  UNL     1       2.198  -5.414   7.114  1.00  0.00     0.154 C
HETATM   11  C5  UNL     1       1.360  -4.483   6.316  1.00  0.00     0.292 C
HETATM   12  N2  UNL     1       1.678  -4.376   4.920  1.00  0.00     0.091 N
HETATM   13  C18 UNL     1       2.645  -5.381   4.519  1.00  0.00     0.292 C
HETATM   14  C17 UNL     1       3.913  -5.124   5.336  1.00  0.00     0.154 C
BRANCH  12  15
HETATM   15  C4  UNL     1       0.491  -4.429   4.082  1.00  0.00     0.272 C
BRANCH  15  16
HETATM   16  C3  UNL     1       0.181  -3.066   3.486  1.00  0.00     0.032 C
BRANCH  16  17
HETATM   17  C2  UNL     1       1.427  -2.215   3.523  1.00  0.00     0.029 C
BRANCH  17  18
HETATM   18  C1  UNL     1       1.097  -0.888   4.145  1.00  0.00     0.229 C
BRANCH  18  19
HETATM   19  N1  UNL     1       1.439  -0.879   5.538  1.00  0.00    -0.079 N
ATOM     20  H13 UNL     1       2.291  -1.410   5.721  1.00  0.00     0.274 HD
ATOM     21  H12 UNL     1       1.762   0.040   5.842  1.00  0.00     0.274 HD
ATOM     22  H11 UNL     1       0.659  -1.210   6.105  1.00  0.00     0.274 HD
ENDBRANCH  18  19
ENDBRANCH  17  18
ENDBRANCH  16  17
ENDBRANCH  15  16
ENDBRANCH  12  15
ENDBRANCH   1   9
BRANCH   3  23
HETATM   23  N4  UNL     1       7.951  -7.010   7.686  1.00  0.00    -0.374 N
ATOM     24  H4  UNL     1       8.153  -7.177   6.699  1.00  0.00     0.161 HD
BRANCH  23  25
HETATM   25  C10 UNL     1       8.969  -7.127   8.695  1.00  0.00     0.146 C
BRANCH  25  26
HETATM   26  C11 UNL     1       8.951  -8.466   9.410  1.00  0.00     0.098 C
HETATM   27  C12 UNL     1       9.104  -8.375  10.883  1.00  0.00     0.027 C
HETATM   28  C13 UNL     1      10.480  -8.595  11.421  1.00  0.00     0.007 C
HETATM   29  C14 UNL     1      11.517  -8.893  10.386  1.00  0.00     0.044 C
HETATM   30  C15 UNL     1      11.007  -9.765   9.276  1.00  0.00     0.056 C
HETATM   31  N5  UNL     1       9.775  -9.379   8.715  1.00  0.00    -0.396 N
ATOM     32  H5  UNL     1       9.480  -9.756   7.814  1.00  0.00     0.159 HD
ENDBRANCH  25  26
ENDBRANCH  23  25
ENDBRANCH   3  23
TORSDOF 9
ENDMDL