MODEL 3
REMARK VINA RESULT: -6.300847227      0.914      1.206
REMARK  8 active torsions:
REMARK  status: ('A' for Active; 'I' for Inactive)
REMARK    1  A    between atoms: O1_2  and  C2_3
REMARK    2  A    between atoms: C2_3  and  C3_4
REMARK    3  A    between atoms: C3_4  and  C4_5
REMARK    4  A    between atoms: C4_5  and  N1_6
REMARK       I    between atoms: N1_6  and  C5_8
REMARK    5  A    between atoms: C5_8  and  C6_10
REMARK    6  A    between atoms: N2_14  and  C10_15
REMARK    7  A    between atoms: C13_19  and  C14_20
REMARK       I    between atoms: C14_20  and  N4_22
REMARK    8  A    between atoms: N4_22  and  C15_24
ROOT
HETATM    1  C10 UNL     1      -1.694  -0.937   1.533  1.00  0.00     0.183 C
HETATM    2  C11 UNL     1      -1.518  -0.345   0.127  1.00  0.00     0.048 C
HETATM    3  C12 UNL     1      -2.755  -0.186   2.155  1.00  0.00     0.084 C
HETATM    4  N3  UNL     1      -3.633   0.426   2.646  1.00  0.00    -0.195 NA
ENDROOT
BRANCH   1   5
HETATM    5  N2  UNL     1      -0.485  -0.847   2.211  1.00  0.00    -0.383 N
HETATM    6  C9  UNL     1       0.558  -0.090   1.688  1.00  0.00     0.119 C
HETATM    7  C8  UNL     1       1.072   0.761   2.863  1.00  0.00     0.020 C
HETATM    8  C7  UNL     1       1.667  -0.195   3.819  1.00  0.00     0.018 C
HETATM    9  C6  UNL     1       0.826  -1.390   4.200  1.00  0.00     0.109 C
HETATM   10  C13 UNL     1      -0.184  -1.832   3.215  1.00  0.00     0.186 C
BRANCH   9  11
HETATM   11  C5  UNL     1       1.794  -2.420   4.643  1.00  0.00     0.224 C
HETATM   12  N1  UNL     1       1.448  -3.336   5.663  1.00  0.00    -0.361 N
ATOM     13  H1  UNL     1       0.520  -3.247   6.078  1.00  0.00     0.162 HD
HETATM   14  O2  UNL     1       2.963  -2.539   4.138  1.00  0.00    -0.273 OA
BRANCH  12  15
HETATM   15  C4  UNL     1       2.291  -4.371   6.158  1.00  0.00     0.124 C
BRANCH  15  16
HETATM   16  C3  UNL     1       1.915  -5.755   5.650  1.00  0.00     0.046 C
BRANCH  16  17
HETATM   17  C2  UNL     1       3.187  -6.471   5.219  1.00  0.00     0.168 C
BRANCH  17  18
HETATM   18  O1  UNL     1       3.024  -7.810   4.993  1.00  0.00    -0.396 OA
HETATM   19  C1  UNL     1       1.882  -8.187   4.339  1.00  0.00     0.201 C
ENDBRANCH  17  18
ENDBRANCH  16  17
ENDBRANCH  15  16
ENDBRANCH  12  15
ENDBRANCH   9  11
BRANCH  10  20
HETATM   20  C14 UNL     1      -0.034  -3.169   2.625  1.00  0.00     0.241 C
HETATM   21  O3  UNL     1      -0.571  -4.138   3.262  1.00  0.00    -0.271 OA
HETATM   22  N4  UNL     1       0.643  -3.506   1.432  1.00  0.00    -0.351 N
ATOM     23  H4  UNL     1       1.073  -2.747   0.903  1.00  0.00     0.163 HD
BRANCH  22  24
HETATM   24  C15 UNL     1       0.769  -4.828   0.912  1.00  0.00     0.022 C
HETATM   25  C16 UNL     1      -0.497  -5.587   0.704  1.00  0.00     0.037 C
HETATM   26  C17 UNL     1       1.438  -4.744  -0.469  1.00  0.00     0.037 C
HETATM   27  C18 UNL     1       1.715  -5.666   1.754  1.00  0.00     0.037 C
ENDBRANCH  22  24
ENDBRANCH  10  20
ENDBRANCH   1   5
TORSDOF 8
ENDMDL