MODEL 2
REMARK VINA RESULT: -7.537940017      2.877      8.887
REMARK  9 active torsions:
REMARK  status: ('A' for Active; 'I' for Inactive)
REMARK    1  A    between atoms: C2_2  and  C3_3
REMARK    2  A    between atoms: C3_3  and  C4_4
REMARK    3  A    between atoms: C4_4  and  N1_5
REMARK    4  A    between atoms: N1_5  and  C5_7
REMARK    5  A    between atoms: C5_7  and  C6_8
REMARK    6  A    between atoms: C6_8  and  N2_9
REMARK    7  A    between atoms: N3_12  and  C9_13
REMARK    8  A    between atoms: C9_13  and  C11_15
REMARK    9  A    between atoms: C11_15  and  O1_16
ROOT
HETATM    1  C5  UNL     1       2.678  -5.404   5.382  1.00  0.00     0.077 C
HETATM    2  C14 UNL     1       1.144  -5.769   5.497  1.00  0.00     0.061 C
HETATM    3  C15 UNL     1       0.741  -4.925   6.665  1.00  0.00     0.235 C
HETATM    4  N4  UNL     1       1.335  -3.652   6.327  1.00  0.00    -0.073 N
ATOM      5  H41 UNL     1       1.292  -2.961   7.076  1.00  0.00     0.277 HD
ATOM      6  H42 UNL     1       0.803  -3.113   5.644  1.00  0.00     0.277 HD
HETATM    7  C16 UNL     1       2.650  -3.974   5.911  1.00  0.00     0.264 C
ENDROOT
BRANCH   1   8
HETATM    8  N1  UNL     1       3.002  -5.339   4.033  1.00  0.00    -0.407 N
ATOM      9  H1  UNL     1       3.184  -6.206   3.528  1.00  0.00     0.154 HD
BRANCH   8  10
HETATM   10  C4  UNL     1       3.088  -4.124   3.343  1.00  0.00     0.152 C
BRANCH  10  11
HETATM   11  C3  UNL     1       2.102  -4.135   2.164  1.00  0.00     0.076 A
HETATM   12  C17 UNL     1       1.657  -5.502   1.801  1.00  0.00     0.042 A
HETATM   13  C18 UNL     1       2.096  -5.697   0.373  1.00  0.00     0.029 A
HETATM   14  C19 UNL     1       2.781  -4.421   0.028  1.00  0.00     0.169 A
HETATM   15  O2  UNL     1       2.774  -3.565   1.083  1.00  0.00    -0.379 OA
BRANCH  11  16
HETATM   16  C2  UNL     1       0.973  -3.204   2.525  1.00  0.00     0.035 C
HETATM   17  C1  UNL     1      -0.335  -3.950   2.682  1.00  0.00     0.008 C
ENDBRANCH  11  16
ENDBRANCH  10  11
ENDBRANCH   8  10
ENDBRANCH   1   8
BRANCH   1  18
HETATM   18  C6  UNL     1       3.322  -6.329   6.325  1.00  0.00     0.304 C
BRANCH  18  19
HETATM   19  N2  UNL     1       4.327  -5.818   7.216  1.00  0.00     0.094 N
HETATM   20  C7  UNL     1       4.418  -6.732   8.394  1.00  0.00     0.302 C
HETATM   21  C8  UNL     1       5.342  -6.021   9.371  1.00  0.00     0.303 C
HETATM   22  N3  UNL     1       6.685  -6.167   8.834  1.00  0.00     0.098 N
HETATM   23  C12 UNL     1       6.664  -6.646   7.504  1.00  0.00     0.303 C
HETATM   24  C13 UNL     1       5.658  -5.977   6.603  1.00  0.00     0.302 C
BRANCH  22  25
HETATM   25  C9  UNL     1       7.545  -6.887   9.707  1.00  0.00     0.242 C
HETATM   26  C10 UNL     1       6.843  -7.787  10.699  1.00  0.00     0.045 C
BRANCH  25  27
HETATM   27  C11 UNL     1       8.563  -7.673   8.918  1.00  0.00     0.199 C
BRANCH  27  28
HETATM   28  O1  UNL     1       8.395  -9.057   9.174  1.00  0.00    -0.399 OA
ATOM     29  H1  UNL     1       9.178  -9.526   8.912  1.00  0.00     0.209 HD
ENDBRANCH  27  28
ENDBRANCH  25  27
ENDBRANCH  22  25
ENDBRANCH  18  19
ENDBRANCH   1  18
TORSDOF 9
ENDMDL