MODEL 3
REMARK VINA RESULT: -7.164069089      1.927      4.755
REMARK  7 active torsions:
REMARK  status: ('A' for Active; 'I' for Inactive)
REMARK    1  A    between atoms: C2_2  and  N1_3
REMARK       I    between atoms: N1_3  and  C3_5
REMARK       I    between atoms: C3_5  and  N2_7
REMARK    2  A    between atoms: N2_7  and  C4_9
REMARK    3  A    between atoms: C4_9  and  C5_10
REMARK    4  A    between atoms: C5_10  and  C6_11
REMARK    5  A    between atoms: C6_11  and  N3_12
REMARK    6  A    between atoms: C9_15  and  C10_16
REMARK    7  A    between atoms: C10_16  and  O2_17
ROOT
HETATM    1  C5  UNL     1       2.201  -4.357   5.384  1.00  0.00     0.192 C
HETATM    2  C14 UNL     1       3.162  -3.955   4.235  1.00  0.00     0.213 C
HETATM    3  O3  UNL     1       2.140  -3.712   3.272  1.00  0.00    -0.352 OA
HETATM    4  C15 UNL     1       1.226  -2.906   3.921  1.00  0.00     0.220 C
HETATM    5  C16 UNL     1      -0.192  -3.043   3.484  1.00  0.00     0.078 C
HETATM    6  C17 UNL     1       1.629  -1.465   3.568  1.00  0.00     0.078 C
HETATM    7  N4  UNL     1       1.404  -3.144   5.374  1.00  0.00    -0.029 N
ATOM      8  H41 UNL     1       1.801  -2.362   5.896  1.00  0.00     0.281 HD
ATOM      9  H42 UNL     1       0.540  -3.190   5.914  1.00  0.00     0.281 HD
ENDROOT
BRANCH   1  10
HETATM   10  C4  UNL     1       1.467  -5.551   4.849  1.00  0.00     0.167 C
BRANCH  10  11
HETATM   11  N2  UNL     1       2.331  -6.324   3.992  1.00  0.00    -0.341 N
HETATM   12  C3  UNL     1       2.043  -7.720   3.739  1.00  0.00     0.316 C
HETATM   13  N1  UNL     1       2.880  -8.483   2.908  1.00  0.00    -0.344 N
HETATM   14  O1  UNL     1       1.031  -8.237   4.277  1.00  0.00    -0.247 OA
ATOM     15  H1  UNL     1       3.695  -8.038   2.485  1.00  0.00     0.164 HD
ATOM     16  H2  UNL     1       3.146  -5.886   3.563  1.00  0.00     0.164 HD
BRANCH  13  17
HETATM   17  C2  UNL     1       2.622  -9.878   2.634  1.00  0.00     0.120 C
HETATM   18  C1  UNL     1       3.158 -10.321   1.304  1.00  0.00     0.026 C
ENDBRANCH  13  17
ENDBRANCH  10  11
ENDBRANCH   1  10
BRANCH   1  19
HETATM   19  C6  UNL     1       2.886  -4.727   6.611  1.00  0.00     0.315 C
BRANCH  19  20
HETATM   20  N3  UNL     1       3.685  -5.908   6.691  1.00  0.00     0.091 N
HETATM   21  C7  UNL     1       3.364  -6.446   8.045  1.00  0.00     0.273 C
HETATM   22  C8  UNL     1       4.273  -5.874   9.107  1.00  0.00     0.037 C
HETATM   23  C9  UNL     1       5.547  -6.720   9.000  1.00  0.00     0.013 C
HETATM   24  C12 UNL     1       5.836  -6.782   7.530  1.00  0.00     0.037 C
HETATM   25  C13 UNL     1       5.118  -5.653   6.764  1.00  0.00     0.273 C
BRANCH  23  26
HETATM   26  C10 UNL     1       6.659  -6.247   9.861  1.00  0.00     0.171 C
BRANCH  26  27
HETATM   27  O2  UNL     1       7.778  -7.067   9.738  1.00  0.00    -0.396 OA
HETATM   28  C11 UNL     1       7.690  -8.233  10.464  1.00  0.00     0.201 C
ENDBRANCH  26  27
ENDBRANCH  23  26
ENDBRANCH  19  20
ENDBRANCH   1  19
TORSDOF 7
ENDMDL