MODEL 2
REMARK VINA RESULT: -8.034440612      1.127      1.363
REMARK  8 active torsions:
REMARK  status: ('A' for Active; 'I' for Inactive)
REMARK    1  A    between atoms: C4_4  and  C5_5
REMARK    2  A    between atoms: C5_5  and  N1_6
REMARK       I    between atoms: N1_6  and  C6_8
REMARK       I    between atoms: C6_8  and  N3_13
REMARK    3  A    between atoms: N2_9  and  O1_11
REMARK    4  A    between atoms: N3_13  and  C7_14
REMARK    5  A    between atoms: N3_13  and  C13_25
REMARK    6  A    between atoms: C7_14  and  C8_15
REMARK    7  A    between atoms: C8_15  and  N4_16
REMARK    8  A    between atoms: N4_16  and  C9_18
ROOT
HETATM    1  N1  UNL     1       3.047  -4.995   6.548  1.00  0.00    -0.221 N
ATOM      2  H1  UNL     1       3.694  -4.241   6.775  1.00  0.00     0.178 HD
HETATM    3  C6  UNL     1       1.833  -4.647   5.931  1.00  0.00     0.696 C
HETATM    4  N2  UNL     1       0.857  -4.337   6.762  1.00  0.00    -0.099 N
ATOM      5  H2  UNL     1      -0.056  -4.075   6.392  1.00  0.00     0.213 HD
HETATM    6  N3  UNL     1       1.494  -4.590   4.583  1.00  0.00    -0.207 N
ENDROOT
BRANCH   6   7
HETATM    7  C7  UNL     1       0.929  -3.475   3.916  1.00  0.00     0.186 C
BRANCH   7   8
HETATM    8  C8  UNL     1       1.677  -2.206   3.836  1.00  0.00     0.078 C
BRANCH   8   9
HETATM    9  N4  UNL     1       1.143  -1.097   4.517  1.00  0.00    -0.374 N
ATOM     10  H4  UNL     1       0.708  -1.195   5.434  1.00  0.00     0.161 HD
BRANCH   9  11
HETATM   11  C9  UNL     1       1.238   0.177   3.868  1.00  0.00     0.237 C
HETATM   12  C10 UNL     1       0.065   0.412   2.995  1.00  0.00     0.167 C
HETATM   13  N5  UNL     1      -0.348   1.777   2.822  1.00  0.00    -0.415 N
HETATM   14  C11 UNL     1       0.616   2.762   3.217  1.00  0.00     0.140 C
ATOM     15  H5  UNL     1      -1.262   2.027   2.446  1.00  0.00     0.153 HD
HETATM   16  C12 UNL     1       1.336   2.427   4.487  1.00  0.00     0.189 C
HETATM   17  O2  UNL     1       1.259   1.130   4.882  1.00  0.00    -0.364 OA
ENDBRANCH   9  11
ENDBRANCH   8   9
ENDBRANCH   7   8
ENDBRANCH   6   7
BRANCH   6  18
HETATM   18  C13 UNL     1       1.701  -5.775   3.735  1.00  0.00     0.102 C
HETATM   19  C14 UNL     1       1.322  -5.540   2.316  1.00  0.00     0.026 C
HETATM   20  C15 UNL     1       1.640  -6.781   1.499  1.00  0.00     0.002 C
HETATM   21  C16 UNL     1       0.787  -7.937   2.047  1.00  0.00     0.000 C
HETATM   22  C17 UNL     1       1.292  -8.174   3.453  1.00  0.00     0.002 C
HETATM   23  C18 UNL     1       0.995  -6.974   4.309  1.00  0.00     0.026 C
ENDBRANCH   6  18
BRANCH   1  24
HETATM   24  C5  UNL     1       3.448  -6.349   6.886  1.00  0.00     0.165 C
BRANCH  24  25
HETATM   25  C4  UNL     1       3.901  -6.443   8.303  1.00  0.00    -0.005 C
HETATM   26  C2  UNL     1       5.187  -6.472   8.565  1.00  0.00    -0.090 C
HETATM   27  C1  UNL     1       5.666  -6.568   9.963  1.00  0.00     0.042 C
HETATM   28  C3  UNL     1       6.200  -6.400   7.468  1.00  0.00     0.042 C
ENDBRANCH  24  25
ENDBRANCH   1  24
BRANCH   4  29
HETATM   29  O1  UNL     1       1.051  -4.363   8.087  1.00  0.00    -0.276 OA
ATOM     30  H1  UNL     1       1.439  -3.622   8.537  1.00  0.00     0.245 HD
ENDBRANCH   4  29
TORSDOF 8
ENDMDL