MODEL 5
REMARK VINA RESULT: -7.476687124      1.671      7.874
REMARK  9 active torsions:
REMARK  status: ('A' for Active; 'I' for Inactive)
REMARK    1  A    between atoms: C2_2  and  C3_3
REMARK    2  A    between atoms: C3_3  and  C4_4
REMARK    3  A    between atoms: C4_4  and  N1_5
REMARK    4  A    between atoms: C4_4  and  C13_20
REMARK    5  A    between atoms: N1_5  and  C5_7
REMARK    6  A    between atoms: C5_7  and  O1_8
REMARK    7  A    between atoms: C5_7  and  C6_10
REMARK       I    between atoms: N2_14  and  C10_15
REMARK    8  A    between atoms: C10_15  and  O3_17
REMARK       I    between atoms: C13_20  and  N3_22
REMARK    9  A    between atoms: N3_22  and  C14_24
ROOT
HETATM    1  N1  UNL     1       6.216  -6.721   7.938  1.00  0.00    -0.384 N
ATOM      2  H1  UNL     1       5.883  -7.681   8.026  1.00  0.00     0.156 HD
ENDROOT
BRANCH   1   3
HETATM    3  C4  UNL     1       5.264  -5.705   7.823  1.00  0.00     0.174 C
BRANCH   3   4
HETATM    4  C3  UNL     1       4.299  -5.611   8.992  1.00  0.00     0.060 C
BRANCH   4   5
HETATM    5  C2  UNL     1       3.568  -6.909   9.170  1.00  0.00    -0.034 C
HETATM    6  C1  UNL     1       2.251  -6.995   9.008  1.00  0.00     0.007 C
ENDBRANCH   4   5
ENDBRANCH   3   4
BRANCH   3   7
HETATM    7  C13 UNL     1       4.517  -5.716   6.521  1.00  0.00     0.241 C
HETATM    8  O4  UNL     1       4.868  -6.452   5.567  1.00  0.00    -0.271 OA
HETATM    9  N3  UNL     1       3.374  -4.893   6.307  1.00  0.00    -0.351 N
ATOM     10  H3  UNL     1       3.071  -4.288   7.070  1.00  0.00     0.163 HD
BRANCH   9  11
HETATM   11  C14 UNL     1       2.626  -4.861   5.091  1.00  0.00     0.022 C
HETATM   12  C15 UNL     1       3.326  -4.162   3.949  1.00  0.00     0.037 C
HETATM   13  C16 UNL     1       1.294  -4.146   5.344  1.00  0.00     0.037 C
HETATM   14  C17 UNL     1       2.302  -6.270   4.587  1.00  0.00     0.037 C
ENDBRANCH   9  11
ENDBRANCH   3   7
ENDBRANCH   1   3
BRANCH   1  15
HETATM   15  C5  UNL     1       7.576  -6.503   7.938  1.00  0.00     0.219 C
BRANCH  15  16
HETATM   16  O1  UNL     1       8.378  -7.072   6.994  1.00  0.00    -0.377 OA
ATOM     17  H1  UNL     1       9.282  -7.289   7.187  1.00  0.00     0.212 HD
ENDBRANCH  15  16
BRANCH  15  18
HETATM   18  C6  UNL     1       8.144  -6.970   9.298  1.00  0.00     0.052 C
HETATM   19  C7  UNL     1       7.134  -7.810  10.001  1.00  0.00     0.012 C
HETATM   20  C8  UNL     1       7.728  -8.728  11.003  1.00  0.00     0.020 C
HETATM   21  C9  UNL     1       9.180  -8.492  11.323  1.00  0.00     0.128 C
HETATM   22  N2  UNL     1       9.970  -8.217  10.157  1.00  0.00    -0.328 N
HETATM   23  C10 UNL     1      11.375  -8.309  10.228  1.00  0.00     0.362 C
HETATM   24  C12 UNL     1       9.327  -7.851   8.922  1.00  0.00     0.137 C
HETATM   25  O2  UNL     1      11.941  -8.635  11.319  1.00  0.00    -0.238 OA
BRANCH  23  26
HETATM   26  O3  UNL     1      12.208  -8.056   9.143  1.00  0.00    -0.309 OA
HETATM   27  C11 UNL     1      12.709  -9.135   8.355  1.00  0.00     0.215 C
ENDBRANCH  23  26
ENDBRANCH  15  18
ENDBRANCH   1  15
TORSDOF 9
ENDMDL