MODEL 5
REMARK VINA RESULT: -9.141718962      1.767      2.720
REMARK  7 active torsions:
REMARK  status: ('A' for Active; 'I' for Inactive)
REMARK    1  A    between atoms: C2_2  and  C3_3
REMARK    2  A    between atoms: C2_2  and  N2_18
REMARK    3  A    between atoms: C3_3  and  C4_4
REMARK    4  A    between atoms: C6_6  and  N1_7
REMARK    5  A    between atoms: C10_13  and  O2_14
REMARK       I    between atoms: N2_18  and  C12_20
REMARK    6  A    between atoms: C12_20  and  C13_22
REMARK    7  A    between atoms: C13_22  and  C14_23
ROOT
HETATM    1  C4  UNL     1       4.334  -5.939   6.004  1.00  0.00     0.129 C
HETATM    2  C5  UNL     1       3.427  -4.797   6.462  1.00  0.00     0.086 C
HETATM    3  C6  UNL     1       2.300  -5.092   5.434  1.00  0.00     0.013 C
HETATM    4  C11 UNL     1       2.238  -6.550   5.532  1.00  0.00     0.220 C
HETATM    5  O3  UNL     1       3.469  -7.014   6.070  1.00  0.00    -0.380 OA
ENDROOT
BRANCH   1   6
HETATM    6  C3  UNL     1       5.618  -6.027   6.647  1.00  0.00     0.057 C
BRANCH   6   7
HETATM    7  C2  UNL     1       5.802  -6.706   7.942  1.00  0.00     0.082 C
HETATM    8  C1  UNL     1       5.121  -6.133   9.127  1.00  0.00     0.032 C
BRANCH   7   9
HETATM    9  N2  UNL     1       7.249  -6.683   8.210  1.00  0.00    -0.357 N
HETATM   10  C12 UNL     1       7.920  -7.673   8.945  1.00  0.00     0.218 C
HETATM   11  O4  UNL     1       7.328  -8.661   9.434  1.00  0.00    -0.274 OA
ATOM     12  H2  UNL     1       7.795  -5.905   7.841  1.00  0.00     0.162 HD
BRANCH  10  13
HETATM   13  C13 UNL     1       9.376  -7.553   9.155  1.00  0.00     0.107 C
BRANCH  13  14
HETATM   14  C14 UNL     1      10.033  -8.885   9.045  1.00  0.00    -0.002 C
HETATM   15  C15 UNL     1      10.153  -9.431   7.660  1.00  0.00     0.005 C
HETATM   16  C16 UNL     1      11.448 -10.236   7.640  1.00  0.00     0.001 C
HETATM   17  C17 UNL     1      11.969 -10.201   9.082  1.00  0.00     0.005 C
HETATM   18  C18 UNL     1      11.465  -8.844   9.533  1.00  0.00    -0.014 C
HETATM   19  C19 UNL     1      11.515  -8.651  11.014  1.00  0.00     0.010 C
ENDBRANCH  13  14
ENDBRANCH  10  13
ENDBRANCH   7   9
ENDBRANCH   6   7
ENDBRANCH   1   6
BRANCH   3  20
HETATM   20  N1  UNL     1       1.259  -4.240   5.382  1.00  0.00    -0.364 N
HETATM   21  C7  UNL     1       0.936  -3.200   4.571  1.00  0.00     0.041 C
HETATM   22  C8  UNL     1       0.691  -3.398   3.100  1.00  0.00     0.223 C
HETATM   23  C10 UNL     1       1.751  -1.928   4.611  1.00  0.00     0.189 C
HETATM   24  O1  UNL     1       0.330  -2.065   2.751  1.00  0.00    -0.383 OA
HETATM   25  C9  UNL     1       1.342  -1.282   3.303  1.00  0.00     0.205 C
ATOM     26  H1  UNL     1       0.563  -4.412   6.109  1.00  0.00     0.165 HD
BRANCH  23  27
HETATM   27  O2  UNL     1       1.318  -1.059   5.623  1.00  0.00    -0.388 OA
ATOM     28  H2  UNL     1       1.352  -1.467   6.480  1.00  0.00     0.210 HD
ENDBRANCH  23  27
ENDBRANCH   3  20
TORSDOF 7
ENDMDL