MODEL 3
REMARK VINA RESULT: -5.163362214      2.975      4.708
REMARK  1 active torsions:
REMARK  status: ('A' for Active; 'I' for Inactive)
REMARK       I    between atoms: N1_1  and  C1_5
REMARK       I    between atoms: C1_5  and  N2_6
REMARK       I    between atoms: C1_5  and  N3_10
REMARK    1  A    between atoms: N3_10  and  C2_12
ROOT
HETATM    1  C2  UNL     1     -35.697 -30.413  -6.942  1.00  0.00     0.685 A
HETATM    2  N4  UNL     1     -36.485 -31.429  -7.317  1.00  0.00    -0.155 N
ATOM      3  H4  UNL     1     -36.147 -32.137  -7.968  1.00  0.00     0.187 HD
HETATM    4  C3  UNL     1     -37.742 -31.498  -6.813  1.00  0.00     0.279 A
HETATM    5  O1  UNL     1     -38.514 -32.458  -7.156  1.00  0.00    -0.266 OA
HETATM    6  C4  UNL     1     -38.215 -30.550  -5.930  1.00  0.00     0.145 A
HETATM    7  C5  UNL     1     -39.483 -30.576  -5.391  1.00  0.00     0.265 A
HETATM    8  O2  UNL     1     -40.249 -31.513  -5.720  1.00  0.00    -0.267 OA
HETATM    9  N5  UNL     1     -39.873 -29.602  -4.525  1.00  0.00    -0.319 N
ATOM     10  H5  UNL     1     -40.814 -29.637  -4.135  1.00  0.00     0.169 HD
HETATM   11  C6  UNL     1     -39.057 -28.596  -4.169  1.00  0.00     0.184 A
HETATM   12  N6  UNL     1     -37.815 -28.551  -4.684  1.00  0.00    -0.337 N
ATOM     13  H6  UNL     1     -37.186 -27.793  -4.420  1.00  0.00     0.168 HD
HETATM   14  C7  UNL     1     -37.388 -29.511  -5.554  1.00  0.00     0.143 A
HETATM   15  N7  UNL     1     -36.158 -29.492  -6.083  1.00  0.00    -0.175 N
ATOM     16  H7  UNL     1     -35.533 -28.731  -5.816  1.00  0.00     0.186 HD
ENDROOT
BRANCH   1  17
HETATM   17  N3  UNL     1     -34.528 -30.322  -7.391  1.00  0.00    -0.173 N
HETATM   18  C1  UNL     1     -33.809 -31.134  -8.289  1.00  0.00     0.494 C
HETATM   19  N1  UNL     1     -34.457 -31.081  -9.588  1.00  0.00    -0.032 N
HETATM   20  N2  UNL     1     -33.609 -32.493  -7.895  1.00  0.00    -0.032 N
ATOM     21  H13 UNL     1     -33.944 -31.611 -10.292  1.00  0.00     0.278 HD
ATOM     22  H12 UNL     1     -35.326 -31.615  -9.603  1.00  0.00     0.278 HD
ATOM     23  H11 UNL     1     -34.600 -30.112  -9.869  1.00  0.00     0.278 HD
ATOM     24  H23 UNL     1     -34.478 -33.028  -7.910  1.00  0.00     0.278 HD
ATOM     25  H22 UNL     1     -33.096 -33.024  -8.599  1.00  0.00     0.278 HD
ATOM     26  H21 UNL     1     -33.154 -32.530  -6.982  1.00  0.00     0.278 HD
ATOM     27  H3  UNL     1     -34.006 -29.517  -7.044  1.00  0.00     0.181 HD
ENDBRANCH   1  17
TORSDOF 1
ENDMDL