MODEL 2
REMARK VINA RESULT: -5.300798435      2.542      5.497
REMARK  4 active torsions:
REMARK  status: ('A' for Active; 'I' for Inactive)
REMARK    1  A    between atoms: N1_1  and  N2_4
REMARK    2  A    between atoms: N2_4  and  C1_6
REMARK    3  A    between atoms: C2_11  and  C3_12
REMARK    4  A    between atoms: C3_12  and  N5_13
ROOT
HETATM    1  C1  UNL     1     -41.712 -29.544  -0.176  1.00  0.00     0.712 A
HETATM    2  N3  UNL     1     -42.574 -28.810  -0.881  1.00  0.00    -0.129 N
ATOM      3  H3  UNL     1     -43.273 -28.170  -0.503  1.00  0.00     0.205 HD
HETATM    4  N4  UNL     1     -42.356 -29.067  -2.159  1.00  0.00    -0.273 N
ATOM      5  H4  UNL     1     -42.870 -28.648  -2.936  1.00  0.00     0.189 HD
HETATM    6  C2  UNL     1     -41.358 -29.961  -2.287  1.00  0.00     0.132 A
HETATM    7  N8  UNL     1     -40.950 -30.264  -1.044  1.00  0.00    -0.175 N
ATOM      8  H8  UNL     1     -40.205 -30.915  -0.796  1.00  0.00     0.185 HD
ENDROOT
BRANCH   6   9
HETATM    9  C3  UNL     1     -40.805 -30.511  -3.548  1.00  0.00     0.228 C
BRANCH   9  10
HETATM   10  N5  UNL     1     -39.563 -29.877  -3.837  1.00  0.00    -0.239 N
HETATM   11  N6  UNL     1     -38.357 -30.547  -3.624  1.00  0.00    -0.133 NA
HETATM   12  C4  UNL     1     -37.605 -30.583  -4.833  1.00  0.00     0.155 C
HETATM   13  C5  UNL     1     -37.471 -29.286  -5.541  1.00  0.00     0.142 C
HETATM   14  N7  UNL     1     -38.243 -28.207  -4.960  1.00  0.00    -0.341 N
HETATM   15  C6  UNL     1     -39.475 -28.552  -4.345  1.00  0.00     0.334 C
ATOM     16  H7  UNL     1     -37.916 -27.241  -4.992  1.00  0.00     0.164 HD
HETATM   17  O1  UNL     1     -40.443 -27.759  -4.242  1.00  0.00    -0.246 OA
ENDBRANCH   9  10
ENDBRANCH   6   9
BRANCH   1  18
HETATM   18  N2  UNL     1     -41.558 -29.618   1.113  1.00  0.00    -0.137 N
ATOM     19  H2  UNL     1     -40.688 -29.951   1.529  1.00  0.00     0.205 HD
BRANCH  18  20
HETATM   20  N1  UNL     1     -42.640 -29.218   1.904  1.00  0.00    -0.331 N
ATOM     21  H12 UNL     1     -43.392 -29.871   2.124  1.00  0.00     0.177 HD
ATOM     22  H11 UNL     1     -42.634 -28.255   2.242  1.00  0.00     0.177 HD
ENDBRANCH  18  20
ENDBRANCH   1  18
TORSDOF 4
ENDMDL