MODEL 4
REMARK VINA RESULT: -5.277582387      3.299      5.284
REMARK  3 active torsions:
REMARK  status: ('A' for Active; 'I' for Inactive)
REMARK       I    between atoms: C1_4  and  N3_6
REMARK    1  A    between atoms: N3_6  and  N4_8
REMARK    2  A    between atoms: N4_8  and  C2_9
REMARK    3  A    between atoms: C2_9  and  C3_10
ROOT
HETATM    1  C3  UNL     1     -39.927 -29.611  -3.667  1.00  0.00     0.136 C
HETATM    2  N5  UNL     1     -39.599 -30.904  -3.846  1.00  0.00    -0.302 N
ATOM      3  H5  UNL     1     -40.265 -31.573  -3.459  1.00  0.00     0.171 HD
HETATM    4  C4  UNL     1     -38.526 -31.457  -4.457  1.00  0.00     0.328 C
HETATM    5  O1  UNL     1     -38.623 -32.682  -4.640  1.00  0.00    -0.247 OA
HETATM    6  N6  UNL     1     -37.438 -30.804  -4.851  1.00  0.00    -0.260 N
ATOM      7  H6  UNL     1     -36.607 -31.379  -4.991  1.00  0.00     0.175 HD
HETATM    8  C5  UNL     1     -37.280 -29.487  -5.089  1.00  0.00     0.331 C
HETATM    9  O2  UNL     1     -36.193 -29.193  -5.648  1.00  0.00    -0.246 OA
HETATM   10  N7  UNL     1     -38.113 -28.469  -4.815  1.00  0.00    -0.273 N
ATOM     11  H7  UNL     1     -37.752 -27.528  -4.973  1.00  0.00     0.173 HD
HETATM   12  C6  UNL     1     -39.373 -28.561  -4.353  1.00  0.00     0.278 C
HETATM   13  O3  UNL     1     -40.167 -27.610  -4.545  1.00  0.00    -0.265 OA
ENDROOT
BRANCH   1  14
HETATM   14  C2  UNL     1     -40.947 -29.336  -2.660  1.00  0.00     0.244 C
BRANCH  14  15
HETATM   15  N4  UNL     1     -42.066 -29.075  -2.858  1.00  0.00    -0.334 NA
BRANCH  15  16
HETATM   16  N3  UNL     1     -43.274 -28.741  -3.110  1.00  0.00    -0.207 N
HETATM   17  C1  UNL     1     -44.132 -29.611  -3.886  1.00  0.00     0.211 C
HETATM   18  N1  UNL     1     -43.760 -29.920  -5.044  1.00  0.00    -0.372 N
HETATM   19  N2  UNL     1     -45.316 -30.057  -3.314  1.00  0.00    -0.062 NA
ATOM     20  H12 UNL     1     -44.364 -30.533  -5.590  1.00  0.00     0.158 HD
ATOM     21  H11 UNL     1     -42.890 -29.593  -5.464  1.00  0.00     0.158 HD
ATOM     22  H3  UNL     1     -43.637 -27.853  -2.761  1.00  0.00     0.204 HD
ENDBRANCH  15  16
ENDBRANCH  14  15
ENDBRANCH   1  14
TORSDOF 3
ENDMDL