MODEL 1
REMARK VINA RESULT: -5.155856115      0.000      0.000
REMARK  3 active torsions:
REMARK  status: ('A' for Active; 'I' for Inactive)
REMARK    1  A    between atoms: N1_1  and  C1_4
REMARK    2  A    between atoms: N3_9  and  C3_10
REMARK    3  A    between atoms: C3_10  and  C4_11
ROOT
HETATM    1  C1  UNL     1     -37.334 -29.322  -5.553  1.00  0.00     0.683 A
HETATM    2  N2  UNL     1     -38.112 -28.373  -4.971  1.00  0.00    -0.141 N
ATOM      3  H2  UNL     1     -37.721 -27.476  -4.683  1.00  0.00     0.189 HD
HETATM    4  C2  UNL     1     -39.405 -28.656  -4.786  1.00  0.00     0.348 A
HETATM    5  O1  UNL     1     -40.154 -27.814  -4.254  1.00  0.00    -0.245 OA
HETATM    6  N3  UNL     1     -39.973 -29.816  -5.144  1.00  0.00    -0.227 N
HETATM    7  C7  UNL     1     -39.190 -30.743  -5.719  1.00  0.00     0.348 A
HETATM    8  O2  UNL     1     -39.572 -31.875  -6.106  1.00  0.00    -0.245 OA
HETATM    9  N7  UNL     1     -37.868 -30.499  -5.926  1.00  0.00    -0.141 N
ATOM     10  H7  UNL     1     -37.281 -31.209  -6.363  1.00  0.00     0.189 HD
ENDROOT
BRANCH   6  11
HETATM   11  C3  UNL     1     -41.325 -30.061  -4.909  1.00  0.00     0.106 C
BRANCH  11  12
HETATM   12  C4  UNL     1     -41.859 -30.551  -3.658  1.00  0.00     0.141 C
HETATM   13  C5  UNL     1     -40.967 -31.405  -2.786  1.00  0.00     0.152 C
HETATM   14  N4  UNL     1     -41.518 -31.176  -1.421  1.00  0.00    -0.362 N
HETATM   15  C6  UNL     1     -42.104 -30.006  -1.416  1.00  0.00     0.184 C
ATOM     16  H4  UNL     1     -41.450 -31.818  -0.630  1.00  0.00     0.162 HD
HETATM   17  N5  UNL     1     -42.746 -29.445  -0.286  1.00  0.00    -0.064 NA
HETATM   18  N6  UNL     1     -41.988 -29.415  -2.719  1.00  0.00    -0.354 N
ATOM     19  H6  UNL     1     -41.992 -28.421  -2.949  1.00  0.00     0.163 HD
ENDBRANCH  11  12
ENDBRANCH   6  11
BRANCH   1  20
HETATM   20  N1  UNL     1     -36.069 -29.132  -5.770  1.00  0.00    -0.234 N
ATOM     21  H12 UNL     1     -35.778 -28.230  -6.148  1.00  0.00     0.174 HD
ATOM     22  H11 UNL     1     -35.376 -29.852  -5.573  1.00  0.00     0.174 HD
ENDBRANCH   1  20
TORSDOF 3
ENDMDL