MODEL 4
REMARK VINA RESULT: -5.415854830      1.745      1.745
REMARK  2 active torsions:
REMARK  status: ('A' for Active; 'I' for Inactive)
REMARK    1  A    between atoms: N3_4  and  N4_6
REMARK    2  A    between atoms: C2_8  and  C3_9
ROOT
HETATM    1  C3  UNL     1     -39.286 -30.124  -4.264  1.00  0.00     0.090 A
HETATM    2  C4  UNL     1     -38.324 -31.062  -4.580  1.00  0.00     0.137 A
HETATM    3  N5  UNL     1     -38.597 -32.423  -4.298  1.00  0.00    -0.081 NA
HETATM    4  N6  UNL     1     -37.188 -30.633  -5.134  1.00  0.00    -0.296 N
ATOM      5  H6  UNL     1     -36.459 -31.305  -5.378  1.00  0.00     0.171 HD
HETATM    6  C5  UNL     1     -36.994 -29.324  -5.376  1.00  0.00     0.328 A
HETATM    7  O1  UNL     1     -35.895 -28.947  -5.907  1.00  0.00    -0.247 OA
HETATM    8  N7  UNL     1     -37.907 -28.379  -5.082  1.00  0.00    -0.275 N
ATOM      9  H7  UNL     1     -37.732 -27.392  -5.275  1.00  0.00     0.173 HD
HETATM   10  C6  UNL     1     -39.059 -28.792  -4.522  1.00  0.00     0.264 A
HETATM   11  O2  UNL     1     -39.932 -27.931  -4.238  1.00  0.00    -0.267 OA
ENDROOT
BRANCH   1  12
HETATM   12  C2  UNL     1     -40.541 -30.547  -3.659  1.00  0.00     0.127 C
HETATM   13  N4  UNL     1     -40.750 -30.499  -2.404  1.00  0.00    -0.309 N
ATOM     14  H4  UNL     1     -40.010 -30.152  -1.794  1.00  0.00     0.186 HD
BRANCH  13  15
HETATM   15  N3  UNL     1     -41.957 -30.906  -1.835  1.00  0.00    -0.276 N
HETATM   16  C1  UNL     1     -42.778 -30.103  -1.263  1.00  0.00     0.215 C
HETATM   17  N1  UNL     1     -42.536 -28.707  -1.153  1.00  0.00    -0.065 NA
HETATM   18  N2  UNL     1     -43.977 -30.666  -0.725  1.00  0.00    -0.065 NA
ATOM     19  H3  UNL     1     -42.200 -31.896  -1.876  1.00  0.00     0.189 HD
ENDBRANCH  13  15
ENDBRANCH   1  12
TORSDOF 2
ENDMDL