MODEL 5
REMARK VINA RESULT: -4.773525488      2.900      4.367
REMARK  4 active torsions:
REMARK  status: ('A' for Active; 'I' for Inactive)
REMARK    1  A    between atoms: C5_13  and  C6_14
REMARK    2  A    between atoms: C6_14  and  C7_15
REMARK    3  A    between atoms: C7_15  and  N4_16
REMARK    4  A    between atoms: C7_15  and  N5_20
ROOT
HETATM    1  N1  UNL     1     -39.723 -31.932  -6.517  1.00  0.00    -0.082 NA
HETATM    2  C1  UNL     1     -38.356 -31.629  -6.758  1.00  0.00     0.131 C
HETATM    3  N2  UNL     1     -37.843 -32.079  -7.937  1.00  0.00    -0.307 N
ATOM      4  H2  UNL     1     -38.511 -32.522  -8.568  1.00  0.00     0.170 HD
HETATM    5  C2  UNL     1     -36.573 -32.018  -8.382  1.00  0.00     0.315 C
HETATM    6  O1  UNL     1     -36.337 -32.749  -9.376  1.00  0.00    -0.262 OA
HETATM    7  C3  UNL     1     -35.555 -31.253  -7.863  1.00  0.00     0.316 C
HETATM    8  O2  UNL     1     -34.600 -31.042  -8.641  1.00  0.00    -0.262 OA
HETATM    9  N3  UNL     1     -35.419 -30.693  -6.650  1.00  0.00    -0.285 N
ATOM     10  H3  UNL     1     -34.541 -30.204  -6.475  1.00  0.00     0.172 HD
HETATM   11  C4  UNL     1     -36.318 -30.702  -5.629  1.00  0.00     0.258 C
HETATM   12  O3  UNL     1     -35.866 -30.507  -4.478  1.00  0.00    -0.267 OA
HETATM   13  C5  UNL     1     -37.679 -30.911  -5.783  1.00  0.00     0.055 C
ENDROOT
BRANCH  13  14
HETATM   14  C6  UNL     1     -38.517 -30.262  -4.758  1.00  0.00     0.110 C
BRANCH  14  15
HETATM   15  C7  UNL     1     -38.782 -28.807  -5.083  1.00  0.00     0.382 C
BRANCH  15  16
HETATM   16  N4  UNL     1     -39.584 -28.257  -4.012  1.00  0.00    -0.050 N
ATOM     17  H43 UNL     1     -39.190 -27.401  -3.621  1.00  0.00     0.276 HD
ATOM     18  H42 UNL     1     -40.465 -27.861  -4.339  1.00  0.00     0.276 HD
ATOM     19  H41 UNL     1     -39.712 -28.989  -3.314  1.00  0.00     0.276 HD
ENDBRANCH  15  16
BRANCH  15  20
HETATM   20  N5  UNL     1     -37.540 -28.054  -5.155  1.00  0.00    -0.050 N
ATOM     21  H53 UNL     1     -37.176 -27.839  -4.227  1.00  0.00     0.276 HD
ATOM     22  H52 UNL     1     -36.770 -28.631  -5.494  1.00  0.00     0.276 HD
ATOM     23  H51 UNL     1     -37.655 -27.212  -5.719  1.00  0.00     0.276 HD
ENDBRANCH  15  20
ENDBRANCH  14  15
ENDBRANCH  13  14
TORSDOF 4
ENDMDL