MODEL 3
REMARK VINA RESULT: -5.474099380      0.856      1.268
REMARK  3 active torsions:
REMARK  status: ('A' for Active; 'I' for Inactive)
REMARK    1  A    between atoms: N1_1  and  C1_4
REMARK    2  A    between atoms: C2_7  and  C3_8
REMARK    3  A    between atoms: C3_8  and  N3_9
ROOT
HETATM    1  C3  UNL     1     -41.220 -30.255  -4.480  1.00  0.00     0.217 C
ENDROOT
BRANCH   1   2
HETATM    2  C2  UNL     1     -41.448 -30.291  -3.023  1.00  0.00     0.131 A
HETATM    3  N2  UNL     1     -41.867 -29.304  -2.228  1.00  0.00    -0.177 N
HETATM    4  C1  UNL     1     -41.942 -29.764  -0.944  1.00  0.00     0.691 A
ATOM      5  H2  UNL     1     -42.094 -28.357  -2.531  1.00  0.00     0.185 HD
HETATM    6  N7  UNL     1     -41.560 -31.040  -0.990  1.00  0.00    -0.131 N
HETATM    7  N6  UNL     1     -41.260 -31.367  -2.244  1.00  0.00    -0.273 N
ATOM      8  H7  UNL     1     -41.507 -31.668  -0.188  1.00  0.00     0.205 HD
ATOM      9  H6  UNL     1     -40.940 -32.283  -2.560  1.00  0.00     0.189 HD
BRANCH   4  10
HETATM   10  N1  UNL     1     -42.317 -29.037   0.050  1.00  0.00    -0.233 N
ATOM     11  H12 UNL     1     -43.247 -28.733   0.335  1.00  0.00     0.174 HD
ATOM     12  H11 UNL     1     -41.670 -28.644   0.733  1.00  0.00     0.174 HD
ENDBRANCH   4  10
ENDBRANCH   1   2
BRANCH   1  13
HETATM   13  N3  UNL     1     -39.851 -29.933  -4.832  1.00  0.00    -0.244 N
HETATM   14  C4  UNL     1     -38.962 -30.847  -5.261  1.00  0.00     0.334 A
HETATM   15  O1  UNL     1     -39.377 -32.032  -5.351  1.00  0.00    -0.246 OA
HETATM   16  N4  UNL     1     -37.692 -30.545  -5.587  1.00  0.00    -0.260 N
HETATM   17  C5  UNL     1     -37.278 -29.281  -5.483  1.00  0.00     0.332 A
ATOM     18  H4  UNL     1     -37.055 -31.273  -5.909  1.00  0.00     0.175 HD
HETATM   19  O2  UNL     1     -36.084 -29.004  -5.790  1.00  0.00    -0.246 OA
HETATM   20  N5  UNL     1     -38.147 -28.335  -5.053  1.00  0.00    -0.260 N
HETATM   21  C6  UNL     1     -39.422 -28.662  -4.730  1.00  0.00     0.334 A
ATOM     22  H5  UNL     1     -37.838 -27.367  -4.972  1.00  0.00     0.175 HD
HETATM   23  O3  UNL     1     -40.153 -27.713  -4.341  1.00  0.00    -0.246 OA
ENDBRANCH   1  13
TORSDOF 3
ENDMDL