MODEL 5
REMARK VINA RESULT: -4.773703628      2.400      5.862
REMARK  3 active torsions:
REMARK  status: ('A' for Active; 'I' for Inactive)
REMARK    1  A    between atoms: N2_7  and  C4_8
REMARK    2  A    between atoms: C4_8  and  C5_9
REMARK    3  A    between atoms: C5_9  and  O2_10
ROOT
HETATM    1  O1  UNL     1     -46.421 -30.644  -3.652  1.00  0.00    -0.246 OA
HETATM    2  C1  UNL     1     -45.221 -30.353  -3.448  1.00  0.00     0.335 C
HETATM    3  N1  UNL     1     -44.638 -30.735  -2.195  1.00  0.00    -0.341 N
ATOM      4  H1  UNL     1     -45.148 -31.420  -1.636  1.00  0.00     0.164 HD
HETATM    5  C2  UNL     1     -43.368 -30.225  -1.640  1.00  0.00     0.141 C
HETATM    6  C3  UNL     1     -42.980 -29.022  -2.429  1.00  0.00     0.135 C
HETATM    7  N2  UNL     1     -42.323 -29.238  -3.681  1.00  0.00    -0.210 NA
HETATM    8  N5  UNL     1     -43.145 -29.671  -4.698  1.00  0.00    -0.258 N
ATOM      9  H5  UNL     1     -42.760 -29.989  -5.587  1.00  0.00     0.202 HD
HETATM   10  N6  UNL     1     -44.504 -29.661  -4.477  1.00  0.00    -0.241 N
ATOM     11  H6  UNL     1     -45.064 -29.097  -5.117  1.00  0.00     0.193 HD
ENDROOT
BRANCH   7  12
HETATM   12  C4  UNL     1     -41.073 -29.928  -3.550  1.00  0.00     0.189 C
BRANCH  12  13
HETATM   13  C5  UNL     1     -39.960 -29.152  -4.116  1.00  0.00     0.272 C
HETATM   14  C6  UNL     1     -38.762 -29.093  -3.208  1.00  0.00     0.126 C
HETATM   15  N3  UNL     1     -37.768 -28.807  -3.944  1.00  0.00    -0.375 N
HETATM   16  C7  UNL     1     -38.179 -28.662  -5.322  1.00  0.00     0.358 C
ATOM     17  H3  UNL     1     -36.811 -28.695  -3.609  1.00  0.00     0.160 HD
HETATM   18  N4  UNL     1     -39.348 -29.590  -5.338  1.00  0.00    -0.021 N
ATOM     19  H42 UNL     1     -39.142 -30.587  -5.417  1.00  0.00     0.283 HD
ATOM     20  H41 UNL     1     -39.933 -29.578  -6.174  1.00  0.00     0.283 HD
BRANCH  13  21
HETATM   21  O2  UNL     1     -40.387 -27.820  -4.339  1.00  0.00    -0.360 OA
ATOM     22  H2  UNL     1     -39.699 -27.343  -4.788  1.00  0.00     0.213 HD
ENDBRANCH  13  21
ENDBRANCH  12  13
ENDBRANCH   7  12
TORSDOF 3
ENDMDL