MODEL 4
REMARK VINA RESULT: -5.362758860      1.651      1.969
REMARK  4 active torsions:
REMARK  status: ('A' for Active; 'I' for Inactive)
REMARK    1  A    between atoms: N1_1  and  N2_4
REMARK    2  A    between atoms: N6_10  and  N7_12
REMARK    3  A    between atoms: C2_14  and  C3_15
REMARK    4  A    between atoms: N8_20  and  O1_21
ROOT
HETATM    1  N2  UNL     1     -39.217 -29.665  -5.482  1.00  0.00    -0.011 N
HETATM    2  N3  UNL     1     -40.120 -28.702  -5.012  1.00  0.00     0.030 NA
HETATM    3  N4  UNL     1     -39.687 -28.526  -3.687  1.00  0.00     0.008 NA
HETATM    4  N5  UNL     1     -38.288 -28.539  -3.734  1.00  0.00    -0.114 N
ATOM      5  H5  UNL     1     -37.638 -28.070  -3.103  1.00  0.00     0.203 HD
HETATM    6  C1  UNL     1     -37.971 -29.358  -4.868  1.00  0.00     0.743 C
HETATM    7  N6  UNL     1     -36.784 -29.717  -5.222  1.00  0.00    -0.129 N
ATOM      8  H6  UNL     1     -35.978 -29.413  -4.674  1.00  0.00     0.205 HD
ENDROOT
BRANCH   7   9
HETATM    9  N7  UNL     1     -36.595 -30.513  -6.341  1.00  0.00    -0.295 N
HETATM   10  C2  UNL     1     -35.447 -30.556  -6.912  1.00  0.00     0.139 C
ATOM     11  H7  UNL     1     -37.369 -31.066  -6.710  1.00  0.00     0.186 HD
BRANCH  10  12
HETATM   12  C3  UNL     1     -35.249 -31.399  -8.096  1.00  0.00     0.078 A
HETATM   13  C4  UNL     1     -36.280 -32.119  -8.654  1.00  0.00     0.033 A
HETATM   14  C5  UNL     1     -36.083 -32.918  -9.780  1.00  0.00     0.004 A
HETATM   15  C6  UNL     1     -34.827 -32.990 -10.351  1.00  0.00     0.020 A
HETATM   16  C7  UNL     1     -33.817 -32.254  -9.764  1.00  0.00     0.123 A
HETATM   17  N8  UNL     1     -34.038 -31.486  -8.670  1.00  0.00    -0.235 N
BRANCH  17  18
HETATM   18  O1  UNL     1     -33.013 -30.751  -8.091  1.00  0.00    -0.283 OA
ATOM     19  H1  UNL     1     -32.591 -30.097  -8.636  1.00  0.00     0.245 HD
ENDBRANCH  17  18
ENDBRANCH  10  12
ENDBRANCH   7   9
BRANCH   1  20
HETATM   20  N1  UNL     1     -39.420 -30.722  -6.359  1.00  0.00    -0.311 N
ATOM     21  H12 UNL     1     -38.798 -31.526  -6.449  1.00  0.00     0.179 HD
ATOM     22  H11 UNL     1     -40.174 -30.881  -7.028  1.00  0.00     0.179 HD
ENDBRANCH   1  20
TORSDOF 4
ENDMDL