MODEL 2
REMARK VINA RESULT: -5.162233935      2.649      3.171
REMARK  4 active torsions:
REMARK  status: ('A' for Active; 'I' for Inactive)
REMARK    1  A    between atoms: N1_1  and  C1_4
REMARK    2  A    between atoms: C2_7  and  N3_8
REMARK    3  A    between atoms: N4_11  and  N5_12
REMARK    4  A    between atoms: N5_12  and  N6_14
ROOT
HETATM    1  C1  UNL     1     -37.327 -29.400  -5.169  1.00  0.00     0.694 A
HETATM    2  N2  UNL     1     -37.701 -30.656  -4.922  1.00  0.00    -0.021 N
ATOM      3  H2  UNL     1     -37.037 -31.417  -5.069  1.00  0.00     0.203 HD
HETATM    4  C2  UNL     1     -38.932 -30.932  -4.485  1.00  0.00     0.717 A
HETATM    5  N4  UNL     1     -39.795 -29.938  -4.294  1.00  0.00    -0.020 N
HETATM    6  C7  UNL     1     -39.409 -28.682  -4.544  1.00  0.00     0.375 A
HETATM    7  O2  UNL     1     -40.210 -27.731  -4.368  1.00  0.00    -0.243 OA
HETATM    8  N7  UNL     1     -38.182 -28.366  -4.984  1.00  0.00    -0.139 N
ATOM      9  H7  UNL     1     -37.908 -27.401  -5.170  1.00  0.00     0.189 HD
ENDROOT
BRANCH   5  10
HETATM   10  N5  UNL     1     -41.094 -30.137  -3.846  1.00  0.00    -0.237 N
ATOM     11  H5  UNL     1     -41.887 -29.924  -4.451  1.00  0.00     0.203 HD
BRANCH  10  12
HETATM   12  N6  UNL     1     -41.301 -30.631  -2.560  1.00  0.00    -0.208 NA
HETATM   13  C3  UNL     1     -40.955 -29.742  -1.503  1.00  0.00     0.123 C
HETATM   14  C4  UNL     1     -42.143 -29.550  -0.601  1.00  0.00     0.096 C
HETATM   15  C5  UNL     1     -43.142 -30.512  -1.075  1.00  0.00     0.142 C
HETATM   16  O1  UNL     1     -44.185 -30.826  -0.533  1.00  0.00    -0.297 OA
HETATM   17  C6  UNL     1     -42.666 -31.057  -2.357  1.00  0.00     0.193 C
ENDBRANCH  10  12
ENDBRANCH   5  10
BRANCH   4  18
HETATM   18  N3  UNL     1     -39.258 -32.147  -4.263  1.00  0.00    -0.232 N
ATOM     19  H32 UNL     1     -38.639 -32.778  -3.753  1.00  0.00     0.174 HD
ATOM     20  H31 UNL     1     -40.157 -32.491  -4.602  1.00  0.00     0.174 HD
ENDBRANCH   4  18
BRANCH   1  21
HETATM   21  N1  UNL     1     -36.121 -29.141  -5.602  1.00  0.00    -0.234 N
ATOM     22  H12 UNL     1     -35.374 -29.801  -5.383  1.00  0.00     0.174 HD
ATOM     23  H11 UNL     1     -35.936 -28.296  -6.142  1.00  0.00     0.174 HD
ENDBRANCH   1  21
TORSDOF 4
ENDMDL