MODEL 2
REMARK VINA RESULT: -5.135427462      2.307      3.451
REMARK  9 active torsions:
REMARK  status: ('A' for Active; 'I' for Inactive)
REMARK    1  A    between atoms: C2_2  and  N1_3
REMARK    2  A    between atoms: C2_2  and  C3_7
REMARK    3  A    between atoms: C2_2  and  C4_9
REMARK    4  A    between atoms: C4_9  and  C5_10
REMARK    5  A    between atoms: C4_9  and  C11_23
REMARK    6  A    between atoms: C5_10  and  O2_11
REMARK    7  A    between atoms: C5_10  and  N2_13
REMARK    8  A    between atoms: C7_15  and  N3_16
REMARK       I    between atoms: N3_16  and  C8_18
REMARK    9  A    between atoms: C8_18  and  C9_20
ROOT
HETATM    1  C4  UNL     1      12.024  -8.632  18.022  1.00  0.00     0.110 C
ENDROOT
BRANCH   1   2
HETATM    2  C2  UNL     1      10.827  -8.728  17.159  1.00  0.00     0.183 C
HETATM    3  C1  UNL     1      10.838  -9.824  16.124  1.00  0.00     0.054 C
BRANCH   2   4
HETATM    4  N1  UNL     1      10.639  -7.491  16.429  1.00  0.00    -0.064 N
ATOM      5  H13 UNL     1      11.511  -6.999  16.231  1.00  0.00     0.275 HD
ATOM      6  H12 UNL     1      10.352  -7.629  15.460  1.00  0.00     0.275 HD
ATOM      7  H11 UNL     1       9.976  -6.940  16.975  1.00  0.00     0.275 HD
ENDBRANCH   2   4
BRANCH   2   8
HETATM    8  C3  UNL     1       9.570  -8.919  17.960  1.00  0.00     0.270 C
HETATM    9  O1  UNL     1       8.518  -9.182  17.419  1.00  0.00    -0.304 OA
ENDBRANCH   2   8
ENDBRANCH   1   2
BRANCH   1  10
HETATM   10  C5  UNL     1      13.321  -8.953  17.452  1.00  0.00     0.121 C
BRANCH  10  11
HETATM   11  O2  UNL     1      13.892  -7.938  16.860  1.00  0.00    -0.349 OA
ATOM     12  H2  UNL     1      13.594  -7.805  15.968  1.00  0.00     0.219 HD
ENDBRANCH  10  11
BRANCH  10  13
HETATM   13  N2  UNL     1      14.068 -10.117  17.413  1.00  0.00    -0.361 N
HETATM   14  C6  UNL     1      14.550 -11.011  18.495  1.00  0.00     0.151 C
HETATM   15  C7  UNL     1      15.518 -11.664  17.569  1.00  0.00     0.120 C
HETATM   16  C10 UNL     1      14.710 -10.982  16.465  1.00  0.00     0.151 C
BRANCH  15  17
HETATM   17  N3  UNL     1      16.870 -11.191  17.614  1.00  0.00    -0.353 N
HETATM   18  C8  UNL     1      17.956 -12.053  17.918  1.00  0.00     0.228 C
HETATM   19  O3  UNL     1      17.709 -13.263  18.153  1.00  0.00    -0.273 OA
ATOM     20  H3  UNL     1      17.057 -10.206  17.423  1.00  0.00     0.163 HD
BRANCH  18  21
HETATM   21  C9  UNL     1      19.352 -11.575  17.966  1.00  0.00     0.187 C
HETATM   22 BR1  UNL     1      20.293 -12.441  19.418  1.00  0.00    -0.087 Br
ENDBRANCH  18  21
ENDBRANCH  15  17
ENDBRANCH  10  13
ENDBRANCH   1  10
BRANCH   1  23
HETATM   23  C11 UNL     1      12.176  -7.326  18.772  1.00  0.00     0.042 A
HETATM   24  C12 UNL     1      11.311  -6.984  19.890  1.00  0.00     0.051 A
HETATM   25  C13 UNL     1      12.781  -7.286  20.148  1.00  0.00     0.118 A
HETATM   26 CL1  UNL     1      13.788  -5.898  20.619  1.00  0.00    -0.101 Cl
HETATM   27 CL2  UNL     1      13.238  -8.803  20.934  1.00  0.00    -0.101 Cl
ENDBRANCH   1  23
TORSDOF 9
ENDMDL