MODEL 2
REMARK VINA RESULT: -5.395507133      3.568      6.720
REMARK  6 active torsions:
REMARK  status: ('A' for Active; 'I' for Inactive)
REMARK    1  A    between atoms: C2_2  and  C3_3
REMARK    2  A    between atoms: C3_3  and  N1_4
REMARK    3  A    between atoms: N1_4  and  C5_6
REMARK    4  A    between atoms: C6_9  and  N3_11
REMARK       I    between atoms: N3_11  and  C7_13
REMARK    5  A    between atoms: C7_13  and  C8_15
REMARK    6  A    between atoms: N4_21  and  C12_22
ROOT
HETATM    1  C5  UNL     1      14.951 -10.806  18.106  1.00  0.00     0.276 C
HETATM    2  N2  UNL     1      14.625 -10.497  19.458  1.00  0.00    -0.354 N
ATOM      3  H2  UNL     1      15.288 -10.681  20.210  1.00  0.00     0.159 HD
HETATM    4  C6  UNL     1      13.363  -9.929  19.733  1.00  0.00     0.201 C
HETATM    5 CL1  UNL     1      12.404 -11.180  20.620  1.00  0.00    -0.070 Cl
HETATM    6  C11 UNL     1      12.529  -9.508  18.577  1.00  0.00     0.197 C
HETATM    7  N4  UNL     1      12.598 -10.422  17.456  1.00  0.00    -0.340 N
HETATM    8  C15 UNL     1      13.747 -11.260  17.383  1.00  0.00     0.262 C
HETATM    9  O2  UNL     1      13.671 -12.324  16.712  1.00  0.00    -0.269 OA
ENDROOT
BRANCH   4  10
HETATM   10  N3  UNL     1      13.499  -8.835  20.680  1.00  0.00    -0.320 N
HETATM   11  C7  UNL     1      14.334  -7.713  20.507  1.00  0.00     0.227 C
HETATM   12  O1  UNL     1      15.034  -7.591  19.478  1.00  0.00    -0.273 OA
ATOM     13  H3  UNL     1      12.947  -8.883  21.536  1.00  0.00     0.166 HD
BRANCH  11  14
HETATM   14  C8  UNL     1      14.415  -6.642  21.531  1.00  0.00     0.119 A
HETATM   15  C9  UNL     1      13.319  -6.599  22.560  1.00  0.00     0.060 A
HETATM   16  C10 UNL     1      13.435  -5.525  21.517  1.00  0.00     0.126 A
HETATM   17 CL2  UNL     1      12.164  -5.578  20.260  1.00  0.00    -0.101 Cl
HETATM   18 CL3  UNL     1      13.867  -3.917  22.092  1.00  0.00    -0.101 Cl
ENDBRANCH  11  14
ENDBRANCH   4  10
BRANCH   1  19
HETATM   19  N1  UNL     1      16.088 -11.651  17.997  1.00  0.00    -0.369 N
HETATM   20  C4  UNL     1      17.035 -11.289  17.004  1.00  0.00     0.151 C
BRANCH  19  21
HETATM   21  C3  UNL     1      16.534 -12.346  19.116  1.00  0.00     0.060 C
BRANCH  21  22
HETATM   22  C2  UNL     1      17.983 -12.703  19.195  1.00  0.00     0.040 C
HETATM   23  C1  UNL     1      18.493 -13.063  20.550  1.00  0.00     0.010 C
ENDBRANCH  21  22
ENDBRANCH  19  21
ENDBRANCH   1  19
BRANCH   7  24
HETATM   24  C12 UNL     1      11.536 -10.466  16.460  1.00  0.00     0.079 C
HETATM   25  C13 UNL     1      10.232  -9.945  17.069  1.00  0.00     0.032 C
HETATM   26  C14 UNL     1      11.868  -9.662  15.230  1.00  0.00     0.032 C
ENDBRANCH   7  24
TORSDOF 6
ENDMDL