MODEL 3
REMARK VINA RESULT: -4.958453322      3.058      3.933
REMARK  7 active torsions:
REMARK  status: ('A' for Active; 'I' for Inactive)
REMARK    1  A    between atoms: N2_5  and  C3_6
REMARK    2  A    between atoms: C3_6  and  C4_7
REMARK    3  A    between atoms: C4_7  and  O1_8
REMARK    4  A    between atoms: C4_7  and  C5_10
REMARK    5  A    between atoms: C5_10  and  N3_11
REMARK    6  A    between atoms: N3_11  and  C8_14
REMARK    7  A    between atoms: C9_18  and  C10_19
ROOT
HETATM    1  C1  UNL     1      15.159  -6.579  20.543  1.00  0.00     0.055 C
HETATM    2  C2  UNL     1      13.776  -7.105  20.870  1.00  0.00     0.146 C
HETATM    3 BR1  UNL     1      13.859  -8.951  21.438  1.00  0.00    -0.058 Br
HETATM    4  N1  UNL     1      13.095  -6.285  21.831  1.00  0.00    -0.095 NA
HETATM    5  N2  UNL     1      12.358  -5.389  21.062  1.00  0.00    -0.234 N
HETATM    6  N4  UNL     1      12.174  -5.970  19.811  1.00  0.00    -0.291 N
ATOM      7  H4  UNL     1      11.498  -5.647  19.118  1.00  0.00     0.187 HD
HETATM    8  C9  UNL     1      12.963  -6.964  19.642  1.00  0.00     0.051 C
ENDROOT
BRANCH   5   9
HETATM    9  C3  UNL     1      11.870  -4.097  21.476  1.00  0.00     0.198 C
BRANCH   9  10
HETATM   10  C4  UNL     1      12.900  -3.290  22.233  1.00  0.00     0.165 C
BRANCH  10  11
HETATM   11  O1  UNL     1      14.193  -3.558  21.809  1.00  0.00    -0.392 OA
ATOM     12  H1  UNL     1      14.666  -4.108  22.423  1.00  0.00     0.210 HD
ENDBRANCH  10  11
BRANCH  10  13
HETATM   13  C5  UNL     1      12.535  -1.845  22.083  1.00  0.00     0.271 C
BRANCH  13  14
HETATM   14  N3  UNL     1      12.250  -1.184  23.330  1.00  0.00    -0.060 N
HETATM   15  C6  UNL     1      13.092  -0.030  23.549  1.00  0.00     0.273 C
HETATM   16  C7  UNL     1      10.876  -0.667  23.216  1.00  0.00     0.273 C
BRANCH  14  17
HETATM   17  C8  UNL     1      12.278  -2.047  24.464  1.00  0.00     0.350 C
HETATM   18 CL1  UNL     1      13.782  -1.896  25.415  1.00  0.00    -0.101 Cl
ENDBRANCH  14  17
ENDBRANCH  13  14
ENDBRANCH  10  13
ENDBRANCH   9  10
ENDBRANCH   5   9
BRANCH   8  19
HETATM   19  C10 UNL     1      13.069  -7.850  18.420  1.00  0.00     0.142 C
HETATM   20 BR2  UNL     1      11.388  -7.899  17.473  1.00  0.00    -0.090 Br
ENDBRANCH   8  19
TORSDOF 7
ENDMDL