MODEL 2
REMARK VINA RESULT: -6.869704767      5.190      9.241
REMARK  5 active torsions:
REMARK  status: ('A' for Active; 'I' for Inactive)
REMARK    1  A    between atoms: C3_3  and  C4_5
REMARK       I    between atoms: C4_5  and  N1_7
REMARK    2  A    between atoms: N1_7  and  C5_9
REMARK       I    between atoms: N2_13  and  C8_14
REMARK    3  A    between atoms: C8_14  and  C9_16
REMARK    4  A    between atoms: C9_16  and  C10_17
REMARK       I    between atoms: C10_17  and  N3_19
REMARK    5  A    between atoms: C15_25  and  C16_26
ROOT
HETATM    1  C5  UNL     1      12.344  -2.475  22.558  1.00  0.00     0.152 C
HETATM    2  C6  UNL     1      11.662  -2.543  23.899  1.00  0.00     0.213 C
HETATM    3  F1  UNL     1      12.547  -2.349  24.951  1.00  0.00    -0.245 F
HETATM    4  C7  UNL     1      10.636  -1.455  23.851  1.00  0.00     0.166 C
HETATM    5  N2  UNL     1      10.428  -1.138  22.457  1.00  0.00    -0.334 N
HETATM    6  C8  UNL     1       9.209  -0.703  21.875  1.00  0.00     0.229 C
HETATM    7  O2  UNL     1       9.136  -0.452  20.637  1.00  0.00    -0.273 OA
HETATM    8  C15 UNL     1      11.696  -1.351  21.786  1.00  0.00     0.202 C
ENDROOT
BRANCH   6   9
HETATM    9  C9  UNL     1       8.019  -0.541  22.708  1.00  0.00     0.205 C
BRANCH   9  10
HETATM   10  C10 UNL     1       7.133  -1.730  22.756  1.00  0.00     0.228 C
HETATM   11  O3  UNL     1       7.516  -2.815  23.306  1.00  0.00    -0.273 OA
HETATM   12  N3  UNL     1       5.844  -1.620  22.168  1.00  0.00    -0.349 N
HETATM   13  C11 UNL     1       4.875  -2.697  22.140  1.00  0.00     0.129 C
HETATM   14  C14 UNL     1       5.269  -0.466  21.511  1.00  0.00     0.162 C
HETATM   15  C12 UNL     1       3.610  -2.119  21.591  1.00  0.00     0.058 C
HETATM   16  C13 UNL     1       4.105  -0.989  20.700  1.00  0.00     0.189 C
HETATM   17  F2  UNL     1       4.540  -1.466  19.504  1.00  0.00    -0.248 F
ENDBRANCH   9  10
ENDBRANCH   6   9
BRANCH   8  18
HETATM   18  C16 UNL     1      12.523  -0.116  21.787  1.00  0.00     0.256 C
HETATM   19  N4  UNL     1      13.592   0.062  22.694  1.00  0.00    -0.060 NA
HETATM   20  O4  UNL     1      12.282   0.805  20.966  1.00  0.00    -0.274 OA
ENDBRANCH   8  18
BRANCH   1  21
HETATM   21  N1  UNL     1      12.232  -3.714  21.821  1.00  0.00    -0.346 N
HETATM   22  C4  UNL     1      13.365  -4.449  21.432  1.00  0.00     0.263 C
HETATM   23  O1  UNL     1      14.549  -4.074  21.703  1.00  0.00    -0.267 OA
ATOM     24  H1  UNL     1      11.305  -4.063  21.576  1.00  0.00     0.163 HD
BRANCH  22  25
HETATM   25  C3  UNL     1      13.211  -5.690  20.692  1.00  0.00     0.097 C
HETATM   26  C2  UNL     1      14.224  -6.524  20.605  1.00  0.00    -0.001 C
HETATM   27  C1  UNL     1      14.061  -7.786  19.848  1.00  0.00     0.038 C
HETATM   28 CL1  UNL     1      11.677  -6.074  19.915  1.00  0.00    -0.079 Cl
ENDBRANCH  22  25
ENDBRANCH   1  21
TORSDOF 5
ENDMDL