MODEL 5
REMARK VINA RESULT: -5.864534639      3.310      5.842
REMARK  8 active torsions:
REMARK  status: ('A' for Active; 'I' for Inactive)
REMARK    1  A    between atoms: C2_2  and  C3_3
REMARK    2  A    between atoms: C3_3  and  C5_5
REMARK    3  A    between atoms: C5_5  and  N1_6
REMARK    4  A    between atoms: C5_5  and  C8_12
REMARK       I    between atoms: N1_6  and  C6_8
REMARK    5  A    between atoms: C6_8  and  C7_10
REMARK    6  A    between atoms: C8_12  and  O2_13
REMARK    7  A    between atoms: C8_12  and  N2_15
REMARK    8  A    between atoms: C12_21  and  C14_23
REMARK       I    between atoms: C14_23  and  N3_25
ROOT
HETATM    1  C8  UNL     1      14.120  -8.278  19.416  1.00  0.00     0.167 C
ENDROOT
BRANCH   1   2
HETATM    2  C5  UNL     1      13.186  -7.739  20.371  1.00  0.00     0.088 C
BRANCH   2   3
HETATM    3  C3  UNL     1      12.001  -6.960  20.088  1.00  0.00    -0.053 C
HETATM    4  C4  UNL     1      10.712  -7.660  20.319  1.00  0.00     0.046 C
BRANCH   3   5
HETATM    5  C2  UNL     1      11.910  -5.519  20.387  1.00  0.00     0.031 C
HETATM    6  C1  UNL     1      13.166  -5.147  21.192  1.00  0.00     0.010 C
ENDBRANCH   3   5
ENDBRANCH   2   3
BRANCH   2   7
HETATM    7  N1  UNL     1      12.881  -8.839  21.336  1.00  0.00    -0.323 N
HETATM    8  C6  UNL     1      13.625  -9.149  22.461  1.00  0.00     0.232 C
HETATM    9  O1  UNL     1      14.657  -8.490  22.750  1.00  0.00    -0.272 OA
ATOM     10  H1  UNL     1      12.056  -9.409  21.149  1.00  0.00     0.169 HD
BRANCH   8  11
HETATM   11  C7  UNL     1      13.204 -10.269  23.338  1.00  0.00     0.188 C
HETATM   12 BR1  UNL     1      11.604 -11.129  22.685  1.00  0.00    -0.087 Br
ENDBRANCH   8  11
ENDBRANCH   2   7
ENDBRANCH   1   2
BRANCH   1  13
HETATM   13  O2  UNL     1      15.304  -7.616  19.415  1.00  0.00    -0.344 OA
ATOM     14  H2  UNL     1      15.201  -6.683  19.269  1.00  0.00     0.219 HD
ENDBRANCH   1  13
BRANCH   1  15
HETATM   15  N2  UNL     1      14.154  -9.305  18.472  1.00  0.00    -0.336 N
HETATM   16  C9  UNL     1      15.064 -10.422  18.409  1.00  0.00     0.205 C
HETATM   17  C10 UNL     1      14.897 -11.112  17.069  1.00  0.00     0.262 C
HETATM   18  F1  UNL     1      14.450 -12.398  17.209  1.00  0.00    -0.204 F
HETATM   19  F2  UNL     1      16.179 -11.158  16.491  1.00  0.00    -0.204 F
HETATM   20  C11 UNL     1      14.000 -10.217  16.291  1.00  0.00     0.121 C
HETATM   21  C12 UNL     1      13.202  -9.463  17.349  1.00  0.00     0.117 C
HETATM   22  C13 UNL     1      12.766  -8.201  16.708  1.00  0.00     0.049 C
BRANCH  21  23
HETATM   23  C14 UNL     1      12.093 -10.351  17.736  1.00  0.00     0.245 C
HETATM   24  O3  UNL     1      11.878 -10.611  18.931  1.00  0.00    -0.271 OA
HETATM   25  N3  UNL     1      11.245 -10.931  16.748  1.00  0.00    -0.363 N
HETATM   26  C15 UNL     1      10.148 -11.814  17.100  1.00  0.00     0.149 C
ATOM     27  H3  UNL     1      11.414 -10.720  15.764  1.00  0.00     0.162 HD
ENDBRANCH  21  23
ENDBRANCH   1  15
TORSDOF 8
ENDMDL