MODEL 5
REMARK VINA RESULT: -6.333116688      4.054      5.500
REMARK  6 active torsions:
REMARK  status: ('A' for Active; 'I' for Inactive)
REMARK    1  A    between atoms: C2_2  and  C4_4
REMARK    2  A    between atoms: C4_4  and  N1_5
REMARK    3  A    between atoms: C4_4  and  C14_23
REMARK       I    between atoms: N1_5  and  C5_7
REMARK    4  A    between atoms: C5_7  and  C6_9
REMARK       I    between atoms: N2_15  and  C10_16
REMARK    5  A    between atoms: C10_16  and  C11_18
REMARK    6  A    between atoms: C12_19  and  C13_20
REMARK       I    between atoms: C14_23  and  N3_25
ROOT
HETATM    1  N1  UNL     1      12.717  -7.544  20.285  1.00  0.00    -0.346 N
ATOM      2  H1  UNL     1      13.102  -7.110  19.446  1.00  0.00     0.163 HD
HETATM    3  C5  UNL     1      12.122  -8.825  20.182  1.00  0.00     0.241 C
HETATM    4  O1  UNL     1      11.647  -9.365  21.184  1.00  0.00    -0.271 OA
ENDROOT
BRANCH   3   5
HETATM    5  C6  UNL     1      12.098  -9.466  18.856  1.00  0.00     0.185 C
HETATM    6  C7  UNL     1      11.694  -8.299  17.916  1.00  0.00     0.115 C
HETATM    7  C8  UNL     1      12.306  -8.659  16.615  1.00  0.00     0.261 C
HETATM    8  F1  UNL     1      13.127  -7.622  16.138  1.00  0.00    -0.204 F
HETATM    9  F2  UNL     1      11.327  -8.899  15.662  1.00  0.00    -0.204 F
HETATM   10  C9  UNL     1      13.170  -9.863  16.836  1.00  0.00     0.206 C
HETATM   11  N2  UNL     1      13.310  -9.918  18.300  1.00  0.00    -0.329 N
HETATM   12  C10 UNL     1      14.522 -10.438  18.915  1.00  0.00     0.244 C
HETATM   13  O2  UNL     1      14.617 -10.589  20.162  1.00  0.00    -0.268 OA
BRANCH  12  14
HETATM   14  C11 UNL     1      15.671 -10.807  18.127  1.00  0.00     0.081 C
HETATM   15  C12 UNL     1      16.463 -11.792  18.503  1.00  0.00     0.090 C
BRANCH  15  16
HETATM   16  C13 UNL     1      17.626 -12.157  17.699  1.00  0.00     0.198 C
HETATM   17  O3  UNL     1      18.443 -13.045  18.073  1.00  0.00    -0.645 OA
HETATM   18  O4  UNL     1      17.856 -11.514  16.477  1.00  0.00    -0.645 OA
ENDBRANCH  15  16
ENDBRANCH  12  14
ENDBRANCH   3   5
BRANCH   1  19
HETATM   19  C4  UNL     1      12.798  -6.822  21.554  1.00  0.00     0.180 C
BRANCH  19  20
HETATM   20  C2  UNL     1      14.231  -6.824  22.042  1.00  0.00     0.009 C
HETATM   21  C1  UNL     1      14.600  -8.078  22.763  1.00  0.00     0.012 C
HETATM   22  C3  UNL     1      15.159  -6.660  20.873  1.00  0.00     0.012 C
ENDBRANCH  19  20
BRANCH  19  23
HETATM   23  C14 UNL     1      12.298  -5.457  21.257  1.00  0.00     0.243 C
HETATM   24  O5  UNL     1      11.687  -5.222  20.151  1.00  0.00    -0.271 OA
HETATM   25  N3  UNL     1      12.454  -4.366  22.141  1.00  0.00    -0.345 N
HETATM   26  C15 UNL     1      12.981  -4.028  23.444  1.00  0.00     0.164 C
HETATM   27  C17 UNL     1      12.083  -2.946  22.025  1.00  0.00     0.164 C
HETATM   28  C16 UNL     1      11.969  -2.902  23.522  1.00  0.00     0.206 C
HETATM   29  F3  UNL     1      10.753  -3.251  24.038  1.00  0.00    -0.246 F
ENDBRANCH  19  23
ENDBRANCH   1  19
TORSDOF 6
ENDMDL