MODEL 3
REMARK VINA RESULT: -5.091571962      4.071      6.153
REMARK  8 active torsions:
REMARK  status: ('A' for Active; 'I' for Inactive)
REMARK    1  A    between atoms: C2_2  and  C3_3
REMARK    2  A    between atoms: C3_3  and  N1_4
REMARK    3  A    between atoms: C3_3  and  C14_23
REMARK    4  A    between atoms: N1_4  and  C4_6
REMARK    5  A    between atoms: C4_6  and  O1_7
REMARK    6  A    between atoms: C4_6  and  C5_9
REMARK    7  A    between atoms: C8_14  and  N2_15
REMARK       I    between atoms: N3_19  and  C12_20
REMARK    8  A    between atoms: C14_23  and  O3_25
ROOT
HETATM    1  C5  UNL     1      13.882  -7.843  20.449  1.00  0.00     0.181 C
HETATM    2  C6  UNL     1      13.423  -6.363  20.203  1.00  0.00     0.126 C
HETATM    3 BR1  UNL     1      11.592  -6.363  19.628  1.00  0.00    -0.085 Br
HETATM    4  C7  UNL     1      13.373  -5.888  21.675  1.00  0.00     0.237 C
HETATM    5  F1  UNL     1      14.631  -5.829  22.161  1.00  0.00    -0.244 F
HETATM    6  C8  UNL     1      12.529  -7.038  22.221  1.00  0.00     0.328 C
HETATM    7  N3  UNL     1      12.943  -8.224  21.461  1.00  0.00    -0.308 N
HETATM    8  C12 UNL     1      12.534  -9.542  21.762  1.00  0.00     0.218 C
HETATM    9  C13 UNL     1      13.162 -10.776  21.174  1.00  0.00     0.117 C
HETATM   10  O2  UNL     1      11.589  -9.836  22.573  1.00  0.00    -0.274 OA
ENDROOT
BRANCH   1  11
HETATM   11  C4  UNL     1      13.899  -8.443  19.151  1.00  0.00     0.136 C
BRANCH  11  12
HETATM   12  N1  UNL     1      12.882  -8.748  18.252  1.00  0.00    -0.366 N
ATOM     13  H1  UNL     1      11.965  -8.976  18.637  1.00  0.00     0.161 HD
BRANCH  12  14
HETATM   14  C3  UNL     1      13.025  -8.768  16.819  1.00  0.00     0.111 C
BRANCH  14  15
HETATM   15  C2  UNL     1      11.683  -8.537  16.168  1.00  0.00     0.023 C
HETATM   16  C1  UNL     1      10.520  -8.493  17.082  1.00  0.00     0.007 C
ENDBRANCH  14  15
BRANCH  14  17
HETATM   17  C14 UNL     1      13.524 -10.104  16.357  1.00  0.00     0.136 C
HETATM   18  C15 UNL     1      12.718 -10.766  15.303  1.00  0.00     0.041 C
BRANCH  17  19
HETATM   19  O3  UNL     1      14.861 -10.164  16.071  1.00  0.00    -0.394 OA
ATOM     20  H3  UNL     1      15.205 -11.036  15.913  1.00  0.00     0.210 HD
ENDBRANCH  17  19
ENDBRANCH  14  17
ENDBRANCH  12  14
ENDBRANCH  11  12
BRANCH  11  21
HETATM   21  O1  UNL     1      15.099  -8.761  18.717  1.00  0.00    -0.348 OA
ATOM     22  H1  UNL     1      15.480  -9.507  19.165  1.00  0.00     0.219 HD
ENDBRANCH  11  21
ENDBRANCH   1  11
BRANCH   6  23
HETATM   23  N2  UNL     1      12.635  -7.106  23.629  1.00  0.00    -0.055 N
HETATM   24  C9  UNL     1      11.406  -7.588  24.269  1.00  0.00     0.274 C
HETATM   25  C10 UNL     1      12.835  -5.773  24.201  1.00  0.00     0.274 C
HETATM   26  C11 UNL     1      13.727  -7.900  24.153  1.00  0.00     0.274 C
ENDBRANCH   6  23
TORSDOF 8
ENDMDL