MODEL 2
REMARK VINA RESULT: -7.250620929      2.967      5.353
REMARK  6 active torsions:
REMARK  status: ('A' for Active; 'I' for Inactive)
REMARK    1  A    between atoms: C3_3  and  O1_4
REMARK    2  A    between atoms: C7_9  and  O2_10
REMARK    3  A    between atoms: C7_9  and  C8_12
REMARK    4  A    between atoms: C8_12  and  N1_13
REMARK    5  A    between atoms: N1_13  and  C9_15
REMARK    6  A    between atoms: C9_15  and  C10_16
ROOT
HETATM    1  C1  UNL     1      -7.387   1.219  17.006  1.00  0.00     0.017 C
HETATM    2  C2  UNL     1      -6.276   1.642  16.455  1.00  0.00    -0.056 C
HETATM    3  C3  UNL     1      -4.970   1.022  16.118  1.00  0.00     0.151 C
HETATM    4  C4  UNL     1      -4.905   2.011  14.974  1.00  0.00     0.027 C
HETATM    5  C5  UNL     1      -3.665   2.710  14.677  1.00  0.00     0.011 C
HETATM    6  C6  UNL     1      -3.581   4.179  14.988  1.00  0.00     0.044 C
HETATM    7  C7  UNL     1      -4.590   5.059  14.402  1.00  0.00     0.089 C
HETATM    8  C19 UNL     1      -5.805   4.273  13.832  1.00  0.00     0.044 C
HETATM    9  C20 UNL     1      -6.613   3.701  14.977  1.00  0.00     0.013 C
HETATM   10  C21 UNL     1      -5.759   2.889  15.904  1.00  0.00     0.023 C
ENDROOT
BRANCH   7  11
HETATM   11  O2  UNL     1      -5.206   5.811  15.438  1.00  0.00    -0.384 OA
ATOM     12  H2  UNL     1      -4.561   6.395  15.820  1.00  0.00     0.211 HD
ENDBRANCH   7  11
BRANCH   7  13
HETATM   13  C8  UNL     1      -4.068   5.949  13.326  1.00  0.00     0.097 C
BRANCH  13  14
HETATM   14  N1  UNL     1      -4.113   5.606  12.006  1.00  0.00    -0.379 N
ATOM     15  H1  UNL     1      -5.054   5.622  11.614  1.00  0.00     0.164 HD
BRANCH  14  16
HETATM   16  C9  UNL     1      -3.157   5.248  11.105  1.00  0.00     0.070 C
BRANCH  16  17
HETATM   17  C10 UNL     1      -2.474   3.940  11.087  1.00  0.00    -0.004 C
HETATM   18  C11 UNL     1      -1.226   3.950  11.999  1.00  0.00     0.020 C
HETATM   19  C12 UNL     1      -0.198   3.060  11.393  1.00  0.00    -0.013 C
HETATM   20  C13 UNL     1       0.314   3.714  10.134  1.00  0.00     0.005 C
HETATM   21  C17 UNL     1      -0.865   1.752  11.037  1.00  0.00     0.010 C
HETATM   22  C14 UNL     1      -0.834   3.791   9.169  1.00  0.00     0.006 C
HETATM   23  C15 UNL     1      -2.137   3.379   9.722  1.00  0.00     0.003 C
HETATM   24  C16 UNL     1      -2.179   2.014  10.355  1.00  0.00    -0.008 C
HETATM   25  C18 UNL     1      -3.190   2.655  11.335  1.00  0.00     0.020 C
ENDBRANCH  16  17
ENDBRANCH  14  16
ENDBRANCH  13  14
ENDBRANCH   7  13
BRANCH   3  26
HETATM   26  O1  UNL     1      -5.071  -0.288  15.676  1.00  0.00    -0.391 OA
ATOM     27  H1  UNL     1      -5.791  -0.768  16.068  1.00  0.00     0.210 HD
ENDBRANCH   3  26
TORSDOF 6
ENDMDL