MODEL 4
REMARK VINA RESULT: -7.284728072      0.834      1.228
REMARK  5 active torsions:
REMARK  status: ('A' for Active; 'I' for Inactive)
REMARK    1  A    between atoms: C2_2  and  C3_3
REMARK    2  A    between atoms: C9_9  and  C10_10
REMARK    3  A    between atoms: C13_13  and  O1_14
REMARK    4  A    between atoms: C14_16  and  O2_17
REMARK    5  A    between atoms: C15_19  and  C17_21
ROOT
HETATM    1  C10 UNL     1      -2.990   4.673  14.535  1.00  0.00     0.003 C
HETATM    2  C11 UNL     1      -3.531   3.614  14.002  1.00  0.00    -0.076 C
HETATM    3  C12 UNL     1      -4.748   3.005  14.601  1.00  0.00     0.068 C
HETATM    4  C13 UNL     1      -4.510   1.498  14.541  1.00  0.00     0.152 C
HETATM    5  C14 UNL     1      -4.594   1.116  13.089  1.00  0.00     0.166 C
HETATM    6  C15 UNL     1      -3.757   1.908  12.175  1.00  0.00     0.076 C
HETATM    7  C16 UNL     1      -4.707   2.616  11.188  1.00  0.00     0.030 C
HETATM    8  C18 UNL     1      -2.953   3.007  12.809  1.00  0.00     0.057 C
ENDROOT
BRANCH   1   9
HETATM    9  C9  UNL     1      -1.798   5.325  14.006  1.00  0.00     0.003 C
HETATM   10  C8  UNL     1      -1.788   6.566  13.592  1.00  0.00    -0.075 C
HETATM   11  C7  UNL     1      -0.634   7.307  13.043  1.00  0.00     0.027 C
HETATM   12  C19 UNL     1      -2.915   7.513  13.575  1.00  0.00     0.036 C
HETATM   13  C3  UNL     1      -0.959   8.756  13.259  1.00  0.00    -0.016 C
HETATM   14  C6  UNL     1      -0.559   7.077  11.555  1.00  0.00     0.010 C
HETATM   15  C4  UNL     1      -1.271   9.363  11.934  1.00  0.00     0.014 C
HETATM   16  C20 UNL     1      -2.220   8.781  14.099  1.00  0.00     0.018 C
HETATM   17  C5  UNL     1      -0.851   8.372  10.875  1.00  0.00     0.002 C
BRANCH  13  18
HETATM   18  C2  UNL     1       0.169   9.429  13.967  1.00  0.00    -0.027 C
HETATM   19  C1  UNL     1       0.026   9.989  15.158  1.00  0.00     0.008 C
ENDBRANCH  13  18
ENDBRANCH   1   9
BRANCH   4  20
HETATM   20  O1  UNL     1      -3.291   1.209  15.115  1.00  0.00    -0.393 OA
ATOM     21  H1  UNL     1      -3.161   0.267  15.111  1.00  0.00     0.210 HD
ENDBRANCH   4  20
BRANCH   6  22
HETATM   22  C17 UNL     1      -2.846   1.136  11.295  1.00  0.00     0.184 C
HETATM   23  O3  UNL     1      -3.201   0.476  10.299  1.00  0.00    -0.647 OA
HETATM   24  O4  UNL     1      -1.500   1.154  11.609  1.00  0.00    -0.647 OA
ENDBRANCH   6  22
BRANCH   5  25
HETATM   25  O2  UNL     1      -4.317  -0.250  13.026  1.00  0.00    -0.392 OA
ATOM     26  H2  UNL     1      -3.559  -0.342  12.462  1.00  0.00     0.210 HD
ENDBRANCH   5  25
TORSDOF 5
ENDMDL