MODEL 4
REMARK VINA RESULT: -7.484140464      2.395      5.264
REMARK  9 active torsions:
REMARK  status: ('A' for Active; 'I' for Inactive)
REMARK    1  A    between atoms: C2_2  and  C4_4
REMARK    2  A    between atoms: C5_5  and  C6_6
REMARK    3  A    between atoms: C6_6  and  O1_8
REMARK    4  A    between atoms: C6_6  and  C8_10
REMARK    5  A    between atoms: C8_10  and  C9_11
REMARK    6  A    between atoms: C9_11  and  C10_12
REMARK    7  A    between atoms: C10_12  and  O2_13
REMARK    8  A    between atoms: C10_12  and  C11_15
REMARK    9  A    between atoms: C17_21  and  O3_22
ROOT
HETATM    1  C10 UNL     1      -5.434   4.784  14.177  1.00  0.00     0.127 C
ENDROOT
BRANCH   1   2
HETATM    2  C9  UNL     1      -5.866   3.358  14.154  1.00  0.00     0.036 C
BRANCH   2   3
HETATM    3  C8  UNL     1      -5.597   2.484  15.302  1.00  0.00     0.053 C
BRANCH   3   4
HETATM    4  C6  UNL     1      -4.545   1.463  15.316  1.00  0.00     0.117 C
HETATM    5  C7  UNL     1      -3.255   1.744  15.974  1.00  0.00     0.060 C
BRANCH   4   6
HETATM    6  C5  UNL     1      -4.414   0.838  13.978  1.00  0.00    -0.064 C
HETATM    7  C4  UNL     1      -4.311   0.311  12.898  1.00  0.00    -0.069 C
BRANCH   7   8
HETATM    8  C2  UNL     1      -4.192  -0.302  11.602  1.00  0.00    -0.018 C
HETATM    9  C1  UNL     1      -4.815   0.173  10.547  1.00  0.00     0.028 C
HETATM   10  C3  UNL     1      -3.341  -1.507  11.462  1.00  0.00     0.057 C
ENDBRANCH   7   8
ENDBRANCH   4   6
BRANCH   4  11
HETATM   11  O1  UNL     1      -5.132   0.406  16.160  1.00  0.00    -0.378 OA
ATOM     12  H1  UNL     1      -4.982  -0.396  15.673  1.00  0.00     0.211 HD
ENDBRANCH   4  11
ENDBRANCH   3   4
ENDBRANCH   2   3
ENDBRANCH   1   2
BRANCH   1  13
HETATM   13  O2  UNL     1      -5.872   5.446  15.311  1.00  0.00    -0.395 OA
ATOM     14  H2  UNL     1      -5.585   5.019  16.109  1.00  0.00     0.210 HD
ENDBRANCH   1  13
BRANCH   1  15
HETATM   15  C11 UNL     1      -3.976   4.926  14.075  1.00  0.00     0.051 C
HETATM   16  C12 UNL     1      -3.286   4.289  12.929  1.00  0.00    -0.082 C
HETATM   17  C13 UNL     1      -3.642   3.644  11.855  1.00  0.00     0.015 C
HETATM   18  C14 UNL     1      -1.834   4.617  13.252  1.00  0.00     0.039 C
HETATM   19  C15 UNL     1      -1.919   5.919  13.961  1.00  0.00     0.001 C
HETATM   20  C16 UNL     1      -1.174   7.061  13.415  1.00  0.00     0.037 C
HETATM   21  C20 UNL     1      -3.413   6.303  13.924  1.00  0.00    -0.030 C
HETATM   22  C17 UNL     1      -1.389   8.265  14.279  1.00  0.00     0.118 C
HETATM   23  C18 UNL     1      -2.476   8.197  15.276  1.00  0.00     0.032 C
HETATM   24  C19 UNL     1      -3.589   7.242  15.050  1.00  0.00     0.013 C
HETATM   25  C21 UNL     1      -3.784   6.890  12.590  1.00  0.00     0.016 C
BRANCH  22  26
HETATM   26  O3  UNL     1      -1.441   9.449  13.499  1.00  0.00    -0.396 OA
ATOM     27  H3  UNL     1      -2.332   9.645  13.237  1.00  0.00     0.210 HD
ENDBRANCH  22  26
ENDBRANCH   1  15
TORSDOF 9
ENDMDL