MODEL 5
REMARK VINA RESULT: -7.087705539      3.242      6.090
REMARK  5 active torsions:
REMARK  status: ('A' for Active; 'I' for Inactive)
REMARK    1  A    between atoms: C3_3  and  N1_5
REMARK    2  A    between atoms: N1_5  and  C5_7
REMARK    3  A    between atoms: C10_12  and  C11_13
REMARK    4  A    between atoms: C12_14  and  C14_16
REMARK    5  A    between atoms: C20_24  and  O3_25
ROOT
HETATM    1  C5  UNL     1      -3.424   3.104  12.501  1.00  0.00     0.110 C
HETATM    2  C6  UNL     1      -3.666   3.680  11.130  1.00  0.00     0.028 C
HETATM    3  C7  UNL     1      -4.733   4.753  11.111  1.00  0.00     0.012 C
HETATM    4  C8  UNL     1      -4.371   5.962  11.958  1.00  0.00    -0.033 C
HETATM    5  C9  UNL     1      -5.127   6.002  13.245  1.00  0.00     0.016 C
HETATM    6  C10 UNL     1      -4.708   7.280  11.228  1.00  0.00     0.017 C
HETATM    7  C15 UNL     1      -3.436   8.004  11.031  1.00  0.00     0.010 C
HETATM    8  C16 UNL     1      -2.670   7.508  12.294  1.00  0.00     0.006 C
HETATM    9  C17 UNL     1      -2.908   6.014  12.012  1.00  0.00     0.001 C
HETATM   10  C18 UNL     1      -2.084   5.235  12.884  1.00  0.00     0.017 C
HETATM   11  C19 UNL     1      -1.530   5.968  14.121  1.00  0.00     0.013 C
HETATM   12  C20 UNL     1      -2.531   3.898  13.374  1.00  0.00     0.144 C
ENDROOT
BRANCH   1  13
HETATM   13  N1  UNL     1      -3.030   1.721  12.348  1.00  0.00    -0.387 N
ATOM     14  H1  UNL     1      -2.121   1.545  11.919  1.00  0.00     0.159 HD
BRANCH  13  15
HETATM   15  C3  UNL     1      -3.781   0.593  12.736  1.00  0.00    -0.003 C
HETATM   16  C2  UNL     1      -3.993  -0.350  11.842  1.00  0.00    -0.007 C
HETATM   17  C1  UNL     1      -3.459  -0.228  10.473  1.00  0.00     0.038 C
HETATM   18  C4  UNL     1      -4.345   0.410  14.095  1.00  0.00     0.067 C
ENDBRANCH  13  15
ENDBRANCH   1  13
BRANCH  12  19
HETATM   19  O3  UNL     1      -3.142   3.990  14.653  1.00  0.00    -0.393 OA
ATOM     20  H3  UNL     1      -2.551   3.601  15.287  1.00  0.00     0.210 HD
ENDBRANCH  12  19
BRANCH   6  21
HETATM   21  C11 UNL     1      -5.616   7.104  10.122  1.00  0.00    -0.008 C
HETATM   22  C12 UNL     1      -6.879   7.434   9.978  1.00  0.00     0.011 C
HETATM   23  C13 UNL     1      -7.735   8.107  10.972  1.00  0.00     0.055 C
BRANCH  22  24
HETATM   24  C14 UNL     1      -7.508   7.105   8.703  1.00  0.00     0.204 C
HETATM   25  O1  UNL     1      -6.925   6.364   7.895  1.00  0.00    -0.644 OA
HETATM   26  O2  UNL     1      -8.747   7.615   8.396  1.00  0.00    -0.644 OA
ENDBRANCH  22  24
ENDBRANCH   6  21
TORSDOF 5
ENDMDL