MODEL 2
REMARK VINA RESULT: -7.486049472      2.488      6.302
REMARK  7 active torsions:
REMARK  status: ('A' for Active; 'I' for Inactive)
REMARK    1  A    between atoms: C2_2  and  C3_3
REMARK    2  A    between atoms: C2_2  and  C16_18
REMARK    3  A    between atoms: C3_3  and  C4_4
REMARK    4  A    between atoms: C4_4  and  C5_5
REMARK    5  A    between atoms: C13_13  and  O1_14
REMARK    6  A    between atoms: C18_20  and  O2_21
REMARK    7  A    between atoms: C21_25  and  O3_26
ROOT
HETATM    1  C4  UNL     1      -2.545   4.081  13.538  1.00  0.00     0.013 C
ENDROOT
BRANCH   1   2
HETATM    2  C3  UNL     1      -1.717   3.673  12.369  1.00  0.00     0.034 C
BRANCH   2   3
HETATM    3  C2  UNL     1      -2.607   3.177  11.285  1.00  0.00    -0.083 C
HETATM    4  C1  UNL     1      -2.799   3.916  10.206  1.00  0.00     0.015 C
BRANCH   3   5
HETATM    5  C16 UNL     1      -3.302   1.864  11.387  1.00  0.00     0.045 C
HETATM    6  C17 UNL     1      -2.363   0.732  11.045  1.00  0.00     0.043 C
HETATM    7  C18 UNL     1      -2.952  -0.535  11.673  1.00  0.00     0.119 C
HETATM    8  C19 UNL     1      -4.444  -0.447  11.718  1.00  0.00     0.034 C
HETATM    9  C20 UNL     1      -4.972   0.283  10.497  1.00  0.00     0.035 C
HETATM   10  C21 UNL     1      -4.491   1.743  10.476  1.00  0.00     0.126 C
BRANCH   7  11
HETATM   11  O2  UNL     1      -2.478  -1.680  11.062  1.00  0.00    -0.396 OA
ATOM     12  H2  UNL     1      -3.174  -2.302  10.888  1.00  0.00     0.210 HD
ENDBRANCH   7  11
BRANCH  10  13
HETATM   13  O3  UNL     1      -5.596   2.484  10.945  1.00  0.00    -0.395 OA
ATOM     14  H3  UNL     1      -6.419   2.151  10.607  1.00  0.00     0.210 HD
ENDBRANCH  10  13
ENDBRANCH   3   5
ENDBRANCH   2   3
ENDBRANCH   1   2
BRANCH   1  15
HETATM   15  C5  UNL     1      -3.885   3.381  13.584  1.00  0.00     0.015 C
HETATM   16  C6  UNL     1      -3.791   2.060  14.339  1.00  0.00     0.017 C
HETATM   17  C7  UNL     1      -5.226   1.857  14.816  1.00  0.00     0.024 C
HETATM   18  C8  UNL     1      -5.920   3.165  14.759  1.00  0.00     0.020 C
HETATM   19  C13 UNL     1      -5.188   1.129  16.092  1.00  0.00     0.126 C
HETATM   20  C9  UNL     1      -6.764   3.521  15.920  1.00  0.00     0.010 C
HETATM   21  C14 UNL     1      -4.836   4.116  14.441  1.00  0.00    -0.081 C
HETATM   22  C10 UNL     1      -6.238   3.094  17.248  1.00  0.00     0.007 C
HETATM   23  C11 UNL     1      -6.072   1.593  17.191  1.00  0.00     0.011 C
HETATM   24  C12 UNL     1      -7.450   0.933  17.116  1.00  0.00     0.012 C
HETATM   25  C15 UNL     1      -4.728   5.356  14.831  1.00  0.00     0.015 C
BRANCH  19  26
HETATM   26  O1  UNL     1      -3.876   1.080  16.623  1.00  0.00    -0.395 OA
ATOM     27  H1  UNL     1      -3.736   1.761  17.271  1.00  0.00     0.210 HD
ENDBRANCH  19  26
ENDBRANCH   1  15
TORSDOF 7
ENDMDL