MODEL 2
REMARK VINA RESULT: -6.431966145      1.746      4.887
REMARK  6 active torsions:
REMARK  status: ('A' for Active; 'I' for Inactive)
REMARK    1  A    between atoms: C12_13  and  N2_14
REMARK    2  A    between atoms: N2_14  and  C13_16
REMARK    3  A    between atoms: C13_16  and  N3_18
REMARK    4  A    between atoms: N3_18  and  C14_20
REMARK    5  A    between atoms: C14_20  and  C15_21
REMARK    6  A    between atoms: C15_21  and  C16_22
ROOT
HETATM    1  C1  UNL     1      -6.348   3.627  15.979  1.00  0.00     0.060 C
HETATM    2  C2  UNL     1      -5.233   3.069  15.119  1.00  0.00     0.024 C
HETATM    3  C3  UNL     1      -5.166   1.647  15.135  1.00  0.00     0.095 C
HETATM    4  N1  UNL     1      -5.166   0.461  15.165  1.00  0.00    -0.192 NA
HETATM    5  C4  UNL     1      -4.517   3.884  14.419  1.00  0.00    -0.032 C
HETATM    6  C5  UNL     1      -4.919   5.348  14.556  1.00  0.00     0.019 C
HETATM    7  C6  UNL     1      -5.585   5.641  13.208  1.00  0.00     0.014 C
HETATM    8  C7  UNL     1      -4.556   5.477  12.133  1.00  0.00    -0.011 C
HETATM    9  C8  UNL     1      -3.428   6.455  12.403  1.00  0.00     0.009 C
HETATM   10  C9  UNL     1      -2.726   6.015  13.653  1.00  0.00    -0.011 C
HETATM   11  C10 UNL     1      -3.715   6.174  14.819  1.00  0.00     0.014 C
HETATM   12  C11 UNL     1      -2.242   4.605  13.628  1.00  0.00     0.040 C
HETATM   13  C12 UNL     1      -3.434   3.653  13.476  1.00  0.00     0.058 C
HETATM   14  C17 UNL     1      -4.022   4.081  12.100  1.00  0.00     0.040 C
ENDROOT
BRANCH  13  15
HETATM   15  N2  UNL     1      -2.942   2.321  13.334  1.00  0.00    -0.354 N
ATOM     16  H2  UNL     1      -2.531   1.921  14.177  1.00  0.00     0.163 HD
BRANCH  15  17
HETATM   17  C13 UNL     1      -2.937   1.479  12.217  1.00  0.00     0.168 C
HETATM   18  S1  UNL     1      -4.191   0.661  11.589  1.00  0.00    -0.041 SA
BRANCH  17  19
HETATM   19  N3  UNL     1      -1.688   1.301  11.501  1.00  0.00    -0.367 N
ATOM     20  H3  UNL     1      -1.051   0.546  11.755  1.00  0.00     0.161 HD
BRANCH  19  21
HETATM   21  C14 UNL     1      -1.359   2.200  10.433  1.00  0.00     0.123 C
BRANCH  21  22
HETATM   22  C15 UNL     1      -0.215   3.100  10.819  1.00  0.00     0.031 C
BRANCH  22  23
HETATM   23  C16 UNL     1      -0.509   4.505  10.387  1.00  0.00     0.088 C
HETATM   24  S2  UNL     1      -1.736   4.548   9.040  1.00  0.00    -0.098 SA
ENDBRANCH  22  23
ENDBRANCH  21  22
ENDBRANCH  19  21
ENDBRANCH  17  19
ENDBRANCH  15  17
ENDBRANCH  13  15
TORSDOF 6
ENDMDL