MODEL 2
REMARK VINA RESULT: -8.214299215      1.652      3.260
REMARK  4 active torsions:
REMARK  status: ('A' for Active; 'I' for Inactive)
REMARK    1  A    between atoms: C5_5  and  C6_6
REMARK    2  A    between atoms: C7_7  and  C8_8
REMARK    3  A    between atoms: C8_8  and  C9_9
REMARK    4  A    between atoms: C9_9  and  C10_10
ROOT
HETATM    1  C1  UNL     1      -3.221   0.394  10.556  1.00  0.00     0.017 C
HETATM    2  C2  UNL     1      -3.484   1.389  11.348  1.00  0.00    -0.053 C
HETATM    3  C3  UNL     1      -4.389   1.128  12.560  1.00  0.00     0.037 C
HETATM    4  C4  UNL     1      -3.643   1.407  13.837  1.00  0.00     0.016 C
HETATM    5  C5  UNL     1      -3.437   2.843  14.232  1.00  0.00     0.043 C
HETATM    6  C11 UNL     1      -3.033   3.740  13.148  1.00  0.00     0.069 A
HETATM    7  C12 UNL     1      -1.980   4.776  13.244  1.00  0.00     0.040 C
HETATM    8  C13 UNL     1      -1.697   5.224  11.809  1.00  0.00     0.016 C
HETATM    9  C14 UNL     1      -1.135   4.333  10.829  1.00  0.00     0.011 C
HETATM   10  C15 UNL     1      -0.660   5.173   9.625  1.00  0.00     0.019 C
HETATM   11  C16 UNL     1      -0.027   3.399  11.204  1.00  0.00     0.244 C
HETATM   12  N1  UNL     1      -0.718   2.369  10.434  1.00  0.00    -0.066 N
ATOM     13  H11 UNL     1      -0.804   1.438  10.841  1.00  0.00     0.277 HD
ATOM     14  H12 UNL     1      -0.260   1.999   9.600  1.00  0.00     0.277 HD
HETATM   15  C17 UNL     1      -1.943   3.173  10.262  1.00  0.00     0.234 C
HETATM   16  C18 UNL     1      -2.982   2.744  11.174  1.00  0.00     0.114 A
HETATM   17  C19 UNL     1      -4.144   3.664  11.110  1.00  0.00     0.048 A
HETATM   18  C20 UNL     1      -4.197   4.282  12.442  1.00  0.00     0.042 A
HETATM   19  O3  UNL     1      -2.285   2.880  12.367  1.00  0.00    -0.362 OA
ENDROOT
BRANCH   5  20
HETATM   20  C6  UNL     1      -4.566   3.304  15.063  1.00  0.00    -0.023 C
HETATM   21  C7  UNL     1      -5.655   2.632  15.361  1.00  0.00    -0.030 C
BRANCH  21  22
HETATM   22  C8  UNL     1      -6.734   3.176  16.203  1.00  0.00     0.037 C
BRANCH  22  23
HETATM   23  C9  UNL     1      -6.830   2.484  17.543  1.00  0.00     0.117 C
BRANCH  23  24
HETATM   24  C10 UNL     1      -6.532   1.044  17.340  1.00  0.00     0.172 C
HETATM   25  O1  UNL     1      -7.294   0.308  16.680  1.00  0.00    -0.648 OA
HETATM   26  O2  UNL     1      -5.367   0.533  17.912  1.00  0.00    -0.648 OA
ENDBRANCH  23  24
ENDBRANCH  22  23
ENDBRANCH  21  22
ENDBRANCH   5  20
TORSDOF 4
ENDMDL