MODEL 5
REMARK VINA RESULT: -5.850288467      1.822      4.501
REMARK  8 active torsions:
REMARK  status: ('A' for Active; 'I' for Inactive)
REMARK    1  A    between atoms: C2_2  and  C3_3
REMARK    2  A    between atoms: C4_4  and  C5_5
REMARK    3  A    between atoms: C11_11  and  O1_12
REMARK    4  A    between atoms: C12_14  and  C13_15
REMARK    5  A    between atoms: C13_15  and  C14_16
REMARK    6  A    between atoms: C20_22  and  O2_23
REMARK    7  A    between atoms: C20_22  and  C21_25
REMARK    8  A    between atoms: C21_25  and  O3_26
ROOT
HETATM    1  C5  UNL     1      -3.513   5.441  14.617  1.00  0.00     0.049 C
HETATM    2  C6  UNL     1      -4.988   5.340  14.575  1.00  0.00     0.045 C
HETATM    3  C7  UNL     1      -5.458   4.018  14.108  1.00  0.00    -0.080 C
HETATM    4  C8  UNL     1      -6.424   3.270  14.961  1.00  0.00     0.043 C
HETATM    5  C9  UNL     1      -5.119   3.397  12.997  1.00  0.00    -0.064 C
HETATM    6  C10 UNL     1      -5.413   2.113  12.287  1.00  0.00     0.068 C
HETATM    7  C11 UNL     1      -4.255   2.469  11.372  1.00  0.00     0.135 C
HETATM    8  C12 UNL     1      -4.188   3.854  11.924  1.00  0.00     0.019 C
HETATM    9  C18 UNL     1      -2.850   4.259  12.501  1.00  0.00     0.034 C
HETATM   10  C19 UNL     1      -1.808   3.422  11.808  1.00  0.00     0.014 C
HETATM   11  C20 UNL     1      -2.755   4.293  13.971  1.00  0.00     0.090 C
ENDROOT
BRANCH   8  12
HETATM   12  C13 UNL     1      -4.818   4.958  11.106  1.00  0.00     0.044 C
BRANCH  12  13
HETATM   13  C14 UNL     1      -4.024   6.186  10.997  1.00  0.00    -0.024 C
HETATM   14  C15 UNL     1      -4.526   7.405  10.890  1.00  0.00    -0.091 C
HETATM   15  C16 UNL     1      -5.982   7.708  10.865  1.00  0.00     0.042 C
HETATM   16  C17 UNL     1      -3.554   8.552  10.791  1.00  0.00     0.042 C
ENDBRANCH  12  13
ENDBRANCH   8  12
BRANCH   7  17
HETATM   17  O1  UNL     1      -4.641   2.275  10.075  1.00  0.00    -0.394 OA
ATOM     18  H1  UNL     1      -4.261   2.958   9.536  1.00  0.00     0.210 HD
ENDBRANCH   7  17
BRANCH  11  19
HETATM   19  O2  UNL     1      -3.132   3.113  14.619  1.00  0.00    -0.387 OA
ATOM     20  H2  UNL     1      -3.662   3.350  15.371  1.00  0.00     0.210 HD
ENDBRANCH  11  19
BRANCH  11  21
HETATM   21  C21 UNL     1      -1.317   4.536  14.403  1.00  0.00     0.203 C
BRANCH  21  22
HETATM   22  O3  UNL     1      -0.907   3.812  15.482  1.00  0.00    -0.398 OA
ATOM     23  H3  UNL     1       0.030   3.812  15.635  1.00  0.00     0.209 HD
ENDBRANCH  21  22
ENDBRANCH  11  21
BRANCH   1  24
HETATM   24  C4  UNL     1      -3.105   6.764  14.096  1.00  0.00    -0.019 C
HETATM   25  C3  UNL     1      -2.752   7.721  14.929  1.00  0.00    -0.004 C
BRANCH  25  26
HETATM   26  C2  UNL     1      -2.341   9.045  14.465  1.00  0.00    -0.011 C
HETATM   27  C1  UNL     1      -1.250   9.609  14.949  1.00  0.00     0.011 C
ENDBRANCH  25  26
ENDBRANCH   1  24
TORSDOF 8
ENDMDL