MODEL 1
REMARK VINA RESULT: -7.959574660      0.000      0.000
REMARK  6 active torsions:
REMARK  status: ('A' for Active; 'I' for Inactive)
REMARK    1  A    between atoms: C6_6  and  O1_7
REMARK    2  A    between atoms: C6_6  and  C7_9
REMARK    3  A    between atoms: C7_9  and  N1_10
REMARK    4  A    between atoms: C7_9  and  C8_14
REMARK    5  A    between atoms: C8_14  and  C9_15
REMARK    6  A    between atoms: C9_15  and  C10_16
ROOT
HETATM    1  C1  UNL     1      -3.169  -0.161   9.985  1.00  0.00     0.011 C
HETATM    2  C2  UNL     1      -3.799   1.072  10.666  1.00  0.00    -0.009 C
HETATM    3  C3  UNL     1      -4.972   0.456  11.447  1.00  0.00     0.005 C
HETATM    4  C4  UNL     1      -4.328   0.183  12.767  1.00  0.00     0.009 C
HETATM    5  C5  UNL     1      -3.372   1.282  13.038  1.00  0.00     0.031 C
HETATM    6  C6  UNL     1      -3.912   2.499  13.690  1.00  0.00     0.090 C
HETATM    7  C11 UNL     1      -4.115   3.462  12.534  1.00  0.00     0.046 C
HETATM    8  C12 UNL     1      -2.842   3.170  11.798  1.00  0.00     0.002 C
HETATM    9  C13 UNL     1      -2.403   3.992  10.733  1.00  0.00    -0.005 C
HETATM   10  C14 UNL     1      -3.269   4.647   9.735  1.00  0.00     0.005 C
HETATM   11  C15 UNL     1      -2.191   5.156   8.757  1.00  0.00     0.001 C
HETATM   12  C16 UNL     1      -0.962   4.258   8.987  1.00  0.00     0.005 C
HETATM   13  C17 UNL     1      -1.576   3.140   9.745  1.00  0.00    -0.010 C
HETATM   14  C18 UNL     1      -0.708   2.220  10.472  1.00  0.00     0.006 C
HETATM   15  C19 UNL     1      -1.423   1.294  11.412  1.00  0.00     0.011 C
HETATM   16  C20 UNL     1      -2.887   1.686  11.631  1.00  0.00    -0.026 C
ENDROOT
BRANCH   6  17
HETATM   17  O1  UNL     1      -2.810   3.019  14.449  1.00  0.00    -0.387 OA
ATOM     18  H1  UNL     1      -3.121   3.026  15.346  1.00  0.00     0.210 HD
ENDBRANCH   6  17
BRANCH   6  19
HETATM   19  C7  UNL     1      -4.993   2.412  14.654  1.00  0.00     0.218 C
BRANCH  19  20
HETATM   20  N1  UNL     1      -5.831   3.507  14.925  1.00  0.00    -0.072 N
ATOM     21  H13 UNL     1      -6.477   3.231  15.666  1.00  0.00     0.274 HD
ATOM     22  H12 UNL     1      -5.271   4.222  15.388  1.00  0.00     0.274 HD
ATOM     23  H11 UNL     1      -6.374   3.962  14.191  1.00  0.00     0.274 HD
ENDBRANCH  19  20
BRANCH  19  24
HETATM   24  C8  UNL     1      -4.447   1.895  15.995  1.00  0.00     0.046 C
BRANCH  24  25
HETATM   25  C9  UNL     1      -5.545   1.971  17.058  1.00  0.00     0.115 C
BRANCH  25  26
HETATM   26  C10 UNL     1      -6.281   0.680  16.988  1.00  0.00     0.172 C
HETATM   27  O2  UNL     1      -5.746  -0.437  17.014  1.00  0.00    -0.648 OA
HETATM   28  O3  UNL     1      -7.667   0.742  16.885  1.00  0.00    -0.648 OA
ENDBRANCH  25  26
ENDBRANCH  24  25
ENDBRANCH  19  24
ENDBRANCH   6  19
TORSDOF 6
ENDMDL