MODEL 4
REMARK VINA RESULT: -5.869415104      1.236      1.456
REMARK  8 active torsions:
REMARK  status: ('A' for Active; 'I' for Inactive)
REMARK    1  A    between atoms: O1_2  and  C2_3
REMARK    2  A    between atoms: C2_3  and  C3_4
REMARK    3  A    between atoms: C3_4  and  O2_5
REMARK    4  A    between atoms: C4_7  and  C5_8
REMARK    5  A    between atoms: C5_8  and  O3_11
REMARK    6  A    between atoms: C11_16  and  C13_18
REMARK    7  A    between atoms: C13_18  and  C14_19
REMARK    8  A    between atoms: C14_19  and  O4_20
ROOT
HETATM    1  C3  UNL     1      -3.709   3.077  13.297  1.00  0.00     0.113 C
HETATM    2  C4  UNL     1      -4.587   3.440  14.451  1.00  0.00    -0.013 C
HETATM    3  C8  UNL     1      -4.568   4.789  14.592  1.00  0.00    -0.012 C
HETATM    4  C9  UNL     1      -3.685   5.382  13.555  1.00  0.00     0.021 C
HETATM    5  C10 UNL     1      -3.027   6.647  14.027  1.00  0.00     0.019 C
HETATM    6  C11 UNL     1      -2.576   7.528  12.898  1.00  0.00    -0.038 C
HETATM    7  C12 UNL     1      -3.659   7.948  11.975  1.00  0.00     0.015 C
HETATM    8  C15 UNL     1      -1.481   6.807  12.145  1.00  0.00    -0.010 C
HETATM    9  C16 UNL     1      -0.749   7.767  11.233  1.00  0.00     0.011 C
HETATM   10  C17 UNL     1      -1.993   5.599  11.411  1.00  0.00     0.006 C
HETATM   11  C18 UNL     1      -1.817   4.330  12.217  1.00  0.00     0.014 C
HETATM   12  C19 UNL     1      -2.706   4.241  13.388  1.00  0.00     0.000 C
HETATM   13  C20 UNL     1      -1.944   3.980  14.682  1.00  0.00     0.019 C
ENDROOT
BRANCH   1  14
HETATM   14  C2  UNL     1      -4.413   3.053  11.994  1.00  0.00     0.210 C
BRANCH  14  15
HETATM   15  O1  UNL     1      -5.491   2.139  11.960  1.00  0.00    -0.393 OA
HETATM   16  C1  UNL     1      -5.146   1.166  11.014  1.00  0.00     0.201 C
ENDBRANCH  14  15
ENDBRANCH   1  14
BRANCH   1  17
HETATM   17  O2  UNL     1      -2.933   1.945  13.526  1.00  0.00    -0.382 OA
ATOM     18  H2  UNL     1      -3.035   1.589  14.401  1.00  0.00     0.211 HD
ENDBRANCH   1  17
BRANCH   2  19
HETATM   19  C5  UNL     1      -5.349   2.543  15.327  1.00  0.00     0.077 C
HETATM   20  C6  UNL     1      -6.685   3.143  15.738  1.00  0.00     0.050 C
HETATM   21  C7  UNL     1      -4.663   2.045  16.549  1.00  0.00     0.050 C
BRANCH  19  22
HETATM   22  O3  UNL     1      -5.718   1.396  14.566  1.00  0.00    -0.386 OA
ATOM     23  H3  UNL     1      -5.640   0.635  15.128  1.00  0.00     0.211 HD
ENDBRANCH  19  22
ENDBRANCH   2  19
BRANCH   6  24
HETATM   24  C13 UNL     1      -1.944   8.772  13.483  1.00  0.00     0.035 C
BRANCH  24  25
HETATM   25  C14 UNL     1      -2.004   8.838  14.971  1.00  0.00     0.165 C
BRANCH  25  26
HETATM   26  O4  UNL     1      -0.876   9.587  15.381  1.00  0.00    -0.401 OA
ATOM     27  H4  UNL     1      -0.475   9.099  16.090  1.00  0.00     0.209 HD
ENDBRANCH  25  26
ENDBRANCH  24  25
ENDBRANCH   6  24
TORSDOF 8
ENDMDL