MODEL 2
REMARK VINA RESULT: -7.693594605      1.476      1.940
REMARK  5 active torsions:
REMARK  status: ('A' for Active; 'I' for Inactive)
REMARK    1  A    between atoms: N1_1  and  C1_4
REMARK    2  A    between atoms: C2_12  and  N4_13
REMARK    3  A    between atoms: N4_13  and  C3_15
REMARK    4  A    between atoms: C3_15  and  C4_16
REMARK    5  A    between atoms: C4_16  and  C5_17
ROOT
HETATM    1  N4  UNL     1      -2.056   3.685  13.620  1.00  0.00    -0.373 N
ATOM      2  H4  UNL     1      -1.039   3.760  13.582  1.00  0.00     0.161 HD
ENDROOT
BRANCH   1   3
HETATM    3  C2  UNL     1      -2.690   3.268  12.548  1.00  0.00     0.157 C
HETATM    4  C1  UNL     1      -3.049   4.128  11.461  1.00  0.00     0.155 C
HETATM    5  N2  UNL     1      -3.726   3.482  10.400  1.00  0.00    -0.250 N
HETATM    6  S1  UNL     1      -4.235   1.956  11.088  1.00  0.00     0.326 S
ATOM      7  H2  UNL     1      -3.882   3.826   9.453  1.00  0.00     0.182 HD
HETATM    8  O1  UNL     1      -5.619   2.063  11.630  1.00  0.00    -0.182 OA
HETATM    9  O2  UNL     1      -4.038   0.834  10.143  1.00  0.00    -0.182 OA
HETATM   10  N3  UNL     1      -3.065   1.920  12.389  1.00  0.00    -0.250 N
ATOM     11  H3  UNL     1      -2.733   1.110  12.912  1.00  0.00     0.182 HD
BRANCH   4  12
HETATM   12  N1  UNL     1      -2.793   5.416  11.406  1.00  0.00    -0.382 N
ATOM     13  H12 UNL     1      -2.916   6.001  10.579  1.00  0.00     0.157 HD
ATOM     14  H11 UNL     1      -2.445   5.912  12.227  1.00  0.00     0.157 HD
ENDBRANCH   4  12
ENDBRANCH   1   3
BRANCH   1  15
HETATM   15  C3  UNL     1      -2.718   4.039  14.841  1.00  0.00     0.121 C
BRANCH  15  16
HETATM   16  C4  UNL     1      -4.192   4.284  14.649  1.00  0.00     0.027 C
BRANCH  16  17
HETATM   17  C5  UNL     1      -5.042   3.453  15.586  1.00  0.00     0.021 C
HETATM   18  C6  UNL     1      -5.054   1.995  15.177  1.00  0.00     0.007 C
HETATM   19  C7  UNL     1      -4.566   1.117  16.279  1.00  0.00     0.000 C
HETATM   20  C8  UNL     1      -5.660   0.342  16.962  1.00  0.00     0.000 C
HETATM   21  C9  UNL     1      -6.921   1.146  17.138  1.00  0.00     0.000 C
HETATM   22  C10 UNL     1      -6.606   2.498  17.782  1.00  0.00     0.003 C
HETATM   23  C11 UNL     1      -7.132   3.636  16.993  1.00  0.00     0.037 C
HETATM   24  C12 UNL     1      -6.419   3.994  15.757  1.00  0.00     0.174 C
HETATM   25  F1  UNL     1      -6.311   5.393  15.718  1.00  0.00    -0.249 F
ENDBRANCH  16  17
ENDBRANCH  15  16
ENDBRANCH   1  15
TORSDOF 5
ENDMDL