MODEL 3
REMARK VINA RESULT: -6.433746529      2.559      5.886
REMARK  5 active torsions:
REMARK  status: ('A' for Active; 'I' for Inactive)
REMARK    1  A    between atoms: C2_2  and  C3_3
REMARK    2  A    between atoms: C3_3  and  N1_4
REMARK    3  A    between atoms: C6_11  and  C7_12
REMARK    4  A    between atoms: C9_14  and  C10_15
REMARK    5  A    between atoms: C10_15  and  O3_16
ROOT
HETATM    1  N1  UNL     1      -1.501   4.817   9.991  1.00  0.00    -0.320 N
HETATM    2  C4  UNL     1      -2.006   6.088  10.396  1.00  0.00     0.326 C
HETATM    3  O1  UNL     1      -1.367   7.143  10.203  1.00  0.00    -0.247 OA
HETATM    4  N2  UNL     1      -3.285   6.032  11.024  1.00  0.00    -0.278 N
ATOM      5  H2  UNL     1      -3.769   6.861  11.367  1.00  0.00     0.173 HD
HETATM    6  C5  UNL     1      -3.826   4.731  11.131  1.00  0.00     0.237 C
HETATM    7  O2  UNL     1      -5.054   4.526  10.783  1.00  0.00    -0.272 OA
HETATM    8  C6  UNL     1      -2.982   3.619  11.641  1.00  0.00     0.072 C
HETATM    9  C9  UNL     1      -3.655   2.333  11.346  1.00  0.00     0.033 C
HETATM   10  C11 UNL     1      -2.791   1.092  11.437  1.00  0.00    -0.011 C
HETATM   11  C12 UNL     1      -3.253   0.004  10.479  1.00  0.00     0.010 C
HETATM   12  C13 UNL     1      -1.345   1.323  11.109  1.00  0.00     0.007 C
HETATM   13  C14 UNL     1      -1.303   2.472  10.120  1.00  0.00     0.033 C
HETATM   14  C15 UNL     1      -1.648   3.714  10.910  1.00  0.00     0.050 C
HETATM   15  C16 UNL     1      -0.470   3.885  11.877  1.00  0.00     0.040 C
ENDROOT
BRANCH   1  16
HETATM   16  C3  UNL     1      -0.844   4.689   8.673  1.00  0.00     0.155 C
BRANCH  16  17
HETATM   17  C2  UNL     1      -1.704   5.049   7.549  1.00  0.00    -0.017 C
HETATM   18  C1  UNL     1      -1.228   5.699   6.484  1.00  0.00     0.008 C
ENDBRANCH  16  17
ENDBRANCH   1  16
BRANCH   8  19
HETATM   19  C7  UNL     1      -2.782   3.919  13.107  1.00  0.00     0.018 C
HETATM   20  C8  UNL     1      -3.868   4.552  13.868  1.00  0.00     0.006 C
ENDBRANCH   8  19
BRANCH   9  21
HETATM   21  C10 UNL     1      -4.879   1.987  12.119  1.00  0.00     0.170 C
BRANCH  21  22
HETATM   22  O3  UNL     1      -5.976   1.965  11.196  1.00  0.00    -0.400 OA
ATOM     23  H3  UNL     1      -6.767   2.141  11.691  1.00  0.00     0.209 HD
ENDBRANCH  21  22
ENDBRANCH   9  21
TORSDOF 5
ENDMDL