MODEL 1
REMARK VINA RESULT: -7.337775780      0.000      0.000
REMARK  5 active torsions:
REMARK  status: ('A' for Active; 'I' for Inactive)
REMARK    1  A    between atoms: C2_2  and  N1_3
REMARK    2  A    between atoms: N1_3  and  C3_5
REMARK    3  A    between atoms: C4_8  and  N3_9
REMARK    4  A    between atoms: N3_9  and  C5_11
REMARK    5  A    between atoms: N5_17  and  C9_19
ROOT
HETATM    1  C3  UNL     1      -4.559   1.248  15.641  1.00  0.00     0.707 A
HETATM    2  N2  UNL     1      -4.242   0.651  14.466  1.00  0.00    -0.022 N
ATOM      3  H2  UNL     1      -4.418  -0.347  14.343  1.00  0.00     0.203 HD
HETATM    4  C4  UNL     1      -3.697   1.360  13.462  1.00  0.00     0.707 A
HETATM    5  N4  UNL     1      -3.474   2.674  13.655  1.00  0.00    -0.021 N
ATOM      6  H4  UNL     1      -3.060   3.217  12.897  1.00  0.00     0.203 HD
HETATM    7  C8  UNL     1      -3.776   3.298  14.805  1.00  0.00     0.707 A
HETATM    8  N5  UNL     1      -3.595   4.515  15.046  1.00  0.00    -0.216 N
ATOM      9  H5  UNL     1      -3.893   4.792  15.981  1.00  0.00     0.178 HD
HETATM   10  N6  UNL     1      -4.330   2.561  15.816  1.00  0.00    -0.021 N
ATOM     11  H6  UNL     1      -4.569   3.007  16.701  1.00  0.00     0.203 HD
ENDROOT
BRANCH   8  12
HETATM   12  C9  UNL     1      -3.063   5.586  14.286  1.00  0.00     0.043 C
HETATM   13  C10 UNL     1      -3.922   5.813  13.066  1.00  0.00     0.039 C
HETATM   14  C11 UNL     1      -1.599   5.433  13.938  1.00  0.00     0.031 C
HETATM   15  C12 UNL     1      -1.193   6.524  13.006  1.00  0.00     0.002 C
HETATM   16  C13 UNL     1      -1.693   7.880  13.417  1.00  0.00     0.000 C
HETATM   17  C14 UNL     1      -2.277   7.929  14.782  1.00  0.00     0.002 C
HETATM   18  C15 UNL     1      -3.226   6.847  15.129  1.00  0.00     0.031 C
ENDBRANCH   8  12
BRANCH   4  19
HETATM   19  N3  UNL     1      -3.418   0.761  12.387  1.00  0.00    -0.221 N
ATOM     20  H3  UNL     1      -2.598   1.123  11.901  1.00  0.00     0.178 HD
BRANCH  19  21
HETATM   21  C5  UNL     1      -4.052  -0.330  11.741  1.00  0.00     0.091 C
HETATM   22  C6  UNL     1      -3.169  -1.478  11.377  1.00  0.00     0.032 C
HETATM   23  C7  UNL     1      -4.856   0.136  10.543  1.00  0.00     0.032 C
ENDBRANCH  19  21
ENDBRANCH   4  19
BRANCH   1  24
HETATM   24  N1  UNL     1      -5.083   0.542  16.593  1.00  0.00    -0.225 N
ATOM     25  H1  UNL     1      -4.886  -0.457  16.651  1.00  0.00     0.177 HD
BRANCH  24  26
HETATM   26  C2  UNL     1      -5.945   1.163  17.569  1.00  0.00     0.133 C
HETATM   27  C1  UNL     1      -7.367   1.188  17.052  1.00  0.00     0.027 C
ENDBRANCH  24  26
ENDBRANCH   1  24
TORSDOF 5
ENDMDL