MODEL 3
REMARK VINA RESULT: -6.522963035      3.420      5.702
REMARK  4 active torsions:
REMARK  status: ('A' for Active; 'I' for Inactive)
REMARK    1  A    between atoms: C3_3  and  C4_5
REMARK       I    between atoms: N1_6  and  C5_8
REMARK    2  A    between atoms: C5_8  and  C6_10
REMARK    3  A    between atoms: C9_17  and  N4_18
REMARK    4  A    between atoms: C11_23  and  C12_24
ROOT
HETATM    1  C6  UNL     1      -3.869   2.856  11.433  1.00  0.00     0.122 C
HETATM    2  C7  UNL     1      -3.026   3.798  10.630  1.00  0.00     0.035 A
HETATM    3  C8  UNL     1      -1.692   3.496  10.401  1.00  0.00     0.095 A
HETATM    4  N2  UNL     1      -1.130   4.471   9.664  1.00  0.00    -0.292 N
ATOM      5  H2  UNL     1      -0.160   4.504   9.350  1.00  0.00     0.187 HD
HETATM    6  N3  UNL     1      -2.059   5.383   9.418  1.00  0.00    -0.284 N
ATOM      7  H3  UNL     1      -1.916   6.237   8.879  1.00  0.00     0.188 HD
HETATM    8  C9  UNL     1      -3.240   5.005   9.995  1.00  0.00     0.123 A
HETATM    9  S1  UNL     1      -0.990   1.982  11.065  1.00  0.00    -0.110 SA
HETATM   10  C10 UNL     1      -2.380   0.854  11.392  1.00  0.00     0.086 C
HETATM   11  C11 UNL     1      -3.648   1.492  10.859  1.00  0.00     0.013 C
ENDROOT
BRANCH   1  12
HETATM   12  C5  UNL     1      -3.527   2.951  12.880  1.00  0.00     0.230 C
HETATM   13  N1  UNL     1      -4.321   2.326  13.869  1.00  0.00    -0.335 N
HETATM   14  C4  UNL     1      -4.562   2.884  15.005  1.00  0.00     0.114 C
ATOM     15  H1  UNL     1      -4.716   1.406  13.677  1.00  0.00     0.168 HD
HETATM   16  O1  UNL     1      -2.505   3.609  13.205  1.00  0.00    -0.272 OA
BRANCH  14  17
HETATM   17  C3  UNL     1      -5.368   2.255  16.015  1.00  0.00     0.045 C
HETATM   18  C2  UNL     1      -5.106   1.033  16.451  1.00  0.00    -0.006 C
HETATM   19  C1  UNL     1      -5.966   0.415  17.499  1.00  0.00     0.038 C
HETATM   20 CL1  UNL     1      -6.727   3.142  16.672  1.00  0.00    -0.083 Cl
ENDBRANCH  14  17
ENDBRANCH   1  12
BRANCH  11  21
HETATM   21  C12 UNL     1      -4.807   0.577  11.073  1.00  0.00     0.002 C
HETATM   22  C13 UNL     1      -4.312  -0.673  11.782  1.00  0.00     0.005 C
ENDBRANCH  11  21
BRANCH   8  23
HETATM   23  N4  UNL     1      -4.354   5.642   9.964  1.00  0.00    -0.384 N
ATOM     24  H42 UNL     1      -5.256   5.288   9.646  1.00  0.00     0.157 HD
ATOM     25  H41 UNL     1      -4.490   6.609  10.260  1.00  0.00     0.157 HD
ENDBRANCH   8  23
TORSDOF 4
ENDMDL