MODEL 1
REMARK VINA RESULT: -7.169177828      0.000      0.000
REMARK  3 active torsions:
REMARK  status: ('A' for Active; 'I' for Inactive)
REMARK    1  A    between atoms: N1_2  and  C3_4
REMARK    2  A    between atoms: C3_4  and  C4_5
REMARK    3  A    between atoms: C7_8  and  C8_9
ROOT
HETATM    1  C8  UNL     1      -3.730   2.371  12.447  1.00  0.00     0.086 A
HETATM    2  N2  UNL     1      -3.422   1.607  13.521  1.00  0.00    -0.339 N
ATOM      3  H2  UNL     1      -2.680   0.908  13.545  1.00  0.00     0.167 HD
HETATM    4  C9  UNL     1      -4.233   1.901  14.553  1.00  0.00     0.129 A
HETATM    5  C10 UNL     1      -4.309   1.404  15.830  1.00  0.00     0.275 A
HETATM    6  O1  UNL     1      -3.495   0.495  16.174  1.00  0.00    -0.266 OA
HETATM    7  N3  UNL     1      -5.240   1.899  16.656  1.00  0.00    -0.312 N
ATOM      8  H3  UNL     1      -5.298   1.531  17.606  1.00  0.00     0.170 HD
HETATM    9  C11 UNL     1      -6.108   2.871  16.281  1.00  0.00     0.108 A
HETATM   10 CL1  UNL     1      -7.281   3.456  17.412  1.00  0.00    -0.064 Cl
HETATM   11  C12 UNL     1      -6.038   3.376  14.999  1.00  0.00     0.074 A
HETATM   12  C13 UNL     1      -5.088   2.891  14.108  1.00  0.00     0.069 A
HETATM   13  N4  UNL     1      -4.756   3.147  12.842  1.00  0.00    -0.344 N
ATOM     14  H4  UNL     1      -5.219   3.839  12.252  1.00  0.00     0.167 HD
ENDROOT
BRANCH   1  15
HETATM   15  C7  UNL     1      -3.072   2.354  11.116  1.00  0.00     0.053 C
HETATM   16  C6  UNL     1      -3.370   3.681  10.455  1.00  0.00     0.013 C
HETATM   17  C5  UNL     1      -2.091   4.512  10.530  1.00  0.00     0.007 C
HETATM   18  C4  UNL     1      -1.057   3.863   9.632  1.00  0.00     0.014 C
HETATM   19  C15 UNL     1      -0.755   2.477  10.158  1.00  0.00     0.007 C
HETATM   20  C14 UNL     1      -1.599   2.137  11.347  1.00  0.00     0.013 C
BRANCH  18  21
HETATM   21  C3  UNL     1       0.199   4.687   9.676  1.00  0.00     0.275 C
BRANCH  21  22
HETATM   22  N1  UNL     1       1.333   4.013  10.225  1.00  0.00     0.080 N
HETATM   23  C1  UNL     1       2.383   4.003   9.233  1.00  0.00     0.309 C
HETATM   24  C2  UNL     1       1.829   4.557  11.448  1.00  0.00     0.309 C
ENDBRANCH  21  22
ENDBRANCH  18  21
ENDBRANCH   1  15
TORSDOF 3
ENDMDL