MODEL 2
REMARK VINA RESULT: -6.738778632      1.061      1.373
REMARK  5 active torsions:
REMARK  status: ('A' for Active; 'I' for Inactive)
REMARK    1  A    between atoms: N1_2  and  C2_4
REMARK    2  A    between atoms: C3_7  and  N3_8
REMARK    3  A    between atoms: N3_8  and  C4_10
REMARK    4  A    between atoms: C6_12  and  C7_13
REMARK    5  A    between atoms: C11_21  and  N6_22
ROOT
HETATM    1  C2  UNL     1      -1.893   2.596  11.119  1.00  0.00     0.126 A
HETATM    2  N2  UNL     1      -2.221   2.807  12.422  1.00  0.00    -0.327 N
ATOM      3  H2  UNL     1      -2.600   2.020  12.948  1.00  0.00     0.169 HD
HETATM    4  C3  UNL     1      -2.082   3.968  13.059  1.00  0.00     0.110 A
HETATM    5  C10 UNL     1      -1.574   5.034  12.364  1.00  0.00     0.079 A
HETATM    6  C11 UNL     1      -1.214   4.904  11.033  1.00  0.00     0.059 A
HETATM    7  C14 UNL     1      -1.382   3.660  10.415  1.00  0.00     0.104 A
HETATM    8 CL1  UNL     1      -0.919   3.533   8.737  1.00  0.00    -0.078 Cl
ENDROOT
BRANCH   4   9
HETATM    9  N3  UNL     1      -2.455   4.067  14.404  1.00  0.00    -0.327 N
ATOM     10  H3  UNL     1      -2.076   4.852  14.933  1.00  0.00     0.169 HD
BRANCH   9  11
HETATM   11  C4  UNL     1      -3.229   3.262  15.030  1.00  0.00     0.123 A
HETATM   12  C5  UNL     1      -4.575   3.489  15.204  1.00  0.00     0.076 A
HETATM   13  C6  UNL     1      -5.077   2.421  15.917  1.00  0.00     0.033 A
HETATM   14  N4  UNL     1      -4.064   1.574  16.166  1.00  0.00    -0.303 N
HETATM   15  N5  UNL     1      -2.976   2.099  15.627  1.00  0.00    -0.285 N
ATOM     16  H4  UNL     1      -4.123   0.692  16.675  1.00  0.00     0.186 HD
ATOM     17  H5  UNL     1      -2.054   1.665  15.665  1.00  0.00     0.188 HD
BRANCH  13  18
HETATM   18  C7  UNL     1      -6.491   2.251  16.329  1.00  0.00     0.037 A
HETATM   19  C8  UNL     1      -6.731   2.305  17.848  1.00  0.00     0.011 A
HETATM   20  C9  UNL     1      -6.954   1.053  17.049  1.00  0.00     0.011 A
ENDBRANCH  13  18
ENDBRANCH   9  11
ENDBRANCH   4   9
BRANCH   1  21
HETATM   21  N1  UNL     1      -2.077   1.437  10.633  1.00  0.00    -0.379 N
HETATM   22  C1  UNL     1      -2.740   0.296  11.130  1.00  0.00     0.147 C
ATOM     23  H1  UNL     1      -1.666   1.307   9.708  1.00  0.00     0.160 HD
ENDBRANCH   1  21
BRANCH   6  24
HETATM   24  N6  UNL     1      -0.686   6.000  10.302  1.00  0.00    -0.388 N
HETATM   25  C12 UNL     1      -1.564   6.878   9.563  1.00  0.00     0.149 C
HETATM   26  C13 UNL     1       0.731   6.235  10.300  1.00  0.00     0.149 C
ENDBRANCH   6  24
TORSDOF 5
ENDMDL