MODEL 3
REMARK VINA RESULT: -7.254557115      0.616      1.233
REMARK  6 active torsions:
REMARK  status: ('A' for Active; 'I' for Inactive)
REMARK    1  A    between atoms: C7_7  and  C8_8
REMARK    2  A    between atoms: C8_8  and  N2_12
REMARK       I    between atoms: N2_12  and  C9_14
REMARK    3  A    between atoms: C9_14  and  C10_16
REMARK    4  A    between atoms: C10_16  and  C11_17
REMARK    5  A    between atoms: C11_17  and  N3_18
REMARK    6  A    between atoms: C14_21  and  O2_22
ROOT
HETATM    1  N2  UNL     1      -3.825   4.273  12.765  1.00  0.00    -0.316 N
ATOM      2  H2  UNL     1      -3.378   3.721  13.497  1.00  0.00     0.170 HD
HETATM    3  C9  UNL     1      -4.806   5.189  13.152  1.00  0.00     0.227 C
HETATM    4  O1  UNL     1      -5.422   5.918  12.387  1.00  0.00    -0.273 OA
ENDROOT
BRANCH   1   5
HETATM    5  C8  UNL     1      -3.416   4.058  11.449  1.00  0.00     0.081 C
HETATM    6  N1  UNL     1      -3.033   5.083  10.722  1.00  0.00    -0.388 N
ATOM      7  H12 UNL     1      -2.734   4.926   9.760  1.00  0.00     0.157 HD
ATOM      8  H11 UNL     1      -3.079   6.001  11.162  1.00  0.00     0.157 HD
BRANCH   5   9
HETATM    9  C7  UNL     1      -3.352   2.754  10.823  1.00  0.00     0.056 C
HETATM   10  C2  UNL     1      -2.272   1.908  11.530  1.00  0.00    -0.007 C
HETATM   11  C1  UNL     1      -0.930   2.496  11.169  1.00  0.00     0.011 C
HETATM   12  C3  UNL     1      -2.439   0.505  10.992  1.00  0.00     0.005 C
HETATM   13  C4  UNL     1      -3.612  -0.102  11.768  1.00  0.00     0.000 C
HETATM   14  C5  UNL     1      -4.627   0.952  12.037  1.00  0.00     0.001 C
HETATM   15  C6  UNL     1      -4.686   2.041  10.988  1.00  0.00     0.013 C
ENDBRANCH   5   9
ENDBRANCH   1   5
BRANCH   3  16
HETATM   16  C10 UNL     1      -5.121   5.276  14.625  1.00  0.00     0.148 C
BRANCH  16  17
HETATM   17  C11 UNL     1      -6.210   4.268  14.907  1.00  0.00     0.077 C
BRANCH  17  18
HETATM   18  N3  UNL     1      -5.728   3.287  15.793  1.00  0.00    -0.354 N
HETATM   19  C12 UNL     1      -6.531   2.901  16.874  1.00  0.00     0.070 C
HETATM   20  C13 UNL     1      -6.943   1.444  16.665  1.00  0.00     0.077 C
HETATM   21  C14 UNL     1      -5.704   0.566  16.696  1.00  0.00     0.127 C
HETATM   22  C15 UNL     1      -4.455   1.356  16.394  1.00  0.00     0.077 C
HETATM   23  C16 UNL     1      -4.697   2.444  15.374  1.00  0.00     0.070 C
BRANCH  21  24
HETATM   24  O2  UNL     1      -5.582   0.113  18.017  1.00  0.00    -0.395 OA
ATOM     25  H2  UNL     1      -4.809  -0.438  18.036  1.00  0.00     0.210 HD
ENDBRANCH  21  24
ENDBRANCH  17  18
ENDBRANCH  16  17
ENDBRANCH   3  16
TORSDOF 6
ENDMDL