MODEL 4
REMARK VINA RESULT: -6.956122905      1.981      2.927
REMARK  5 active torsions:
REMARK  status: ('A' for Active; 'I' for Inactive)
REMARK    1  A    between atoms: C5_5  and  O1_6
REMARK    2  A    between atoms: C6_8  and  N1_9
REMARK       I    between atoms: N1_9  and  C7_11
REMARK    3  A    between atoms: C7_11  and  C8_13
REMARK    4  A    between atoms: C11_16  and  C12_17
REMARK    5  A    between atoms: C12_17  and  N3_21
ROOT
HETATM    1  N1  UNL     1      -3.721   2.184  14.220  1.00  0.00    -0.354 N
ATOM      2  H1  UNL     1      -2.791   2.088  14.627  1.00  0.00     0.163 HD
HETATM    3  C7  UNL     1      -3.828   2.369  12.814  1.00  0.00     0.223 C
HETATM    4  O2  UNL     1      -5.006   2.482  12.360  1.00  0.00    -0.273 OA
ENDROOT
BRANCH   3   5
HETATM    5  C8  UNL     1      -2.618   2.416  12.007  1.00  0.00     0.089 C
HETATM    6  C9  UNL     1      -2.761   2.939  10.596  1.00  0.00     0.015 C
HETATM    7  C10 UNL     1      -1.585   2.048  10.254  1.00  0.00     0.014 C
HETATM    8  C11 UNL     1      -2.060   1.167  11.423  1.00  0.00     0.066 C
BRANCH   8   9
HETATM    9  C12 UNL     1      -2.986   0.158  10.890  1.00  0.00     0.077 C
HETATM   10  N2  UNL     1      -3.550   0.311   9.762  1.00  0.00    -0.389 N
ATOM     11  H22 UNL     1      -3.359   1.146   9.209  1.00  0.00     0.157 HD
ATOM     12  H21 UNL     1      -4.193  -0.389   9.392  1.00  0.00     0.157 HD
BRANCH   9  13
HETATM   13  N3  UNL     1      -3.252  -0.998  11.655  1.00  0.00    -0.379 N
HETATM   14  C13 UNL     1      -2.579  -2.264  11.458  1.00  0.00     0.150 C
HETATM   15  C14 UNL     1      -4.271  -0.877  12.700  1.00  0.00     0.150 C
ENDBRANCH   9  13
ENDBRANCH   8   9
ENDBRANCH   3   5
BRANCH   1  16
HETATM   16  C6  UNL     1      -4.868   2.124  15.106  1.00  0.00     0.113 C
HETATM   17  C5  UNL     1      -5.169   3.509  15.576  1.00  0.00     0.140 C
HETATM   18  C4  UNL     1      -6.499   3.688  16.226  1.00  0.00     0.034 C
HETATM   19  C3  UNL     1      -7.282   2.422  16.408  1.00  0.00     0.007 C
HETATM   20  C2  UNL     1      -6.697   1.490  17.432  1.00  0.00    -0.019 C
HETATM   21  C1  UNL     1      -6.187   2.213  18.649  1.00  0.00     0.010 C
HETATM   22  C16 UNL     1      -5.659   0.562  16.852  1.00  0.00     0.006 C
HETATM   23  C15 UNL     1      -4.459   1.290  16.322  1.00  0.00     0.028 C
BRANCH  17  24
HETATM   24  O1  UNL     1      -5.008   4.468  14.581  1.00  0.00    -0.394 OA
ATOM     25  H1  UNL     1      -4.966   4.040  13.734  1.00  0.00     0.210 HD
ENDBRANCH  17  24
ENDBRANCH   1  16
TORSDOF 5
ENDMDL