MODEL 4
REMARK VINA RESULT: -7.473667691      3.031      6.447
REMARK  6 active torsions:
REMARK  status: ('A' for Active; 'I' for Inactive)
REMARK    1  A    between atoms: O1_1  and  C1_3
REMARK    2  A    between atoms: N1_10  and  C7_12
REMARK    3  A    between atoms: C7_12  and  C8_13
REMARK    4  A    between atoms: C8_13  and  C9_14
REMARK    5  A    between atoms: C9_14  and  N2_15
REMARK    6  A    between atoms: N2_15  and  C10_17
ROOT
HETATM    1  C9  UNL     1      -2.124   0.854  11.373  1.00  0.00     0.123 C
ENDROOT
BRANCH   1   2
HETATM    2  C8  UNL     1      -3.608   0.546  11.319  1.00  0.00     0.039 C
BRANCH   2   3
HETATM    3  C7  UNL     1      -4.383   1.501  12.233  1.00  0.00     0.121 C
BRANCH   3   4
HETATM    4  N1  UNL     1      -4.377   1.047  13.577  1.00  0.00    -0.392 N
HETATM    5  C6  UNL     1      -4.586   1.691  14.633  1.00  0.00     0.045 C
HETATM    6  C1  UNL     1      -4.527   0.999  15.946  1.00  0.00     0.166 C
HETATM    7  C5  UNL     1      -4.893   3.134  14.593  1.00  0.00     0.217 C
HETATM    8  C2  UNL     1      -5.287   1.784  17.009  1.00  0.00     0.038 C
HETATM    9  C3  UNL     1      -6.514   2.366  16.344  1.00  0.00     0.006 C
HETATM   10  C4  UNL     1      -6.139   3.471  15.387  1.00  0.00     0.043 C
HETATM   11  F1  UNL     1      -3.791   3.805  15.138  1.00  0.00    -0.243 F
ATOM     12  H1  UNL     1      -4.174   0.056  13.703  1.00  0.00     0.159 HD
BRANCH   6  13
HETATM   13  O1  UNL     1      -3.183   0.851  16.287  1.00  0.00    -0.390 OA
ATOM     14  H1  UNL     1      -2.662   0.588  15.537  1.00  0.00     0.210 HD
ENDBRANCH   6  13
ENDBRANCH   3   4
ENDBRANCH   2   3
ENDBRANCH   1   2
BRANCH   1  15
HETATM   15  N2  UNL     1      -1.804   2.145  10.888  1.00  0.00    -0.375 N
ATOM     16  H2  UNL     1      -2.128   2.327   9.938  1.00  0.00     0.161 HD
BRANCH  15  17
HETATM   17  C10 UNL     1      -1.195   3.104  11.414  1.00  0.00     0.124 A
HETATM   18  N3  UNL     1      -1.435   3.583  12.642  1.00  0.00    -0.285 N
HETATM   19  N4  UNL     1      -0.619   4.591  12.881  1.00  0.00    -0.303 N
ATOM     20  H3  UNL     1      -2.137   3.224  13.289  1.00  0.00     0.188 HD
HETATM   21  C11 UNL     1       0.176   4.813  11.840  1.00  0.00     0.036 A
ATOM     22  H4  UNL     1      -0.602   5.127  13.748  1.00  0.00     0.186 HD
HETATM   23  C12 UNL     1      -0.183   3.859  10.880  1.00  0.00     0.011 A
HETATM   24  C16 UNL     1       1.260   5.748  11.477  1.00  0.00     0.059 C
HETATM   25  C13 UNL     1       0.582   3.916   9.620  1.00  0.00     0.044 C
HETATM   26  C14 UNL     1       2.073   3.910   9.982  1.00  0.00     0.005 C
HETATM   27  C15 UNL     1       2.434   5.067  10.851  1.00  0.00     0.006 C
ENDBRANCH  15  17
ENDBRANCH   1  15
TORSDOF 6
ENDMDL