MODEL 4
REMARK VINA RESULT: -6.671923321      1.639      2.553
REMARK  6 active torsions:
REMARK  status: ('A' for Active; 'I' for Inactive)
REMARK    1  A    between atoms: C2_2  and  N1_3
REMARK    2  A    between atoms: C2_2  and  C10_17
REMARK    3  A    between atoms: N1_3  and  N2_5
REMARK    4  A    between atoms: N2_5  and  C3_7
REMARK    5  A    between atoms: C3_7  and  N3_9
REMARK    6  A    between atoms: N3_9  and  C4_11
ROOT
HETATM    1  N1  UNL     1      -3.024   2.035  15.618  1.00  0.00    -0.301 N
ATOM      2  H1  UNL     1      -2.193   1.537  15.937  1.00  0.00     0.186 HD
ENDROOT
BRANCH   1   3
HETATM    3  C2  UNL     1      -4.148   1.436  15.604  1.00  0.00     0.051 C
HETATM    4  C1  UNL     1      -4.281   0.317  14.670  1.00  0.00     0.072 C
BRANCH   3   5
HETATM    5  C10 UNL     1      -5.223   1.888  16.474  1.00  0.00     0.096 A
HETATM    6  N4  UNL     1      -5.483   1.548  17.743  1.00  0.00    -0.348 N
HETATM    7  C11 UNL     1      -6.545   2.168  18.224  1.00  0.00     0.182 A
ATOM      8  H4  UNL     1      -4.924   0.884  18.277  1.00  0.00     0.167 HD
HETATM    9  N5  UNL     1      -6.988   2.945  17.218  1.00  0.00    -0.341 N
HETATM   10  C12 UNL     1      -6.221   2.813  16.133  1.00  0.00     0.133 A
ATOM     11  H5  UNL     1      -7.803   3.555  17.277  1.00  0.00     0.167 HD
HETATM   12 CL1  UNL     1      -6.384   3.603  14.588  1.00  0.00    -0.062 Cl
ENDBRANCH   3   5
ENDBRANCH   1   3
BRANCH   1  13
HETATM   13  N2  UNL     1      -2.914   3.348  15.208  1.00  0.00    -0.276 N
ATOM     14  H2  UNL     1      -2.890   4.049  15.949  1.00  0.00     0.189 HD
BRANCH  13  15
HETATM   15  C3  UNL     1      -2.831   3.835  13.894  1.00  0.00     0.186 C
HETATM   16  S1  UNL     1      -1.578   4.899  13.550  1.00  0.00    -0.040 SA
BRANCH  15  17
HETATM   17  N3  UNL     1      -3.665   3.547  12.820  1.00  0.00    -0.361 N
ATOM     18  H3  UNL     1      -4.624   3.889  12.894  1.00  0.00     0.162 HD
BRANCH  17  19
HETATM   19  C4  UNL     1      -3.348   2.836  11.632  1.00  0.00     0.083 C
HETATM   20  C5  UNL     1      -4.631   2.335  10.990  1.00  0.00     0.025 C
HETATM   21  C6  UNL     1      -4.724   0.823  11.248  1.00  0.00     0.002 C
HETATM   22  C7  UNL     1      -3.626   0.068  10.540  1.00  0.00     0.000 C
HETATM   23  C8  UNL     1      -2.308   0.795  10.689  1.00  0.00     0.002 C
HETATM   24  C9  UNL     1      -2.405   1.672  11.912  1.00  0.00     0.025 C
ENDBRANCH  17  19
ENDBRANCH  15  17
ENDBRANCH  13  15
ENDBRANCH   1  13
TORSDOF 6
ENDMDL