MODEL 2
REMARK VINA RESULT: -7.627529259      1.422      3.138
REMARK  7 active torsions:
REMARK  status: ('A' for Active; 'I' for Inactive)
REMARK    1  A    between atoms: C2_2  and  N1_4
REMARK    2  A    between atoms: N1_4  and  C4_6
REMARK    3  A    between atoms: C4_6  and  C5_7
REMARK    4  A    between atoms: C5_7  and  C8_10
REMARK    5  A    between atoms: C8_10  and  N2_11
REMARK    6  A    between atoms: N2_11  and  C9_13
REMARK    7  A    between atoms: C10_16  and  N4_17
ROOT
HETATM    1  C9  UNL     1     -37.525 -60.747 -45.091  1.00  0.00     0.136 A
HETATM    2  N3  UNL     1     -36.266 -61.187 -44.959  1.00  0.00    -0.176 N
ATOM      3  H3  UNL     1     -35.621 -61.031 -45.734  1.00  0.00     0.186 HD
HETATM    4  C10 UNL     1     -35.795 -61.826 -43.860  1.00  0.00     0.679 A
HETATM    5  N5  UNL     1     -36.632 -62.030 -42.846  1.00  0.00    -0.176 N
ATOM      6  H5  UNL     1     -36.292 -62.509 -42.013  1.00  0.00     0.186 HD
HETATM    7  C11 UNL     1     -37.907 -61.626 -42.888  1.00  0.00     0.141 A
HETATM    8  N6  UNL     1     -38.742 -61.849 -41.844  1.00  0.00    -0.337 N
ATOM      9  H6  UNL     1     -38.406 -62.328 -41.008  1.00  0.00     0.168 HD
HETATM   10  C12 UNL     1     -40.015 -61.433 -41.919  1.00  0.00     0.184 A
HETATM   11  N7  UNL     1     -40.497 -60.799 -43.003  1.00  0.00    -0.319 N
ATOM     12  H7  UNL     1     -41.471 -60.497 -43.026  1.00  0.00     0.169 HD
HETATM   13  C13 UNL     1     -39.683 -60.559 -44.073  1.00  0.00     0.264 A
HETATM   14  O1  UNL     1     -40.172 -59.969 -45.062  1.00  0.00    -0.267 OA
HETATM   15  C14 UNL     1     -38.383 -60.971 -44.020  1.00  0.00     0.121 A
ENDROOT
BRANCH   1  16
HETATM   16  N2  UNL     1     -37.965 -60.129 -46.158  1.00  0.00    -0.374 N
ATOM     17  H2  UNL     1     -38.492 -59.272 -45.996  1.00  0.00     0.161 HD
BRANCH  16  18
HETATM   18  C8  UNL     1     -37.795 -60.505 -47.493  1.00  0.00     0.135 C
BRANCH  18  19
HETATM   19  C5  UNL     1     -38.711 -59.699 -48.496  1.00  0.00     0.000 C
HETATM   20  C6  UNL     1     -38.786 -58.347 -47.825  1.00  0.00     0.022 C
HETATM   21  C7  UNL     1     -40.046 -60.341 -48.514  1.00  0.00     0.022 C
BRANCH  19  22
HETATM   22  C4  UNL     1     -37.949 -59.645 -49.775  1.00  0.00     0.066 C
BRANCH  22  23
HETATM   23  N1  UNL     1     -38.567 -59.753 -50.972  1.00  0.00    -0.398 N
ATOM     24  H1  UNL     1     -39.039 -58.888 -51.237  1.00  0.00     0.159 HD
BRANCH  23  25
HETATM   25  C2  UNL     1     -38.719 -60.726 -51.911  1.00  0.00     0.072 C
HETATM   26  C1  UNL     1     -40.016 -61.432 -52.053  1.00  0.00     0.031 C
HETATM   27  C3  UNL     1     -37.649 -61.833 -51.863  1.00  0.00     0.031 C
ENDBRANCH  23  25
ENDBRANCH  22  23
ENDBRANCH  19  22
ENDBRANCH  18  19
ENDBRANCH  16  18
ENDBRANCH   1  16
BRANCH   4  28
HETATM   28  N4  UNL     1     -34.548 -62.223 -43.818  1.00  0.00    -0.234 N
ATOM     29  H42 UNL     1     -34.254 -63.014 -43.247  1.00  0.00     0.174 HD
ATOM     30  H41 UNL     1     -33.840 -61.736 -44.368  1.00  0.00     0.174 HD
ENDBRANCH   4  28
TORSDOF 7
ENDMDL