MODEL 5
REMARK VINA RESULT: -6.388916785      2.255      3.391
REMARK  8 active torsions:
REMARK  status: ('A' for Active; 'I' for Inactive)
REMARK    1  A    between atoms: C2_2  and  C3_3
REMARK    2  A    between atoms: C3_3  and  N1_4
REMARK    3  A    between atoms: N1_4  and  C4_6
REMARK    4  A    between atoms: C4_6  and  N2_8
REMARK       I    between atoms: N2_8  and  C5_10
REMARK       I    between atoms: C5_10  and  N4_15
REMARK    5  A    between atoms: N3_11  and  O1_13
REMARK    6  A    between atoms: N4_15  and  C6_17
REMARK    7  A    between atoms: C6_17  and  C8_19
REMARK    8  A    between atoms: C8_19  and  N5_20
ROOT
HETATM    1  N2  UNL     1     -40.896 -61.362 -46.081  1.00  0.00    -0.165 N
ATOM      2  H2  UNL     1     -41.441 -61.955 -46.707  1.00  0.00     0.186 HD
HETATM    3  C5  UNL     1     -40.362 -60.132 -46.534  1.00  0.00     0.700 C
HETATM    4  N3  UNL     1     -41.125 -59.129 -46.810  1.00  0.00    -0.099 N
ATOM      5  H3  UNL     1     -42.129 -59.263 -46.686  1.00  0.00     0.213 HD
HETATM    6  N4  UNL     1     -38.974 -59.993 -46.679  1.00  0.00    -0.218 N
ATOM      7  H4  UNL     1     -38.462 -59.476 -45.965  1.00  0.00     0.178 HD
ENDROOT
BRANCH   1   8
HETATM    8  C4  UNL     1     -40.658 -61.752 -44.740  1.00  0.00     0.186 C
HETATM    9  S1  UNL     1     -39.676 -60.865 -43.811  1.00  0.00    -0.040 SA
BRANCH   8  10
HETATM   10  N1  UNL     1     -41.288 -62.918 -44.238  1.00  0.00    -0.367 N
ATOM     11  H1  UNL     1     -41.206 -63.163 -43.251  1.00  0.00     0.161 HD
BRANCH  10  12
HETATM   12  C3  UNL     1     -42.046 -63.758 -45.137  1.00  0.00     0.121 C
BRANCH  12  13
HETATM   13  C2  UNL     1     -42.815 -64.753 -44.288  1.00  0.00     0.015 C
HETATM   14  C1  UNL     1     -42.474 -66.144 -44.807  1.00  0.00     0.006 C
ENDBRANCH  12  13
ENDBRANCH  10  12
ENDBRANCH   8  10
ENDBRANCH   1   8
BRANCH   4  15
HETATM   15  O1  UNL     1     -40.718 -57.919 -47.247  1.00  0.00    -0.276 OA
ATOM     16  H1  UNL     1     -40.002 -57.408 -46.890  1.00  0.00     0.245 HD
ENDBRANCH   4  15
BRANCH   6  17
HETATM   17  C6  UNL     1     -38.236 -60.541 -47.782  1.00  0.00     0.113 C
HETATM   18  C7  UNL     1     -36.765 -60.591 -47.342  1.00  0.00     0.034 C
BRANCH  17  19
HETATM   19  C8  UNL     1     -38.394 -59.680 -48.999  1.00  0.00     0.142 C
BRANCH  19  20
HETATM   20  N5  UNL     1     -39.047 -60.323 -50.084  1.00  0.00    -0.410 N
HETATM   21  C9  UNL     1     -38.349 -60.310 -51.326  1.00  0.00     0.117 C
HETATM   22  C10 UNL     1     -38.610 -61.684 -51.964  1.00  0.00     0.019 C
HETATM   23  C11 UNL     1     -40.015 -62.116 -51.531  1.00  0.00     0.003 C
HETATM   24  C12 UNL     1     -40.930 -60.894 -51.412  1.00  0.00     0.019 C
HETATM   25  C13 UNL     1     -40.450 -60.135 -50.182  1.00  0.00     0.117 C
ENDBRANCH  19  20
ENDBRANCH  17  19
ENDBRANCH   6  17
TORSDOF 8
ENDMDL