MODEL 3
REMARK VINA RESULT: -8.859689785      0.807      2.584
REMARK  7 active torsions:
REMARK  status: ('A' for Active; 'I' for Inactive)
REMARK    1  A    between atoms: C3_5  and  C4_6
REMARK    2  A    between atoms: C4_6  and  C5_7
REMARK    3  A    between atoms: C5_7  and  O1_8
REMARK    4  A    between atoms: C6_12  and  C7_13
REMARK    5  A    between atoms: C7_13  and  C8_14
REMARK    6  A    between atoms: C8_14  and  N3_15
REMARK    7  A    between atoms: N3_15  and  C9_17
ROOT
HETATM    1  C9  UNL     1     -38.917 -60.890 -44.139  1.00  0.00     0.117 A
HETATM    2  N4  UNL     1     -40.007 -60.937 -43.357  1.00  0.00    -0.338 N
ATOM      3  H4  UNL     1     -40.901 -60.613 -43.728  1.00  0.00     0.168 HD
HETATM    4  C10 UNL     1     -39.949 -61.406 -42.085  1.00  0.00     0.183 A
HETATM    5  N5  UNL     1     -38.763 -61.835 -41.595  1.00  0.00    -0.338 N
ATOM      6  H5  UNL     1     -38.728 -62.185 -40.638  1.00  0.00     0.168 HD
HETATM    7  C11 UNL     1     -37.640 -61.819 -42.307  1.00  0.00     0.121 A
HETATM    8  N6  UNL     1     -36.347 -62.175 -42.085  1.00  0.00    -0.350 N
ATOM      9  H6  UNL     1     -35.981 -62.565 -41.217  1.00  0.00     0.166 HD
HETATM   10  C12 UNL     1     -35.629 -61.930 -43.196  1.00  0.00     0.113 A
HETATM   11  C13 UNL     1     -36.452 -61.403 -44.177  1.00  0.00     0.077 A
HETATM   12  C14 UNL     1     -36.093 -61.001 -45.511  1.00  0.00     0.102 C
HETATM   13  N7  UNL     1     -35.805 -60.684 -46.603  1.00  0.00    -0.191 NA
HETATM   14  C15 UNL     1     -37.712 -61.334 -43.618  1.00  0.00     0.074 A
ENDROOT
BRANCH   1  15
HETATM   15  N3  UNL     1     -38.910 -60.455 -45.352  1.00  0.00    -0.375 N
ATOM     16  H3  UNL     1     -38.053 -60.117 -45.790  1.00  0.00     0.161 HD
BRANCH  15  17
HETATM   17  C8  UNL     1     -40.171 -60.468 -46.069  1.00  0.00     0.127 C
BRANCH  17  18
HETATM   18  C7  UNL     1     -40.229 -59.356 -47.101  1.00  0.00     0.078 C
BRANCH  18  19
HETATM   19  C6  UNL     1     -39.625 -59.845 -48.366  1.00  0.00     0.034 A
HETATM   20  C2  UNL     1     -40.310 -60.143 -49.522  1.00  0.00     0.029 A
HETATM   21  C1  UNL     1     -41.762 -60.028 -49.700  1.00  0.00     0.070 C
HETATM   22  N1  UNL     1     -39.429 -60.561 -50.465  1.00  0.00    -0.348 N
HETATM   23  C3  UNL     1     -38.211 -60.521 -49.904  1.00  0.00     0.083 A
ATOM     24  H1  UNL     1     -39.650 -60.849 -51.418  1.00  0.00     0.167 HD
HETATM   25  N2  UNL     1     -38.326 -60.086 -48.624  1.00  0.00    -0.347 N
ATOM     26  H2  UNL     1     -37.556 -59.962 -47.966  1.00  0.00     0.167 HD
BRANCH  23  27
HETATM   27  C4  UNL     1     -36.951 -60.898 -50.589  1.00  0.00     0.102 C
BRANCH  27  28
HETATM   28  C5  UNL     1     -37.294 -61.287 -52.019  1.00  0.00     0.171 C
BRANCH  28  29
HETATM   29  O1  UNL     1     -37.660 -62.643 -52.073  1.00  0.00    -0.400 OA
ATOM     30  H1  UNL     1     -38.388 -62.760 -52.672  1.00  0.00     0.209 HD
ENDBRANCH  28  29
ENDBRANCH  27  28
ENDBRANCH  23  27
ENDBRANCH  18  19
ENDBRANCH  17  18
ENDBRANCH  15  17
ENDBRANCH   1  15
TORSDOF 7
ENDMDL