MODEL 3
REMARK VINA RESULT: -7.303013395      1.878      7.324
REMARK  7 active torsions:
REMARK  status: ('A' for Active; 'I' for Inactive)
REMARK    1  A    between atoms: N1_2  and  C2_4
REMARK    2  A    between atoms: C3_7  and  N3_8
REMARK    3  A    between atoms: N5_15  and  C5_16
REMARK    4  A    between atoms: C5_16  and  C6_17
REMARK    5  A    between atoms: C6_17  and  C7_18
REMARK    6  A    between atoms: C7_18  and  S1_19
REMARK    7  A    between atoms: S1_19  and  C8_20
ROOT
HETATM    1  C2  UNL     1     -39.142 -60.551 -51.169  1.00  0.00     0.698 A
HETATM    2  N2  UNL     1     -40.052 -61.168 -51.969  1.00  0.00    -0.022 N
ATOM      3  H2  UNL     1     -39.751 -61.623 -52.830  1.00  0.00     0.203 HD
HETATM    4  C3  UNL     1     -41.351 -61.174 -51.620  1.00  0.00     0.694 A
HETATM    5  N4  UNL     1     -41.712 -60.563 -50.478  1.00  0.00    -0.140 N
ATOM      6  H4  UNL     1     -42.696 -60.565 -50.211  1.00  0.00     0.189 HD
HETATM    7  C4  UNL     1     -40.816 -59.941 -49.666  1.00  0.00     0.355 A
HETATM    8  O1  UNL     1     -41.173 -59.374 -48.602  1.00  0.00    -0.245 OA
HETATM    9  N5  UNL     1     -39.525 -59.949 -50.036  1.00  0.00    -0.132 N
ENDROOT
BRANCH   9  10
HETATM   10  C5  UNL     1     -38.514 -59.309 -49.224  1.00  0.00     0.153 C
BRANCH  10  11
HETATM   11  C6  UNL     1     -38.083 -60.290 -48.171  1.00  0.00     0.031 C
BRANCH  11  12
HETATM   12  C7  UNL     1     -38.118 -59.732 -46.782  1.00  0.00     0.081 C
BRANCH  12  13
HETATM   13  S1  UNL     1     -36.840 -60.431 -45.714  1.00  0.00    -0.128 SA
BRANCH  13  14
HETATM   14  C8  UNL     1     -37.571 -60.992 -44.190  1.00  0.00     0.024 A
HETATM   15  C9  UNL     1     -38.872 -60.809 -43.767  1.00  0.00     0.045 A
HETATM   16  C10 UNL     1     -39.019 -61.401 -42.536  1.00  0.00     0.006 A
HETATM   17  C11 UNL     1     -40.271 -61.432 -41.726  1.00  0.00     0.068 C
HETATM   18  N6  UNL     1     -37.817 -61.940 -42.210  1.00  0.00    -0.362 N
HETATM   19  C12 UNL     1     -36.924 -61.708 -43.193  1.00  0.00     0.022 A
ATOM     20  H6  UNL     1     -37.618 -62.447 -41.347  1.00  0.00     0.165 HD
HETATM   21  C13 UNL     1     -35.509 -62.154 -43.173  1.00  0.00     0.069 C
ENDBRANCH  13  14
ENDBRANCH  12  13
ENDBRANCH  11  12
ENDBRANCH  10  11
ENDBRANCH   9  10
BRANCH   1  22
HETATM   22  N1  UNL     1     -37.892 -60.526 -51.470  1.00  0.00    -0.230 N
HETATM   23  C1  UNL     1     -37.207 -61.773 -51.674  1.00  0.00     0.165 C
ATOM     24  H1  UNL     1     -37.396 -59.638 -51.564  1.00  0.00     0.177 HD
ENDBRANCH   1  22
BRANCH   4  25
HETATM   25  N3  UNL     1     -42.240 -61.764 -52.381  1.00  0.00    -0.234 N
ATOM     26  H32 UNL     1     -42.113 -61.821 -53.392  1.00  0.00     0.174 HD
ATOM     27  H31 UNL     1     -43.078 -62.178 -51.971  1.00  0.00     0.174 HD
ENDBRANCH   4  25
TORSDOF 7
ENDMDL