MODEL 2
REMARK VINA RESULT: -7.256673930      1.850      1.992
REMARK  11 active torsions:
REMARK  status: ('A' for Active; 'I' for Inactive)
REMARK    1  A    between atoms: C2_2  and  C3_3
REMARK    2  A    between atoms: C3_3  and  C4_4
REMARK    3  A    between atoms: C4_4  and  C5_5
REMARK    4  A    between atoms: C5_5  and  N1_6
REMARK    5  A    between atoms: C6_7  and  N2_8
REMARK    6  A    between atoms: C7_13  and  N4_14
REMARK    7  A    between atoms: N4_14  and  C8_16
REMARK    8  A    between atoms: C8_16  and  C9_17
REMARK    9  A    between atoms: C9_17  and  O1_18
REMARK   10  A    between atoms: C11_23  and  C12_24
REMARK   11  A    between atoms: C12_24  and  C13_25
ROOT
HETATM    1  N1  UNL     1     -39.153 -59.673 -47.535  1.00  0.00    -0.155 N
HETATM    2  C6  UNL     1     -40.472 -59.931 -47.554  1.00  0.00     0.682 A
HETATM    3  N3  UNL     1     -41.067 -60.601 -46.530  1.00  0.00    -0.175 N
ATOM      4  H3  UNL     1     -42.070 -60.778 -46.578  1.00  0.00     0.186 HD
HETATM    5  C7  UNL     1     -40.383 -61.037 -45.459  1.00  0.00     0.147 A
HETATM    6  C10 UNL     1     -39.026 -60.788 -45.412  1.00  0.00     0.123 A
HETATM    7  N5  UNL     1     -38.058 -61.079 -44.502  1.00  0.00    -0.340 N
ATOM      8  H5  UNL     1     -38.188 -61.576 -43.621  1.00  0.00     0.167 HD
HETATM    9  C11 UNL     1     -36.888 -60.585 -44.980  1.00  0.00     0.083 A
HETATM   10  N6  UNL     1     -37.156 -60.001 -46.170  1.00  0.00    -0.329 N
ATOM     11  H6  UNL     1     -36.462 -59.542 -46.760  1.00  0.00     0.168 HD
HETATM   12  C15 UNL     1     -38.458 -60.105 -46.468  1.00  0.00     0.156 A
ENDROOT
BRANCH   5  13
HETATM   13  N4  UNL     1     -40.904 -61.673 -44.473  1.00  0.00    -0.372 N
ATOM     14  H4  UNL     1     -41.255 -61.137 -43.679  1.00  0.00     0.161 HD
BRANCH  13  15
HETATM   15  C8  UNL     1     -41.017 -63.117 -44.435  1.00  0.00     0.147 C
BRANCH  15  16
HETATM   16  C9  UNL     1     -42.385 -63.600 -44.866  1.00  0.00     0.183 C
BRANCH  16  17
HETATM   17  O1  UNL     1     -42.379 -63.731 -46.255  1.00  0.00    -0.399 OA
ATOM     18  H1  UNL     1     -43.256 -63.965 -46.532  1.00  0.00     0.209 HD
ENDBRANCH  16  17
ENDBRANCH  15  16
ENDBRANCH  13  15
ENDBRANCH   5  13
BRANCH   2  19
HETATM   19  N2  UNL     1     -41.158 -59.526 -48.567  1.00  0.00    -0.234 N
ATOM     20  H22 UNL     1     -42.166 -59.387 -48.496  1.00  0.00     0.174 HD
ATOM     21  H21 UNL     1     -40.666 -59.348 -49.443  1.00  0.00     0.174 HD
ENDBRANCH   2  19
BRANCH   1  22
HETATM   22  C5  UNL     1     -38.494 -58.957 -48.620  1.00  0.00     0.243 C
BRANCH  22  23
HETATM   23  C4  UNL     1     -38.047 -59.905 -49.647  1.00  0.00    -0.086 C
BRANCH  23  24
HETATM   24  C3  UNL     1     -37.684 -60.673 -50.503  1.00  0.00    -0.105 C
BRANCH  24  25
HETATM   25  C2  UNL     1     -37.253 -61.597 -51.567  1.00  0.00     0.089 C
HETATM   26  C1  UNL     1     -38.490 -62.009 -52.316  1.00  0.00     0.018 C
ENDBRANCH  24  25
ENDBRANCH  23  24
ENDBRANCH  22  23
ENDBRANCH   1  22
BRANCH   9  27
HETATM   27  C12 UNL     1     -35.550 -60.661 -44.334  1.00  0.00     0.076 C
BRANCH  27  28
HETATM   28  C13 UNL     1     -35.355 -62.071 -43.803  1.00  0.00     0.003 C
HETATM   29  C14 UNL     1     -36.094 -62.139 -42.476  1.00  0.00     0.005 C
ENDBRANCH  27  28
ENDBRANCH   9  27
TORSDOF 11
ENDMDL