MODEL 3
REMARK VINA RESULT: -7.363058545      1.038      2.079
REMARK  7 active torsions:
REMARK  status: ('A' for Active; 'I' for Inactive)
REMARK    1  A    between atoms: C3_3  and  N1_4
REMARK    2  A    between atoms: N1_4  and  C5_6
REMARK    3  A    between atoms: C5_6  and  C6_7
REMARK    4  A    between atoms: C9_14  and  N4_15
REMARK    5  A    between atoms: N4_15  and  C10_17
REMARK    6  A    between atoms: C10_17  and  C11_18
REMARK    7  A    between atoms: C14_26  and  N7_27
ROOT
HETATM    1  C1  UNL     1     -35.976 -61.970 -42.954  1.00  0.00     0.098 C
HETATM    2  C2  UNL     1     -37.193 -61.836 -42.881  1.00  0.00    -0.158 C
HETATM    3  C3  UNL     1     -38.638 -61.661 -42.770  1.00  0.00     0.351 C
ENDROOT
BRANCH   3   4
HETATM    4  N1  UNL     1     -39.174 -61.586 -44.137  1.00  0.00     0.098 N
HETATM    5  C4  UNL     1     -40.534 -62.057 -44.028  1.00  0.00     0.311 C
BRANCH   4   6
HETATM    6  C5  UNL     1     -39.061 -60.221 -44.595  1.00  0.00     0.314 C
BRANCH   6   7
HETATM    7  C6  UNL     1     -39.493 -60.014 -45.978  1.00  0.00     0.003 A
HETATM    8  C7  UNL     1     -40.769 -59.639 -46.349  1.00  0.00     0.099 A
HETATM    9  N2  UNL     1     -40.823 -59.563 -47.702  1.00  0.00    -0.350 N
HETATM   10  C8  UNL     1     -39.629 -59.873 -48.233  1.00  0.00     0.135 A
ATOM     11  H2  UNL     1     -41.652 -59.307 -48.240  1.00  0.00     0.166 HD
HETATM   12  N3  UNL     1     -39.164 -59.944 -49.515  1.00  0.00    -0.176 N
HETATM   13  C15 UNL     1     -38.806 -60.152 -47.160  1.00  0.00     0.062 A
HETATM   14  C9  UNL     1     -37.888 -60.290 -49.725  1.00  0.00     0.681 A
ATOM     15  H3  UNL     1     -39.780 -59.735 -50.301  1.00  0.00     0.186 HD
HETATM   16  N6  UNL     1     -37.089 -60.561 -48.685  1.00  0.00    -0.176 N
HETATM   17  C14 UNL     1     -37.517 -60.500 -47.409  1.00  0.00     0.129 A
ATOM     18  H6  UNL     1     -36.120 -60.822 -48.866  1.00  0.00     0.186 HD
BRANCH  14  19
HETATM   19  N4  UNL     1     -37.460 -60.356 -50.956  1.00  0.00    -0.218 N
ATOM     20  H4  UNL     1     -36.819 -59.641 -51.299  1.00  0.00     0.178 HD
BRANCH  19  21
HETATM   21  C10 UNL     1     -37.872 -61.420 -51.847  1.00  0.00     0.222 C
BRANCH  21  22
HETATM   22  C11 UNL     1     -39.353 -61.428 -51.936  1.00  0.00     0.141 A
HETATM   23  N5  UNL     1     -40.197 -62.408 -51.577  1.00  0.00    -0.347 N
HETATM   24  C12 UNL     1     -41.446 -61.955 -51.844  1.00  0.00     0.114 A
ATOM     25  H5  UNL     1     -39.947 -63.314 -51.180  1.00  0.00     0.167 HD
HETATM   26  C13 UNL     1     -41.327 -60.695 -52.368  1.00  0.00     0.161 A
HETATM   27  O1  UNL     1     -40.048 -60.409 -52.408  1.00  0.00    -0.307 OA
ENDBRANCH  21  22
ENDBRANCH  19  21
ENDBRANCH  14  19
BRANCH  17  28
HETATM   28  N7  UNL     1     -36.737 -60.763 -46.434  1.00  0.00    -0.384 N
ATOM     29  H72 UNL     1     -36.006 -61.465 -46.550  1.00  0.00     0.157 HD
ATOM     30  H71 UNL     1     -36.829 -60.285 -45.538  1.00  0.00     0.157 HD
ENDBRANCH  17  28
ENDBRANCH   6   7
ENDBRANCH   4   6
ENDBRANCH   3   4
TORSDOF 7
ENDMDL