MODEL 5
REMARK VINA RESULT: -8.759082391      2.066      7.535
REMARK  6 active torsions:
REMARK  status: ('A' for Active; 'I' for Inactive)
REMARK    1  A    between atoms: C3_4  and  N2_5
REMARK    2  A    between atoms: N2_5  and  C4_7
REMARK    3  A    between atoms: C4_7  and  C5_8
REMARK    4  A    between atoms: C5_8  and  C6_9
REMARK    5  A    between atoms: C6_9  and  N3_10
REMARK    6  A    between atoms: C13_20  and  N5_21
ROOT
HETATM    1  N1  UNL     1     -36.012 -60.801 -50.078  1.00  0.00    -0.191 NA
HETATM    2  C1  UNL     1     -37.106 -60.925 -50.433  1.00  0.00     0.109 C
HETATM    3  C2  UNL     1     -38.484 -61.070 -50.855  1.00  0.00     0.157 A
HETATM    4  C3  UNL     1     -39.493 -60.348 -50.225  1.00  0.00     0.143 A
HETATM    5  N4  UNL     1     -40.729 -60.551 -50.685  1.00  0.00    -0.175 N
ATOM      6  H4  UNL     1     -41.505 -60.045 -50.258  1.00  0.00     0.186 HD
HETATM    7  C13 UNL     1     -40.985 -61.416 -51.712  1.00  0.00     0.680 A
HETATM    8  N6  UNL     1     -40.022 -62.119 -52.329  1.00  0.00    -0.155 N
ATOM      9  H6  UNL     1     -40.230 -62.761 -53.095  1.00  0.00     0.187 HD
HETATM   10  C14 UNL     1     -38.769 -61.930 -51.882  1.00  0.00     0.284 A
HETATM   11  O2  UNL     1     -37.850 -62.587 -52.453  1.00  0.00    -0.266 OA
ENDROOT
BRANCH   4  12
HETATM   12  N2  UNL     1     -39.168 -59.504 -49.153  1.00  0.00    -0.374 N
ATOM     13  H2  UNL     1     -38.324 -58.946 -49.279  1.00  0.00     0.161 HD
BRANCH  12  14
HETATM   14  C4  UNL     1     -39.843 -59.313 -47.919  1.00  0.00     0.123 C
BRANCH  14  15
HETATM   15  C5  UNL     1     -39.371 -60.084 -46.744  1.00  0.00     0.039 C
BRANCH  15  16
HETATM   16  C6  UNL     1     -37.927 -59.940 -46.390  1.00  0.00     0.127 C
BRANCH  16  17
HETATM   17  N3  UNL     1     -37.651 -60.489 -45.052  1.00  0.00    -0.352 N
HETATM   18  C7  UNL     1     -38.744 -60.536 -44.108  1.00  0.00     0.125 C
HETATM   19  C8  UNL     1     -38.747 -61.825 -43.315  1.00  0.00     0.020 C
HETATM   20  C9  UNL     1     -37.672 -61.881 -42.277  1.00  0.00     0.002 C
HETATM   21  C10 UNL     1     -36.342 -62.354 -42.813  1.00  0.00     0.009 C
HETATM   22  C11 UNL     1     -35.645 -61.174 -43.474  1.00  0.00     0.103 C
HETATM   23  C12 UNL     1     -36.323 -60.931 -44.796  1.00  0.00     0.219 C
HETATM   24  O1  UNL     1     -35.639 -61.143 -45.828  1.00  0.00    -0.273 OA
ENDBRANCH  16  17
ENDBRANCH  15  16
ENDBRANCH  14  15
ENDBRANCH  12  14
ENDBRANCH   4  12
BRANCH   7  25
HETATM   25  N5  UNL     1     -42.202 -61.584 -52.130  1.00  0.00    -0.234 N
ATOM     26  H52 UNL     1     -42.953 -61.382 -51.470  1.00  0.00     0.174 HD
ATOM     27  H51 UNL     1     -42.374 -61.905 -53.082  1.00  0.00     0.174 HD
ENDBRANCH   7  25
TORSDOF 6
ENDMDL