MODEL 3
REMARK VINA RESULT: -7.229490503      1.291      2.014
REMARK  5 active torsions:
REMARK  status: ('A' for Active; 'I' for Inactive)
REMARK    1  A    between atoms: C2_2  and  N1_3
REMARK    2  A    between atoms: N1_3  and  C3_4
REMARK    3  A    between atoms: N1_3  and  C8_15
REMARK    4  A    between atoms: C3_4  and  C4_5
REMARK    5  A    between atoms: C5_8  and  N3_9
ROOT
HETATM    1  N1  UNL     1     -38.913 -59.693 -47.382  1.00  0.00    -0.344 N
ENDROOT
BRANCH   1   2
HETATM    2  C2  UNL     1     -39.446 -58.405 -47.533  1.00  0.00     0.064 C
HETATM    3  C1  UNL     1     -40.948 -58.416 -47.352  1.00  0.00     0.055 C
ENDBRANCH   1   2
BRANCH   1   4
HETATM    4  C3  UNL     1     -39.382 -60.715 -48.215  1.00  0.00     0.126 C
BRANCH   4   5
HETATM    5  C4  UNL     1     -39.383 -60.468 -49.700  1.00  0.00     0.063 A
HETATM    6  N2  UNL     1     -40.462 -60.223 -50.408  1.00  0.00    -0.335 N
HETATM    7  C5  UNL     1     -40.333 -60.054 -51.723  1.00  0.00     0.143 A
ATOM      8  H2  UNL     1     -41.377 -60.163 -49.962  1.00  0.00     0.168 HD
HETATM    9  S1  UNL     1     -38.666 -60.239 -51.989  1.00  0.00    -0.057 SA
HETATM   10  C6  UNL     1     -38.191 -60.530 -50.381  1.00  0.00     0.010 A
HETATM   11  C7  UNL     1     -36.816 -60.795 -49.818  1.00  0.00     0.059 C
BRANCH   7  12
HETATM   12  N3  UNL     1     -41.241 -59.801 -52.636  1.00  0.00    -0.380 N
ATOM     13  H32 UNL     1     -42.247 -59.726 -52.482  1.00  0.00     0.158 HD
ATOM     14  H31 UNL     1     -41.139 -59.637 -53.637  1.00  0.00     0.158 HD
ENDBRANCH   7  12
ENDBRANCH   4   5
ENDBRANCH   1   4
BRANCH   1  15
HETATM   15  C8  UNL     1     -37.820 -59.951 -46.566  1.00  0.00     0.114 C
HETATM   16  C9  UNL     1     -37.909 -60.530 -45.244  1.00  0.00     0.070 A
HETATM   17  C10 UNL     1     -36.651 -60.786 -44.634  1.00  0.00     0.027 A
HETATM   18  C13 UNL     1     -39.049 -60.780 -44.577  1.00  0.00     0.262 A
HETATM   19  C11 UNL     1     -35.389 -60.511 -45.364  1.00  0.00     0.069 C
HETATM   20  N4  UNL     1     -36.654 -61.279 -43.394  1.00  0.00    -0.312 N
HETATM   21  C12 UNL     1     -37.803 -61.529 -42.728  1.00  0.00     0.327 A
ATOM     22  H4  UNL     1     -35.763 -61.471 -42.936  1.00  0.00     0.170 HD
HETATM   23  O1  UNL     1     -37.818 -61.993 -41.560  1.00  0.00    -0.247 OA
HETATM   24  N5  UNL     1     -38.998 -61.283 -43.310  1.00  0.00    -0.275 N
ATOM     25  H5  UNL     1     -39.862 -61.475 -42.803  1.00  0.00     0.173 HD
HETATM   26  O2  UNL     1     -40.170 -60.570 -45.058  1.00  0.00    -0.267 OA
ENDBRANCH   1  15
TORSDOF 5
ENDMDL