MODEL 5
REMARK VINA RESULT: -4.766920872      1.659      6.930
REMARK  7 active torsions:
REMARK  status: ('A' for Active; 'I' for Inactive)
REMARK    1  A    between atoms: C2_2  and  N1_3
REMARK    2  A    between atoms: N1_3  and  C3_5
REMARK    3  A    between atoms: C4_6  and  N2_7
REMARK    4  A    between atoms: N3_10  and  C7_11
REMARK    5  A    between atoms: C11_17  and  N5_18
REMARK    6  A    between atoms: C12_23  and  N7_24
REMARK    7  A    between atoms: N7_24  and  C13_26
ROOT
HETATM    1  C3  UNL     1     -39.716 -60.053 -48.494  1.00  0.00     0.118 A
HETATM    2  C4  UNL     1     -38.592 -60.310 -47.763  1.00  0.00     0.150 A
HETATM    3  N4  UNL     1     -37.460 -60.697 -48.450  1.00  0.00    -0.175 N
ATOM      4  H4  UNL     1     -36.602 -60.899 -47.937  1.00  0.00     0.186 HD
HETATM    5  C11 UNL     1     -37.479 -60.809 -49.790  1.00  0.00     0.679 A
HETATM    6  N6  UNL     1     -38.571 -60.561 -50.523  1.00  0.00    -0.175 N
ATOM      7  H6  UNL     1     -38.546 -60.657 -51.538  1.00  0.00     0.186 HD
HETATM    8  C12 UNL     1     -39.699 -60.182 -49.902  1.00  0.00     0.147 A
ENDROOT
BRANCH   2   9
HETATM    9  N2  UNL     1     -38.524 -60.150 -46.361  1.00  0.00    -0.359 N
HETATM   10  C5  UNL     1     -37.305 -59.535 -45.839  1.00  0.00     0.168 C
HETATM   11  C6  UNL     1     -36.747 -60.337 -44.666  1.00  0.00     0.078 C
HETATM   12  N3  UNL     1     -37.692 -61.315 -44.319  1.00  0.00    -0.391 N
HETATM   13  C9  UNL     1     -39.036 -60.918 -44.119  1.00  0.00     0.141 C
HETATM   14  C10 UNL     1     -39.596 -60.573 -45.518  1.00  0.00     0.144 C
BRANCH  12  15
HETATM   15  C7  UNL     1     -37.250 -62.460 -43.613  1.00  0.00     0.117 C
HETATM   16  C8  UNL     1     -36.238 -62.203 -42.544  1.00  0.00     0.026 C
ENDBRANCH  12  15
ENDBRANCH   2   9
BRANCH   1  17
HETATM   17  N1  UNL     1     -40.928 -59.699 -47.845  1.00  0.00    -0.384 N
ATOM     18  H1  UNL     1     -41.659 -60.389 -47.673  1.00  0.00     0.159 HD
BRANCH  17  19
HETATM   19  C2  UNL     1     -41.082 -58.314 -47.435  1.00  0.00     0.115 C
HETATM   20  C1  UNL     1     -42.507 -57.940 -47.124  1.00  0.00     0.026 C
ENDBRANCH  17  19
ENDBRANCH   1  17
BRANCH   8  21
HETATM   21  N7  UNL     1     -40.803 -59.917 -50.467  1.00  0.00    -0.370 N
ATOM     22  H7  UNL     1     -41.207 -59.020 -50.200  1.00  0.00     0.161 HD
BRANCH  21  23
HETATM   23  C13 UNL     1     -41.569 -60.646 -51.402  1.00  0.00     0.075 C
HETATM   24  C14 UNL     1     -41.330 -62.146 -51.394  1.00  0.00     0.031 C
HETATM   25  C15 UNL     1     -41.144 -60.160 -52.797  1.00  0.00     0.031 C
ENDBRANCH  21  23
ENDBRANCH   8  21
BRANCH   5  26
HETATM   26  N5  UNL     1     -36.405 -61.188 -50.420  1.00  0.00    -0.234 N
ATOM     27  H52 UNL     1     -35.648 -61.585 -49.864  1.00  0.00     0.174 HD
ATOM     28  H51 UNL     1     -36.345 -61.070 -51.431  1.00  0.00     0.174 HD
ENDBRANCH   5  26
TORSDOF 7
ENDMDL