MODEL 4
REMARK VINA RESULT: -6.522375477      3.546      5.234
REMARK  8 active torsions:
REMARK  status: ('A' for Active; 'I' for Inactive)
REMARK    1  A    between atoms: N1_2  and  C2_4
REMARK    2  A    between atoms: C4_8  and  N3_9
REMARK    3  A    between atoms: N3_9  and  C5_11
REMARK    4  A    between atoms: C5_11  and  C6_12
REMARK    5  A    between atoms: C6_12  and  C7_13
REMARK    6  A    between atoms: C7_13  and  N4_14
REMARK    7  A    between atoms: N4_14  and  C9_16
REMARK    8  A    between atoms: C12_21  and  N6_22
ROOT
HETATM    1  C2  UNL     1     -39.621 -61.452 -51.106  1.00  0.00     0.146 A
HETATM    2  N2  UNL     1     -39.026 -60.921 -50.037  1.00  0.00    -0.331 N
ATOM      3  H2  UNL     1     -38.036 -61.088 -49.858  1.00  0.00     0.168 HD
HETATM    4  C3  UNL     1     -39.737 -60.179 -49.219  1.00  0.00     0.114 A
HETATM    5  C4  UNL     1     -39.277 -59.533 -48.039  1.00  0.00     0.146 A
HETATM    6  N5  UNL     1     -40.142 -58.809 -47.321  1.00  0.00    -0.175 N
ATOM      7  H5  UNL     1     -39.795 -58.353 -46.478  1.00  0.00     0.186 HD
HETATM    8  C12 UNL     1     -41.443 -58.641 -47.637  1.00  0.00     0.678 A
HETATM    9  N7  UNL     1     -41.886 -59.241 -48.740  1.00  0.00    -0.183 N
ATOM     10  H7  UNL     1     -42.865 -59.135 -49.008  1.00  0.00     0.185 HD
HETATM   11  C13 UNL     1     -41.056 -59.997 -49.522  1.00  0.00     0.124 A
HETATM   12  S1  UNL     1     -41.224 -60.897 -50.965  1.00  0.00    -0.034 SA
ENDROOT
BRANCH   5  13
HETATM   13  N3  UNL     1     -38.051 -59.663 -47.697  1.00  0.00    -0.374 N
ATOM     14  H3  UNL     1     -37.420 -59.014 -48.167  1.00  0.00     0.161 HD
BRANCH  13  15
HETATM   15  C5  UNL     1     -37.405 -60.532 -46.793  1.00  0.00     0.126 C
BRANCH  15  16
HETATM   16  C6  UNL     1     -37.622 -60.079 -45.385  1.00  0.00     0.064 C
BRANCH  16  17
HETATM   17  C7  UNL     1     -37.716 -61.120 -44.334  1.00  0.00     0.059 C
BRANCH  17  18
HETATM   18  N4  UNL     1     -38.944 -61.468 -43.779  1.00  0.00    -0.394 N
HETATM   19  C8  UNL     1     -40.139 -61.084 -44.443  1.00  0.00     0.149 C
BRANCH  18  20
HETATM   20  C9  UNL     1     -39.051 -61.482 -42.355  1.00  0.00     0.074 C
HETATM   21  C10 UNL     1     -39.719 -60.293 -41.767  1.00  0.00     0.032 C
HETATM   22  C11 UNL     1     -37.666 -61.579 -41.746  1.00  0.00     0.032 C
ENDBRANCH  18  20
ENDBRANCH  17  18
ENDBRANCH  16  17
ENDBRANCH  15  16
ENDBRANCH  13  15
ENDBRANCH   5  13
BRANCH   8  23
HETATM   23  N6  UNL     1     -42.146 -57.912 -46.847  1.00  0.00    -0.234 N
ATOM     24  H62 UNL     1     -41.856 -57.021 -46.444  1.00  0.00     0.174 HD
ATOM     25  H61 UNL     1     -43.075 -58.257 -46.601  1.00  0.00     0.174 HD
ENDBRANCH   8  23
BRANCH   1  26
HETATM   26  N1  UNL     1     -39.067 -62.216 -52.027  1.00  0.00    -0.375 N
HETATM   27  C1  UNL     1     -37.635 -62.166 -52.146  1.00  0.00     0.148 C
ATOM     28  H1  UNL     1     -39.630 -62.818 -52.629  1.00  0.00     0.161 HD
ENDBRANCH   1  26
TORSDOF 8
ENDMDL