MODEL 5
REMARK VINA RESULT: -6.234613534      1.185      3.552
REMARK  3 active torsions:
REMARK  status: ('A' for Active; 'I' for Inactive)
REMARK    1  A    between atoms: C2_2  and  N1_3
REMARK    2  A    between atoms: N1_3  and  C3_5
REMARK    3  A    between atoms: C4_8  and  N3_9
ROOT
HETATM    1  C3  UNL     1      48.234   5.062  19.926  1.00  0.00     0.149 A
HETATM    2  N2  UNL     1      48.690   6.135  19.248  1.00  0.00    -0.175 N
ATOM      3  H2  UNL     1      49.435   5.989  18.566  1.00  0.00     0.186 HD
HETATM    4  C4  UNL     1      48.226   7.383  19.414  1.00  0.00     0.679 A
HETATM    5  N4  UNL     1      47.257   7.606  20.294  1.00  0.00    -0.173 N
ATOM      6  H4  UNL     1      46.899   8.552  20.427  1.00  0.00     0.186 HD
HETATM    7  C5  UNL     1      46.748   6.597  21.008  1.00  0.00     0.169 A
HETATM    8  N5  UNL     1      45.774   6.564  21.949  1.00  0.00    -0.268 N
ATOM      9  H5  UNL     1      45.235   7.361  22.287  1.00  0.00     0.190 HD
HETATM   10  N6  UNL     1      45.649   5.305  22.350  1.00  0.00    -0.240 N
ATOM     11  H6  UNL     1      44.992   4.970  23.055  1.00  0.00     0.208 HD
HETATM   12  N7  UNL     1      46.510   4.558  21.691  1.00  0.00    -0.279 N
ATOM     13  H7  UNL     1      46.616   3.551  21.814  1.00  0.00     0.189 HD
HETATM   14  C6  UNL     1      47.229   5.299  20.836  1.00  0.00     0.140 A
ENDROOT
BRANCH   1  15
HETATM   15  N1  UNL     1      48.716   3.891  19.725  1.00  0.00    -0.374 N
ATOM     16  H1  UNL     1      48.123   3.254  19.195  1.00  0.00     0.161 HD
BRANCH  15  17
HETATM   17  C2  UNL     1      49.964   3.363  20.142  1.00  0.00     0.116 C
HETATM   18  C1  UNL     1      50.142   3.297  21.628  1.00  0.00     0.026 C
ENDBRANCH  15  17
ENDBRANCH   1  15
BRANCH   4  19
HETATM   19  N3  UNL     1      48.691   8.393  18.742  1.00  0.00    -0.234 N
ATOM     20  H32 UNL     1      49.389   8.988  19.188  1.00  0.00     0.174 HD
ATOM     21  H31 UNL     1      48.384   8.606  17.793  1.00  0.00     0.174 HD
ENDBRANCH   4  19
TORSDOF 3
ENDMDL