MODEL 2
REMARK VINA RESULT: -6.084338932      1.498      3.714
REMARK  2 active torsions:
REMARK  status: ('A' for Active; 'I' for Inactive)
REMARK    1  A    between atoms: C5_12  and  N4_13
REMARK    2  A    between atoms: N4_13  and  N5_15
ROOT
HETATM    1  C1  UNL     1      45.631   4.826  22.496  1.00  0.00     0.040 C
HETATM    2  C2  UNL     1      45.902   6.039  21.666  1.00  0.00     0.019 C
HETATM    3  C3  UNL     1      47.007   6.117  20.947  1.00  0.00     0.132 A
HETATM    4  N1  UNL     1      47.298   7.236  20.155  1.00  0.00    -0.176 N
ATOM      5  H1  UNL     1      46.652   8.024  20.120  1.00  0.00     0.185 HD
HETATM    6  C4  UNL     1      48.501   7.263  19.403  1.00  0.00     0.692 A
HETATM    7  N2  UNL     1      48.739   8.326  18.675  1.00  0.00    -0.234 N
ATOM      8  H21 UNL     1      49.604   8.345  18.134  1.00  0.00     0.174 HD
ATOM      9  H22 UNL     1      48.094   9.114  18.639  1.00  0.00     0.174 HD
HETATM   10  N3  UNL     1      49.399   6.166  19.453  1.00  0.00    -0.021 N
ATOM     11  H3  UNL     1      50.262   6.191  18.910  1.00  0.00     0.203 HD
HETATM   12  C5  UNL     1      49.125   5.120  20.194  1.00  0.00     0.714 A
HETATM   13  N6  UNL     1      47.934   5.039  20.968  1.00  0.00    -0.174 N
ATOM     14  H6  UNL     1      47.746   4.212  21.535  1.00  0.00     0.186 HD
ENDROOT
BRANCH  12  15
HETATM   15  N4  UNL     1      50.037   4.015  20.239  1.00  0.00    -0.134 N
HETATM   16  C6  UNL     1      50.371   3.390  21.485  1.00  0.00     0.197 C
BRANCH  15  17
HETATM   17  N5  UNL     1      50.599   3.558  19.046  1.00  0.00    -0.329 N
ATOM     18  H52 UNL     1      51.281   2.800  19.055  1.00  0.00     0.177 HD
ATOM     19  H51 UNL     1      50.316   3.994  18.169  1.00  0.00     0.177 HD
ENDBRANCH  15  17
ENDBRANCH  12  15
TORSDOF 2
ENDMDL