MODEL 1
REMARK VINA RESULT: -5.669212043      0.000      0.000
REMARK  3 active torsions:
REMARK  status: ('A' for Active; 'I' for Inactive)
REMARK    1  A    between atoms: N1_2  and  C3_4
REMARK    2  A    between atoms: C4_7  and  N3_8
REMARK    3  A    between atoms: C5_13  and  N5_14
ROOT
HETATM    1  C3  UNL     1      49.176   5.332  19.911  1.00  0.00     0.140 A
HETATM    2  N2  UNL     1      50.327   5.106  19.225  1.00  0.00    -0.175 N
ATOM      3  H2  UNL     1      50.604   5.730  18.467  1.00  0.00     0.186 HD
HETATM    4  C4  UNL     1      51.096   4.053  19.553  1.00  0.00     0.679 A
HETATM    5  N4  UNL     1      50.684   3.250  20.569  1.00  0.00    -0.176 N
ATOM      6  H4  UNL     1      51.269   2.451  20.817  1.00  0.00     0.186 HD
HETATM    7  C5  UNL     1      49.561   3.443  21.262  1.00  0.00     0.136 A
HETATM    8  C6  UNL     1      48.757   4.516  20.943  1.00  0.00     0.100 A
HETATM    9  S1  UNL     1      47.219   4.821  21.856  1.00  0.00    -0.044 SA
ENDROOT
BRANCH   1  10
HETATM   10  N1  UNL     1      48.343   6.442  19.595  1.00  0.00    -0.374 N
HETATM   11  C1  UNL     1      47.165   6.183  18.795  1.00  0.00     0.150 C
HETATM   12  C2  UNL     1      48.686   7.754  20.075  1.00  0.00     0.150 C
ENDBRANCH   1  10
BRANCH   4  13
HETATM   13  N3  UNL     1      52.194   3.817  18.913  1.00  0.00    -0.234 N
ATOM     14  H32 UNL     1      53.025   4.392  19.055  1.00  0.00     0.174 HD
ATOM     15  H31 UNL     1      52.251   3.045  18.249  1.00  0.00     0.174 HD
ENDBRANCH   4  13
BRANCH   7  16
HETATM   16  N5  UNL     1      49.218   2.649  22.221  1.00  0.00    -0.384 N
ATOM     17  H52 UNL     1      48.254   2.327  22.290  1.00  0.00     0.157 HD
ATOM     18  H51 UNL     1      49.894   2.336  22.918  1.00  0.00     0.157 HD
ENDBRANCH   7  16
TORSDOF 3
ENDMDL