MODEL 4
REMARK VINA RESULT: -5.791219827      1.792      3.247
REMARK  3 active torsions:
REMARK  status: ('A' for Active; 'I' for Inactive)
REMARK    1  A    between atoms: O1_2  and  N1_3
REMARK    2  A    between atoms: N1_3  and  C2_5
REMARK    3  A    between atoms: C3_8  and  N3_9
ROOT
HETATM    1  C2  UNL     1      47.139   5.011  21.434  1.00  0.00     0.172 A
HETATM    2  N2  UNL     1      47.839   3.978  20.927  1.00  0.00    -0.173 N
ATOM      3  H2  UNL     1      47.714   3.048  21.326  1.00  0.00     0.186 HD
HETATM    4  C3  UNL     1      48.695   4.143  19.911  1.00  0.00     0.679 A
HETATM    5  N4  UNL     1      48.870   5.366  19.372  1.00  0.00    -0.173 N
ATOM      6  H4  UNL     1      49.525   5.478  18.598  1.00  0.00     0.186 HD
HETATM    7  C4  UNL     1      48.203   6.448  19.830  1.00  0.00     0.167 A
HETATM    8  N5  UNL     1      47.914   7.769  19.788  1.00  0.00    -0.282 N
ATOM      9  H5  UNL     1      48.213   8.567  19.227  1.00  0.00     0.188 HD
HETATM   10  N6  UNL     1      47.076   7.575  20.794  1.00  0.00    -0.292 N
ATOM     11  H6  UNL     1      46.461   8.198  21.318  1.00  0.00     0.187 HD
HETATM   12  C5  UNL     1      47.328   6.257  20.873  1.00  0.00     0.140 A
ENDROOT
BRANCH   1  13
HETATM   13  N1  UNL     1      46.317   4.892  22.396  1.00  0.00    -0.248 N
ATOM     14  H1  UNL     1      46.206   3.995  22.868  1.00  0.00     0.196 HD
BRANCH  13  15
HETATM   15  O1  UNL     1      45.583   5.974  22.795  1.00  0.00    -0.284 OA
HETATM   16  C1  UNL     1      44.489   5.936  23.663  1.00  0.00     0.237 C
ENDBRANCH  13  15
ENDBRANCH   1  13
BRANCH   4  17
HETATM   17  N3  UNL     1      49.374   3.165  19.413  1.00  0.00    -0.234 N
ATOM     18  H32 UNL     1      48.855   2.367  19.045  1.00  0.00     0.174 HD
ATOM     19  H31 UNL     1      50.393   3.168  19.379  1.00  0.00     0.174 HD
ENDBRANCH   4  17
TORSDOF 3
ENDMDL