MODEL 1
REMARK VINA RESULT: -6.512680429      0.000      0.000
REMARK  5 active torsions:
REMARK  status: ('A' for Active; 'I' for Inactive)
REMARK    1  A    between atoms: C3_5  and  N2_6
REMARK    2  A    between atoms: C4_11  and  N4_12
REMARK    3  A    between atoms: N4_12  and  C5_14
REMARK    4  A    between atoms: C5_14  and  C6_15
REMARK    5  A    between atoms: C7_16  and  N5_17
ROOT
HETATM    1  C1  UNL     1      50.271   7.833  19.383  1.00  0.00     0.090 C
HETATM    2  C2  UNL     1      50.227   6.346  19.506  1.00  0.00     0.109 A
HETATM    3  N1  UNL     1      51.259   5.631  19.027  1.00  0.00    -0.180 N
ATOM      4  H1  UNL     1      52.059   6.085  18.588  1.00  0.00     0.185 HD
HETATM    5  C3  UNL     1      51.198   4.278  19.150  1.00  0.00     0.691 A
HETATM    6  N3  UNL     1      50.137   3.696  19.733  1.00  0.00    -0.023 N
ATOM      7  H3  UNL     1      50.113   2.680  19.814  1.00  0.00     0.203 HD
HETATM    8  C4  UNL     1      49.108   4.409  20.211  1.00  0.00     0.694 A
HETATM    9  N6  UNL     1      49.179   5.747  20.083  1.00  0.00    -0.180 N
ATOM     10  H6  UNL     1      48.413   6.320  20.436  1.00  0.00     0.185 HD
ENDROOT
BRANCH   8  11
HETATM   11  N4  UNL     1      48.071   3.891  20.777  1.00  0.00    -0.215 N
ATOM     12  H4  UNL     1      47.576   3.154  20.276  1.00  0.00     0.178 HD
BRANCH  11  13
HETATM   13  C5  UNL     1      47.566   4.279  22.056  1.00  0.00     0.234 C
BRANCH  13  14
HETATM   14  C6  UNL     1      46.225   4.834  21.896  1.00  0.00    -0.064 C
HETATM   15  C7  UNL     1      45.123   5.291  21.783  1.00  0.00     0.005 C
BRANCH  15  16
HETATM   16  N5  UNL     1      43.825   5.820  21.675  1.00  0.00    -0.359 N
ATOM     17  H52 UNL     1      44.270   4.951  21.974  1.00  0.00     0.166 HD
ATOM     18  H51 UNL     1      42.891   6.219  21.590  1.00  0.00     0.166 HD
ENDBRANCH  15  16
ENDBRANCH  13  14
ENDBRANCH  11  13
ENDBRANCH   8  11
BRANCH   5  19
HETATM   19  N2  UNL     1      52.189   3.568  18.691  1.00  0.00    -0.234 N
ATOM     20  H22 UNL     1      52.955   3.276  19.298  1.00  0.00     0.174 HD
ATOM     21  H21 UNL     1      52.185   3.309  17.705  1.00  0.00     0.174 HD
ENDBRANCH   5  19
TORSDOF 5
ENDMDL