MODEL 5
REMARK VINA RESULT: -5.752692042      1.724      5.246
REMARK  1 active torsions:
REMARK  status: ('A' for Active; 'I' for Inactive)
REMARK    1  A    between atoms: N1_2  and  C2_4
REMARK       I    between atoms: N4_10  and  C4_12
REMARK       I    between atoms: C4_12  and  N5_13
REMARK       I    between atoms: C4_12  and  N6_17
ROOT
HETATM    1  C2  UNL     1      49.950   4.645  20.838  1.00  0.00     0.162 A
HETATM    2  N2  UNL     1      49.154   5.589  20.339  1.00  0.00    -0.278 N
ATOM      3  H2  UNL     1      49.523   6.300  19.708  1.00  0.00     0.189 HD
HETATM    4  N3  UNL     1      47.911   5.588  20.666  1.00  0.00    -0.278 N
ATOM      5  H3  UNL     1      47.279   6.299  20.299  1.00  0.00     0.189 HD
HETATM    6  C3  UNL     1      47.459   4.647  21.490  1.00  0.00     0.165 A
HETATM    7  N4  UNL     1      46.234   4.475  21.941  1.00  0.00    -0.320 N
ATOM      8  H4  UNL     1      46.002   3.711  22.575  1.00  0.00     0.165 HD
HETATM    9  C4  UNL     1      45.232   5.418  21.496  1.00  0.00     0.482 C
HETATM   10  N5  UNL     1      43.895   4.999  21.857  1.00  0.00    -0.033 N
ATOM     11  H51 UNL     1      43.188   5.664  21.544  1.00  0.00     0.278 HD
ATOM     12  H52 UNL     1      43.820   4.824  22.859  1.00  0.00     0.278 HD
ATOM     13  H53 UNL     1      43.697   4.059  21.514  1.00  0.00     0.278 HD
HETATM   14  N6  UNL     1      45.485   6.675  22.173  1.00  0.00    -0.033 N
ATOM     15  H61 UNL     1      44.778   7.340  21.860  1.00  0.00     0.278 HD
ATOM     16  H62 UNL     1      46.438   7.014  22.038  1.00  0.00     0.278 HD
ATOM     17  H63 UNL     1      45.519   6.580  23.188  1.00  0.00     0.278 HD
HETATM   18  S1  UNL     1      48.874   3.739  21.801  1.00  0.00    -0.016 SA
ENDROOT
BRANCH   1  19
HETATM   19  N1  UNL     1      51.241   4.489  20.618  1.00  0.00    -0.374 N
HETATM   20  C1  UNL     1      51.942   3.658  21.576  1.00  0.00     0.148 C
ATOM     21  H1  UNL     1      51.714   4.924  19.825  1.00  0.00     0.161 HD
ENDBRANCH   1  19
TORSDOF 1
ENDMDL