MODEL 3
REMARK VINA RESULT: -6.045950336      1.063      4.226
REMARK  3 active torsions:
REMARK  status: ('A' for Active; 'I' for Inactive)
REMARK    1  A    between atoms: C4_6  and  N2_7
REMARK    2  A    between atoms: C5_12  and  N4_13
REMARK    3  A    between atoms: N4_13  and  C6_15
ROOT
HETATM    1  C1  UNL     1      50.106   3.064  22.106  1.00  0.00     0.021 C
HETATM    2  C2  UNL     1      49.249   3.781  21.653  1.00  0.00    -0.040 C
HETATM    3  C3  UNL     1      48.230   4.666  21.115  1.00  0.00     0.190 A
HETATM    4  N1  UNL     1      48.243   5.030  19.818  1.00  0.00    -0.168 N
ATOM      5  H1  UNL     1      48.985   4.672  19.217  1.00  0.00     0.186 HD
HETATM    6  C4  UNL     1      47.310   5.853  19.282  1.00  0.00     0.692 A
HETATM    7  N3  UNL     1      46.340   6.313  20.096  1.00  0.00    -0.023 N
ATOM      8  H3  UNL     1      45.626   6.933  19.713  1.00  0.00     0.203 HD
HETATM    9  C5  UNL     1      46.284   5.979  21.396  1.00  0.00     0.694 A
HETATM   10  N5  UNL     1      47.244   5.153  21.878  1.00  0.00    -0.168 N
ATOM     11  H5  UNL     1      47.214   4.892  22.864  1.00  0.00     0.186 HD
ENDROOT
BRANCH   6  12
HETATM   12  N2  UNL     1      47.332   6.193  18.041  1.00  0.00    -0.234 N
ATOM     13  H22 UNL     1      47.813   7.044  17.750  1.00  0.00     0.174 HD
ATOM     14  H21 UNL     1      46.877   5.635  17.319  1.00  0.00     0.174 HD
ENDBRANCH   6  12
BRANCH   9  15
HETATM   15  N4  UNL     1      45.370   6.408  22.180  1.00  0.00    -0.226 N
ATOM     16  H4  UNL     1      45.067   7.378  22.082  1.00  0.00     0.177 HD
BRANCH  15  17
HETATM   17  C6  UNL     1      44.746   5.598  23.196  1.00  0.00     0.133 C
HETATM   18  C7  UNL     1      44.301   6.452  24.387  1.00  0.00     0.027 C
ENDBRANCH  15  17
ENDBRANCH   9  15
TORSDOF 3
ENDMDL