MODEL 1
REMARK VINA RESULT: -6.631004268      0.000      0.000
REMARK  4 active torsions:
REMARK  status: ('A' for Active; 'I' for Inactive)
REMARK    1  A    between atoms: C2_2  and  N1_3
REMARK    2  A    between atoms: N1_3  and  C3_5
REMARK    3  A    between atoms: C4_8  and  N3_9
REMARK    4  A    between atoms: C5_14  and  N5_15
ROOT
HETATM    1  N5  UNL     1      45.075   5.045  26.819  1.00  0.00    -0.125 N
ATOM      2  H5  UNL     1      44.820   4.092  27.080  1.00  0.00     0.197 HD
HETATM    3  C6  UNL     1      45.770   5.815  27.728  1.00  0.00     0.196 C
HETATM    4  N6  UNL     1      46.352   6.444  28.503  1.00  0.00    -0.171 NA
ENDROOT
BRANCH   1   5
HETATM    5  C5  UNL     1      44.733   5.477  25.653  1.00  0.00     0.720 A
HETATM    6  N4  UNL     1      43.878   6.494  25.470  1.00  0.00    -0.021 N
HETATM    7  C4  UNL     1      43.506   6.961  24.283  1.00  0.00     0.705 A
ATOM      8  H4  UNL     1      43.487   6.941  26.299  1.00  0.00     0.203 HD
HETATM    9  N2  UNL     1      44.039   6.353  23.180  1.00  0.00    -0.022 N
HETATM   10  C3  UNL     1      44.898   5.333  23.302  1.00  0.00     0.707 A
ATOM     11  H2  UNL     1      43.779   6.682  22.251  1.00  0.00     0.203 HD
HETATM   12  N7  UNL     1      45.238   4.903  24.546  1.00  0.00    -0.021 N
ATOM     13  H7  UNL     1      45.892   4.125  24.642  1.00  0.00     0.203 HD
BRANCH   7  14
HETATM   14  N3  UNL     1      42.681   7.942  24.134  1.00  0.00    -0.234 N
ATOM     15  H32 UNL     1      41.893   7.919  23.486  1.00  0.00     0.174 HD
ATOM     16  H31 UNL     1      42.804   8.793  24.684  1.00  0.00     0.174 HD
ENDBRANCH   7  14
BRANCH  10  17
HETATM   17  N1  UNL     1      45.403   4.757  22.273  1.00  0.00    -0.225 N
ATOM     18  H1  UNL     1      44.994   3.892  21.920  1.00  0.00     0.177 HD
BRANCH  17  19
HETATM   19  C2  UNL     1      46.539   5.330  21.623  1.00  0.00     0.133 C
HETATM   20  C1  UNL     1      47.783   4.494  21.928  1.00  0.00     0.027 C
ENDBRANCH  17  19
ENDBRANCH  10  17
ENDBRANCH   1   5
TORSDOF 4
ENDMDL