MODEL 2
REMARK VINA RESULT: -6.482186579      2.317      4.058
REMARK  0 active torsions:
REMARK  status: ('A' for Active; 'I' for Inactive)
REMARK       I    between atoms: C3_5  and  N2_6
ROOT
HETATM    1  C1  UNL     1      50.858   5.246  19.896  1.00  0.00     0.047 C
HETATM    2  C2  UNL     1      49.641   5.710  19.973  1.00  0.00     0.084 C
HETATM    3  N1  UNL     1      49.437   7.102  19.647  1.00  0.00    -0.188 N
ATOM      4  H1  UNL     1      50.179   7.540  19.100  1.00  0.00     0.184 HD
HETATM    5  C3  UNL     1      48.341   7.947  19.984  1.00  0.00     0.694 C
HETATM    6  N2  UNL     1      48.412   9.317  19.609  1.00  0.00    -0.226 N
HETATM    7  C4  UNL     1      47.754  10.363  20.369  1.00  0.00     0.168 C
HETATM    8  C5  UNL     1      49.158   9.713  18.433  1.00  0.00     0.168 C
HETATM    9  N3  UNL     1      47.254   7.619  20.608  1.00  0.00    -0.022 N
ATOM     10  H3  UNL     1      46.609   8.398  20.739  1.00  0.00     0.203 HD
HETATM   11  C6  UNL     1      46.779   6.390  21.150  1.00  0.00     0.692 C
HETATM   12  N4  UNL     1      45.645   6.428  21.774  1.00  0.00    -0.234 N
ATOM     13  H41 UNL     1      45.305   5.547  22.161  1.00  0.00     0.174 HD
ATOM     14  H42 UNL     1      45.190   7.340  21.821  1.00  0.00     0.174 HD
HETATM   15  N5  UNL     1      47.424   5.098  21.083  1.00  0.00    -0.175 N
ATOM     16  H5  UNL     1      46.970   4.342  21.597  1.00  0.00     0.186 HD
HETATM   17  C7  UNL     1      48.619   4.754  20.384  1.00  0.00     0.141 C
HETATM   18  N6  UNL     1      48.786   3.515  20.102  1.00  0.00    -0.383 N
ATOM     19  H61 UNL     1      48.071   2.846  20.389  1.00  0.00     0.157 HD
ATOM     20  H62 UNL     1      49.641   3.269  19.602  1.00  0.00     0.157 HD
ENDROOT
TORSDOF 0
ENDMDL