MODEL 3
REMARK VINA RESULT: -5.996959355      4.156      5.913
REMARK  3 active torsions:
REMARK  status: ('A' for Active; 'I' for Inactive)
REMARK    1  A    between atoms: C3_5  and  N2_6
REMARK    2  A    between atoms: C4_9  and  N3_10
REMARK    3  A    between atoms: N3_10  and  C5_12
ROOT
HETATM    1  C5  UNL     1      45.204   5.624  22.062  1.00  0.00     0.245 C
HETATM    2  C6  UNL     1      43.803   5.522  21.611  1.00  0.00     0.078 C
HETATM    3  N4  UNL     1      42.713   5.446  21.240  1.00  0.00    -0.196 NA
ENDROOT
BRANCH   1   4
HETATM    4  N3  UNL     1      46.111   5.874  20.994  1.00  0.00    -0.360 N
ATOM      5  H3  UNL     1      45.779   6.490  20.252  1.00  0.00     0.162 HD
BRANCH   4   6
HETATM    6  C4  UNL     1      47.287   5.416  20.861  1.00  0.00     0.161 A
HETATM    7  C3  UNL     1      47.965   5.660  19.681  1.00  0.00     0.146 A
HETATM    8  N1  UNL     1      49.221   5.160  19.564  1.00  0.00    -0.329 N
HETATM    9  C2  UNL     1      49.783   4.451  20.568  1.00  0.00     0.093 A
ATOM     10  H1  UNL     1      49.750   5.322  18.707  1.00  0.00     0.168 HD
HETATM   11  C1  UNL     1      51.161   3.893  20.459  1.00  0.00     0.090 C
HETATM   12  N6  UNL     1      49.078   4.240  21.702  1.00  0.00    -0.288 N
HETATM   13  N5  UNL     1      47.847   4.710  21.859  1.00  0.00    -0.281 N
ATOM     14  H6  UNL     1      49.505   3.706  22.459  1.00  0.00     0.188 HD
ATOM     15  H5  UNL     1      47.333   4.538  22.724  1.00  0.00     0.188 HD
BRANCH   7  16
HETATM   16  N2  UNL     1      47.422   6.338  18.727  1.00  0.00    -0.382 N
ATOM     17  H22 UNL     1      47.877   6.429  17.818  1.00  0.00     0.157 HD
ATOM     18  H21 UNL     1      46.522   6.802  18.852  1.00  0.00     0.157 HD
ENDBRANCH   7  16
ENDBRANCH   4   6
ENDBRANCH   1   4
TORSDOF 3
ENDMDL