MODEL 4
REMARK VINA RESULT: -7.961855048      3.347      8.683
REMARK  8 active torsions:
REMARK  status: ('A' for Active; 'I' for Inactive)
REMARK    1  A    between atoms: C2_2  and  C4_4
REMARK    2  A    between atoms: C4_4  and  C5_5
REMARK    3  A    between atoms: C4_4  and  N2_12
REMARK    4  A    between atoms: C5_5  and  O1_6
REMARK    5  A    between atoms: N1_8  and  O2_10
REMARK    6  A    between atoms: C8_15  and  N3_16
REMARK       I    between atoms: N3_16  and  C9_18
REMARK    7  A    between atoms: C9_18  and  C10_20
REMARK    8  A    between atoms: C11_21  and  C12_22
ROOT
HETATM    1  N3  UNL     1     -11.812 -45.503 -56.738  1.00  0.00    -0.356 N
ATOM      2  H3  UNL     1     -12.087 -45.280 -55.782  1.00  0.00     0.162 HD
HETATM    3  C9  UNL     1     -12.822 -45.890 -57.655  1.00  0.00     0.223 C
HETATM    4  O3  UNL     1     -12.424 -46.157 -58.840  1.00  0.00    -0.273 OA
ENDROOT
BRANCH   1   5
HETATM    5  C8  UNL     1     -10.424 -45.409 -57.086  1.00  0.00     0.087 C
HETATM    6  C7  UNL     1      -9.827 -46.795 -57.212  1.00  0.00     0.055 C
HETATM    7  C6  UNL     1      -8.311 -46.721 -57.403  1.00  0.00     0.275 C
HETATM    8  N2  UNL     1      -8.017 -45.309 -57.575  1.00  0.00     0.101 N
HETATM    9  C22 UNL     1      -8.719 -44.873 -58.735  1.00  0.00     0.275 C
HETATM   10  C21 UNL     1     -10.165 -44.606 -58.324  1.00  0.00     0.055 C
BRANCH   8  11
HETATM   11  C4  UNL     1      -6.623 -45.044 -57.513  1.00  0.00     0.301 C
BRANCH  11  12
HETATM   12  C2  UNL     1      -5.928 -45.571 -56.278  1.00  0.00     0.019 C
HETATM   13  C1  UNL     1      -6.492 -44.886 -55.026  1.00  0.00     0.012 C
HETATM   14  C3  UNL     1      -4.451 -45.328 -56.250  1.00  0.00     0.012 C
ENDBRANCH  11  12
BRANCH  11  15
HETATM   15  C5  UNL     1      -5.880 -45.308 -58.760  1.00  0.00     0.170 C
HETATM   16  N1  UNL     1      -5.661 -46.492 -59.204  1.00  0.00    -0.249 N
ATOM     17  H1  UNL     1      -6.014 -47.292 -58.678  1.00  0.00     0.196 HD
BRANCH  15  18
HETATM   18  O1  UNL     1      -5.394 -44.218 -59.487  1.00  0.00    -0.346 OA
ATOM     19  H1  UNL     1      -5.821 -43.994 -60.306  1.00  0.00     0.219 HD
ENDBRANCH  15  18
BRANCH  16  20
HETATM   20  O2  UNL     1      -4.976 -46.709 -60.352  1.00  0.00    -0.288 OA
ATOM     21  H2  UNL     1      -4.147 -47.173 -60.360  1.00  0.00     0.244 HD
ENDBRANCH  16  20
ENDBRANCH  11  15
ENDBRANCH   8  11
ENDBRANCH   1   5
BRANCH   3  22
HETATM   22  C10 UNL     1     -14.247 -45.995 -57.324  1.00  0.00     0.098 C
HETATM   23  C11 UNL     1     -14.694 -44.875 -56.430  1.00  0.00     0.108 C
HETATM   24  C13 UNL     1     -16.001 -45.124 -55.746  1.00  0.00     0.023 C
HETATM   25  C14 UNL     1     -16.063 -46.428 -55.009  1.00  0.00    -0.046 C
HETATM   26  C15 UNL     1     -17.428 -47.070 -55.252  1.00  0.00     0.015 C
HETATM   27  C16 UNL     1     -16.006 -46.188 -53.491  1.00  0.00     0.015 C
HETATM   28  C17 UNL     1     -14.942 -47.358 -55.327  1.00  0.00     0.018 C
HETATM   29  C18 UNL     1     -14.531 -47.359 -56.778  1.00  0.00    -0.034 C
HETATM   30  C19 UNL     1     -15.643 -48.032 -57.597  1.00  0.00     0.015 C
HETATM   31  C20 UNL     1     -13.349 -48.311 -56.880  1.00  0.00     0.015 C
BRANCH  23  32
HETATM   32  C12 UNL     1     -14.888 -43.639 -57.311  1.00  0.00     0.392 C
HETATM   33  F1  UNL     1     -15.613 -42.671 -56.630  1.00  0.00    -0.171 F
HETATM   34  F2  UNL     1     -15.606 -43.940 -58.446  1.00  0.00    -0.171 F
HETATM   35  F3  UNL     1     -13.668 -43.059 -57.610  1.00  0.00    -0.171 F
ENDBRANCH  23  32
ENDBRANCH   3  22
TORSDOF 8
ENDMDL