MODEL 5
REMARK VINA RESULT: -7.765185058      4.155      5.484
REMARK  8 active torsions:
REMARK  status: ('A' for Active; 'I' for Inactive)
REMARK    1  A    between atoms: C2_2  and  C3_3
REMARK    2  A    between atoms: C6_6  and  C7_7
REMARK    3  A    between atoms: C7_7  and  C9_9
REMARK    4  A    between atoms: C9_9  and  C10_10
REMARK    5  A    between atoms: C13_16  and  N1_17
REMARK       I    between atoms: N1_17  and  C14_19
REMARK       I    between atoms: C14_19  and  N2_21
REMARK    6  A    between atoms: N2_21  and  C15_23
REMARK    7  A    between atoms: C17_25  and  C18_26
REMARK    8  A    between atoms: C21_30  and  O3_31
ROOT
HETATM    1  N1  UNL     1     -14.605 -44.192 -59.305  1.00  0.00    -0.338 N
ATOM      2  H1  UNL     1     -15.263 -44.971 -59.330  1.00  0.00     0.164 HD
HETATM    3  C14 UNL     1     -13.262 -44.471 -58.940  1.00  0.00     0.316 C
HETATM    4  O1  UNL     1     -12.448 -43.510 -58.907  1.00  0.00    -0.247 OA
HETATM    5  N2  UNL     1     -12.849 -45.776 -58.624  1.00  0.00    -0.338 N
ATOM      6  H2  UNL     1     -13.541 -46.524 -58.665  1.00  0.00     0.164 HD
ENDROOT
BRANCH   1   7
HETATM    7  C13 UNL     1     -15.096 -42.894 -59.638  1.00  0.00     0.094 C
HETATM    8  C3  UNL     1     -15.667 -42.886 -61.017  1.00  0.00    -0.024 C
HETATM    9  C4  UNL     1     -14.434 -42.841 -61.947  1.00  0.00     0.017 C
HETATM   10  C5  UNL     1     -16.475 -41.682 -61.339  1.00  0.00     0.016 C
HETATM   11  C6  UNL     1     -16.445 -40.559 -60.346  1.00  0.00    -0.010 C
HETATM   12  C11 UNL     1     -16.468 -40.933 -58.915  1.00  0.00     0.007 C
HETATM   13  C12 UNL     1     -16.012 -42.335 -58.594  1.00  0.00     0.026 C
BRANCH   8  14
HETATM   14  C2  UNL     1     -16.351 -44.179 -61.393  1.00  0.00     0.007 C
HETATM   15  C1  UNL     1     -17.573 -44.075 -62.205  1.00  0.00     0.006 C
ENDBRANCH   8  14
BRANCH  11  16
HETATM   16  C7  UNL     1     -17.629 -39.628 -60.600  1.00  0.00    -0.006 C
HETATM   17  C8  UNL     1     -17.260 -38.588 -61.620  1.00  0.00     0.010 C
BRANCH  16  18
HETATM   18  C9  UNL     1     -18.852 -40.342 -60.985  1.00  0.00     0.122 C
BRANCH  18  19
HETATM   19  C10 UNL     1     -19.839 -40.555 -59.876  1.00  0.00     0.388 C
HETATM   20  F1  UNL     1     -19.772 -41.905 -59.451  1.00  0.00    -0.171 F
HETATM   21  F2  UNL     1     -21.121 -40.227 -60.182  1.00  0.00    -0.171 F
HETATM   22  F3  UNL     1     -19.462 -39.827 -58.738  1.00  0.00    -0.171 F
ENDBRANCH  18  19
ENDBRANCH  16  18
ENDBRANCH  11  16
ENDBRANCH   1   7
BRANCH   5  23
HETATM   23  C15 UNL     1     -11.491 -46.118 -58.242  1.00  0.00     0.097 A
HETATM   24  C16 UNL     1     -11.288 -47.361 -57.461  1.00  0.00     0.039 A
HETATM   25  C17 UNL     1     -11.038 -45.964 -56.848  1.00  0.00     0.068 A
BRANCH  25  26
HETATM   26  C18 UNL     1      -9.601 -45.701 -56.552  1.00  0.00     0.062 A
HETATM   27  C19 UNL     1      -9.093 -45.833 -55.264  1.00  0.00     0.091 A
HETATM   28  C20 UNL     1      -7.772 -45.598 -54.953  1.00  0.00     0.209 A
HETATM   29  O2  UNL     1      -7.305 -45.715 -53.799  1.00  0.00    -0.285 OA
HETATM   30  C21 UNL     1      -6.910 -45.213 -55.965  1.00  0.00     0.138 A
HETATM   31  C22 UNL     1      -7.472 -45.097 -57.227  1.00  0.00     0.182 A
HETATM   32  O4  UNL     1      -8.740 -45.333 -57.471  1.00  0.00    -0.324 OA
BRANCH  30  33
HETATM   33  O3  UNL     1      -5.569 -44.964 -55.703  1.00  0.00    -0.355 OA
ATOM     34  H3  UNL     1      -5.299 -44.170 -55.258  1.00  0.00     0.218 HD
ENDBRANCH  30  33
ENDBRANCH  25  26
ENDBRANCH   5  23
TORSDOF 8
ENDMDL