MODEL 4
REMARK VINA RESULT: -7.084207343      1.963      2.751
REMARK  8 active torsions:
REMARK  status: ('A' for Active; 'I' for Inactive)
REMARK    1  A    between atoms: C2_2  and  C4_4
REMARK    2  A    between atoms: C4_4  and  C5_5
REMARK    3  A    between atoms: C5_5  and  C6_6
REMARK    4  A    between atoms: C5_5  and  N2_27
REMARK    5  A    between atoms: C6_6  and  N1_7
REMARK    6  A    between atoms: C7_8  and  O1_9
REMARK    7  A    between atoms: C10_13  and  O2_14
REMARK    8  A    between atoms: C16_22  and  C17_23
ROOT
HETATM    1  N1  UNL     1     -13.171 -47.959 -58.384  1.00  0.00    -0.280 N
HETATM    2  C7  UNL     1     -12.440 -48.490 -57.339  1.00  0.00     0.156 A
HETATM    3  C8  UNL     1     -11.107 -48.403 -57.589  1.00  0.00     0.018 A
HETATM    4  C9  UNL     1     -10.987 -47.803 -58.823  1.00  0.00     0.017 A
HETATM    5  C10 UNL     1     -12.257 -47.541 -59.289  1.00  0.00     0.156 A
HETATM    6  C11 UNL     1      -9.586 -47.583 -59.313  1.00  0.00     0.082 C
HETATM    7  C12 UNL     1      -8.966 -48.968 -59.180  1.00  0.00    -0.015 C
HETATM    8  C13 UNL     1      -9.076 -49.547 -57.993  1.00  0.00    -0.015 C
HETATM    9  C14 UNL     1      -9.804 -48.742 -56.938  1.00  0.00     0.091 C
HETATM   10  C15 UNL     1      -9.075 -47.414 -56.995  1.00  0.00     0.033 C
HETATM   11 CL1  UNL     1      -8.479 -46.817 -55.481  1.00  0.00    -0.087 Cl
HETATM   12  C16 UNL     1      -8.961 -46.824 -58.177  1.00  0.00    -0.003 C
ENDROOT
BRANCH   1  13
HETATM   13  C6  UNL     1     -14.557 -47.795 -58.478  1.00  0.00     0.130 C
BRANCH  13  14
HETATM   14  C5  UNL     1     -15.251 -46.662 -57.784  1.00  0.00     0.043 C
BRANCH  14  15
HETATM   15  C4  UNL     1     -14.821 -45.302 -58.053  1.00  0.00     0.008 C
BRANCH  15  16
HETATM   16  C2  UNL     1     -15.499 -44.292 -58.844  1.00  0.00     0.002 C
HETATM   17  C1  UNL     1     -15.547 -43.036 -57.875  1.00  0.00     0.013 C
HETATM   18  C3  UNL     1     -14.727 -43.678 -60.019  1.00  0.00     0.013 C
ENDBRANCH  15  16
ENDBRANCH  14  15
BRANCH  14  19
HETATM   19  N2  UNL     1     -15.573 -46.996 -56.472  1.00  0.00    -0.380 N
HETATM   20  C19 UNL     1     -16.394 -47.999 -56.023  1.00  0.00     0.123 C
HETATM   21  C20 UNL     1     -17.232 -47.344 -54.885  1.00  0.00     0.021 C
HETATM   22  C21 UNL     1     -16.297 -46.331 -54.301  1.00  0.00     0.021 C
HETATM   23  C22 UNL     1     -15.386 -46.007 -55.451  1.00  0.00     0.123 C
ENDBRANCH  14  19
ENDBRANCH  13  14
ENDBRANCH   1  13
BRANCH   2  24
HETATM   24  O1  UNL     1     -12.990 -49.028 -56.210  1.00  0.00    -0.345 OA
ATOM     25  H1  UNL     1     -13.513 -49.821 -56.195  1.00  0.00     0.219 HD
ENDBRANCH   2  24
BRANCH   5  26
HETATM   26  O2  UNL     1     -12.496 -46.921 -60.538  1.00  0.00    -0.345 OA
ATOM     27  H2  UNL     1     -11.875 -46.774 -61.242  1.00  0.00     0.219 HD
ENDBRANCH   5  26
BRANCH  12  28
HETATM   28  C17 UNL     1      -8.297 -45.561 -58.336  1.00  0.00     0.069 C
HETATM   29 CL2  UNL     1      -6.524 -45.532 -58.041  1.00  0.00    -0.081 Cl
HETATM   30  C18 UNL     1      -8.856 -44.425 -58.672  1.00  0.00     0.212 C
HETATM   31  F1  UNL     1     -10.135 -44.164 -58.941  1.00  0.00    -0.218 F
ENDBRANCH  12  28
TORSDOF 8
ENDMDL