MODEL 1
REMARK VINA RESULT: -7.130944951      0.000      0.000
REMARK  7 active torsions:
REMARK  status: ('A' for Active; 'I' for Inactive)
REMARK    1  A    between atoms: C2_2  and  N1_4
REMARK    2  A    between atoms: N2_7  and  C6_8
REMARK    3  A    between atoms: C6_8  and  C7_9
REMARK    4  A    between atoms: C10_12  and  C11_13
REMARK    5  A    between atoms: C13_18  and  N3_19
REMARK    6  A    between atoms: N3_19  and  C14_21
REMARK    7  A    between atoms: C14_21  and  C15_25
ROOT
HETATM    1  C7  UNL     1     -11.882 -46.476 -57.854  1.00  0.00     0.006 A
HETATM    2  C8  UNL     1     -11.995 -45.385 -57.057  1.00  0.00     0.016 A
HETATM    3  C9  UNL     1     -13.044 -45.151 -56.182  1.00  0.00     0.017 A
HETATM    4  C10 UNL     1     -14.061 -46.130 -56.116  1.00  0.00     0.050 A
HETATM    5  C12 UNL     1     -13.936 -47.231 -56.931  1.00  0.00     0.046 A
HETATM    6  C13 UNL     1     -12.921 -47.416 -57.775  1.00  0.00     0.045 A
ENDROOT
BRANCH   6   7
HETATM    7  N3  UNL     1     -12.885 -48.470 -58.791  1.00  0.00    -0.345 N
ATOM      8  H3  UNL     1     -12.933 -48.264 -59.789  1.00  0.00     0.167 HD
BRANCH   7   9
HETATM    9  C14 UNL     1     -12.779 -49.783 -58.302  1.00  0.00     0.080 C
HETATM   10  N4  UNL     1     -13.883 -50.526 -58.156  1.00  0.00    -0.389 N
ATOM     11  H42 UNL     1     -14.741 -50.066 -58.461  1.00  0.00     0.157 HD
ATOM     12  H41 UNL     1     -13.806 -51.479 -57.801  1.00  0.00     0.157 HD
BRANCH   9  13
HETATM   13  C15 UNL     1     -11.528 -50.454 -57.857  1.00  0.00     0.060 C
HETATM   14  C16 UNL     1     -11.685 -51.318 -56.667  1.00  0.00     0.013 C
HETATM   15  C17 UNL     1     -10.304 -51.800 -56.265  1.00  0.00     0.001 C
HETATM   16  C18 UNL     1      -9.527 -52.379 -57.409  1.00  0.00     0.001 C
HETATM   17  C19 UNL     1      -9.425 -51.403 -58.544  1.00  0.00     0.009 C
HETATM   18  C20 UNL     1     -10.828 -51.074 -59.020  1.00  0.00    -0.037 C
HETATM   19  C21 UNL     1     -10.703 -50.105 -60.148  1.00  0.00     0.015 C
HETATM   20  C22 UNL     1     -11.542 -52.321 -59.494  1.00  0.00     0.015 C
ENDBRANCH   9  13
ENDBRANCH   7   9
ENDBRANCH   6   7
BRANCH   1  21
HETATM   21  C6  UNL     1     -10.833 -46.746 -58.814  1.00  0.00     0.099 C
BRANCH  21  22
HETATM   22  N2  UNL     1      -9.545 -46.989 -58.320  1.00  0.00    -0.386 N
HETATM   23  C5  UNL     1      -8.565 -46.068 -58.779  1.00  0.00     0.152 C
HETATM   24  C4  UNL     1      -8.315 -45.100 -57.587  1.00  0.00     0.292 C
HETATM   25  N1  UNL     1      -7.830 -45.946 -56.525  1.00  0.00     0.095 N
HETATM   26  C24 UNL     1      -8.909 -46.754 -56.020  1.00  0.00     0.292 C
HETATM   27  C23 UNL     1      -9.255 -47.722 -57.187  1.00  0.00     0.152 C
BRANCH  25  28
HETATM   28  C2  UNL     1      -7.188 -45.178 -55.475  1.00  0.00     0.215 C
HETATM   29  C1  UNL     1      -7.276 -45.937 -54.180  1.00  0.00     0.042 C
HETATM   30  C3  UNL     1      -5.722 -45.090 -55.850  1.00  0.00     0.042 C
ENDBRANCH  25  28
ENDBRANCH  21  22
ENDBRANCH   1  21
BRANCH   4  31
HETATM   31  C11 UNL     1     -15.186 -45.972 -55.197  1.00  0.00     0.417 C
HETATM   32  F1  UNL     1     -15.727 -47.172 -54.866  1.00  0.00    -0.166 F
HETATM   33  F2  UNL     1     -16.162 -45.188 -55.818  1.00  0.00    -0.166 F
HETATM   34  F3  UNL     1     -14.772 -45.336 -54.030  1.00  0.00    -0.166 F
ENDBRANCH   4  31
TORSDOF 7
ENDMDL