MODEL 2
REMARK VINA RESULT: -8.126526518      2.857      6.951
REMARK  5 active torsions:
REMARK  status: ('A' for Active; 'I' for Inactive)
REMARK    1  A    between atoms: N1_1  and  C1_4
REMARK    2  A    between atoms: C7_12  and  C8_13
REMARK    3  A    between atoms: C8_13  and  C9_14
REMARK    4  A    between atoms: C15_22  and  C16_23
REMARK    5  A    between atoms: C18_25  and  C19_26
ROOT
HETATM    1  C1  UNL     1     -13.431 -51.823 -58.730  1.00  0.00     0.114 A
HETATM    2  C2  UNL     1     -13.169 -51.287 -57.434  1.00  0.00     0.136 A
HETATM    3  N2  UNL     1     -12.485 -50.160 -57.452  1.00  0.00    -0.361 N
ATOM      4  H2  UNL     1     -12.283 -49.743 -56.543  1.00  0.00     0.165 HD
HETATM    5  C3  UNL     1     -12.031 -49.504 -58.507  1.00  0.00     0.060 A
HETATM    6  C4  UNL     1     -11.260 -48.332 -58.336  1.00  0.00     0.015 A
HETATM    7  C5  UNL     1      -9.985 -48.359 -58.940  1.00  0.00     0.018 A
HETATM    8  C6  UNL     1      -9.092 -47.332 -58.792  1.00  0.00     0.026 A
HETATM    9  C7  UNL     1      -9.505 -46.266 -58.018  1.00  0.00     0.013 A
HETATM   10  N3  UNL     1     -10.696 -46.266 -57.467  1.00  0.00    -0.361 N
ATOM     11  H3  UNL     1     -10.951 -45.456 -56.901  1.00  0.00     0.165 HD
HETATM   12  C15 UNL     1     -11.632 -47.273 -57.590  1.00  0.00     0.028 A
HETATM   13  C24 UNL     1     -12.284 -50.022 -59.755  1.00  0.00     0.120 A
HETATM   14  N5  UNL     1     -13.016 -51.223 -59.800  1.00  0.00    -0.349 N
ATOM     15  H5  UNL     1     -13.228 -51.635 -60.708  1.00  0.00     0.167 HD
ENDROOT
BRANCH  12  16
HETATM   16  C16 UNL     1     -12.966 -47.006 -57.126  1.00  0.00     0.068 C
HETATM   17  C17 UNL     1     -13.326 -45.847 -56.296  1.00  0.00     0.028 C
HETATM   18  C18 UNL     1     -14.826 -45.644 -56.236  1.00  0.00     0.124 C
HETATM   19  C20 UNL     1     -15.427 -45.601 -57.644  1.00  0.00     0.199 C
HETATM   20  C21 UNL     1     -14.713 -44.515 -58.384  1.00  0.00     0.036 C
HETATM   21  N4  UNL     1     -15.094 -46.818 -58.329  1.00  0.00    -0.065 N
HETATM   22  C22 UNL     1     -13.456 -45.227 -58.869  1.00  0.00     0.036 C
HETATM   23  C23 UNL     1     -13.705 -46.680 -58.499  1.00  0.00     0.196 C
ATOM     24  H42 UNL     1     -15.391 -47.674 -57.860  1.00  0.00     0.278 HD
ATOM     25  H41 UNL     1     -15.621 -46.991 -59.185  1.00  0.00     0.278 HD
BRANCH  18  26
HETATM   26  C19 UNL     1     -15.576 -46.615 -55.372  1.00  0.00     0.393 C
HETATM   27  F1  UNL     1     -15.460 -46.294 -54.066  1.00  0.00    -0.171 F
HETATM   28  F2  UNL     1     -16.939 -46.419 -55.708  1.00  0.00    -0.171 F
HETATM   29  F3  UNL     1     -15.363 -47.943 -55.670  1.00  0.00    -0.171 F
ENDBRANCH  18  26
ENDBRANCH  12  16
BRANCH   9  30
HETATM   30  C8  UNL     1      -8.588 -45.070 -57.885  1.00  0.00     0.095 C
BRANCH  30  31
HETATM   31  C9  UNL     1      -7.755 -45.247 -56.673  1.00  0.00    -0.053 A
HETATM   32  C10 UNL     1      -8.346 -45.602 -55.500  1.00  0.00     0.007 A
HETATM   33  C11 UNL     1      -7.510 -45.745 -54.389  1.00  0.00     0.001 A
HETATM   34  C12 UNL     1      -6.182 -45.540 -54.482  1.00  0.00     0.000 A
HETATM   35  C13 UNL     1      -5.563 -45.171 -55.709  1.00  0.00     0.001 A
HETATM   36  C14 UNL     1      -6.407 -45.040 -56.772  1.00  0.00     0.007 A
ENDBRANCH  30  31
ENDBRANCH   9  30
BRANCH   1  37
HETATM   37  N1  UNL     1     -14.072 -52.935 -58.667  1.00  0.00    -0.384 N
ATOM     38  H12 UNL     1     -14.784 -53.195 -57.984  1.00  0.00     0.157 HD
ATOM     39  H11 UNL     1     -13.807 -53.569 -59.421  1.00  0.00     0.157 HD
ENDBRANCH   1  37
TORSDOF 5
ENDMDL