MODEL 1
REMARK VINA RESULT: -8.747586101      0.000      0.000
REMARK  8 active torsions:
REMARK  status: ('A' for Active; 'I' for Inactive)
REMARK    1  A    between atoms: C5_5  and  N1_6
REMARK    2  A    between atoms: N1_6  and  C6_8
REMARK    3  A    between atoms: C13_15  and  N2_16
REMARK    4  A    between atoms: N2_16  and  C14_18
REMARK    5  A    between atoms: C15_21  and  N4_22
REMARK    6  A    between atoms: N4_22  and  C16_24
REMARK    7  A    between atoms: C16_24  and  C17_25
REMARK    8  A    between atoms: C22_33  and  C23_34
ROOT
HETATM    1  C14 UNL     1     -13.895 -45.909 -57.416  1.00  0.00     0.138 A
HETATM    2  N3  UNL     1     -13.868 -45.898 -56.073  1.00  0.00    -0.176 N
ATOM      3  H3  UNL     1     -13.258 -46.557 -55.589  1.00  0.00     0.186 HD
HETATM    4  C15 UNL     1     -14.626 -45.039 -55.329  1.00  0.00     0.679 A
HETATM    5  N5  UNL     1     -15.447 -44.150 -55.917  1.00  0.00    -0.201 N
ATOM      6  H5  UNL     1     -16.010 -43.509 -55.358  1.00  0.00     0.183 HD
HETATM    7  C21 UNL     1     -15.506 -44.127 -57.260  1.00  0.00     0.126 A
HETATM    8  C22 UNL     1     -14.734 -45.001 -58.027  1.00  0.00     0.108 A
ENDROOT
BRANCH   1   9
HETATM    9  N2  UNL     1     -13.212 -46.685 -58.153  1.00  0.00    -0.340 N
ATOM     10  H2  UNL     1     -13.613 -46.965 -59.049  1.00  0.00     0.167 HD
BRANCH   9  11
HETATM   11  C13 UNL     1     -11.929 -47.192 -57.819  1.00  0.00     0.047 A
HETATM   12  C2  UNL     1     -11.840 -48.542 -57.562  1.00  0.00    -0.035 A
HETATM   13  C1  UNL     1     -12.997 -49.471 -57.618  1.00  0.00     0.050 C
HETATM   14  C3  UNL     1     -10.599 -49.048 -57.235  1.00  0.00     0.011 A
HETATM   15  C4  UNL     1      -9.496 -48.186 -57.177  1.00  0.00     0.030 A
HETATM   16  C5  UNL     1      -9.624 -46.843 -57.441  1.00  0.00     0.036 A
HETATM   17  C11 UNL     1     -10.883 -46.325 -57.773  1.00  0.00    -0.008 A
HETATM   18  C12 UNL     1     -10.999 -44.859 -58.054  1.00  0.00     0.053 C
BRANCH  16  19
HETATM   19  N1  UNL     1      -8.492 -46.003 -57.359  1.00  0.00    -0.385 N
ATOM     20  H1  UNL     1      -8.348 -45.284 -58.068  1.00  0.00     0.160 HD
BRANCH  19  21
HETATM   21  C6  UNL     1      -7.547 -46.145 -56.301  1.00  0.00     0.081 C
HETATM   22  C7  UNL     1      -8.153 -45.672 -54.962  1.00  0.00     0.025 C
HETATM   23  C8  UNL     1      -6.914 -45.667 -54.093  1.00  0.00     0.002 C
HETATM   24  C9  UNL     1      -5.936 -44.909 -54.966  1.00  0.00     0.002 C
HETATM   25  C10 UNL     1      -6.409 -45.134 -56.407  1.00  0.00     0.025 C
ENDBRANCH  19  21
ENDBRANCH  16  19
ENDBRANCH   9  11
ENDBRANCH   1   9
BRANCH   8  26
HETATM   26  C23 UNL     1     -14.819 -44.953 -59.497  1.00  0.00     0.422 C
HETATM   27  F1  UNL     1     -15.710 -43.936 -59.825  1.00  0.00    -0.166 F
HETATM   28  F2  UNL     1     -15.354 -46.129 -59.988  1.00  0.00    -0.166 F
HETATM   29  F3  UNL     1     -13.599 -44.773 -60.097  1.00  0.00    -0.166 F
ENDBRANCH   8  26
BRANCH   4  30
HETATM   30  N4  UNL     1     -14.496 -45.143 -54.068  1.00  0.00    -0.224 N
ATOM     31  H4  UNL     1     -13.536 -45.210 -53.730  1.00  0.00     0.177 HD
BRANCH  30  32
HETATM   32  C16 UNL     1     -15.501 -45.181 -53.065  1.00  0.00     0.170 C
BRANCH  32  33
HETATM   33  C17 UNL     1     -16.654 -46.111 -53.385  1.00  0.00     0.139 C
HETATM   34  C18 UNL     1     -17.090 -46.936 -52.212  1.00  0.00     0.035 C
HETATM   35  C19 UNL     1     -17.580 -48.219 -52.847  1.00  0.00     0.029 C
HETATM   36  C20 UNL     1     -17.237 -48.037 -54.302  1.00  0.00     0.168 C
HETATM   37  O1  UNL     1     -16.333 -47.005 -54.402  1.00  0.00    -0.384 OA
ENDBRANCH  32  33
ENDBRANCH  30  32
ENDBRANCH   4  30
TORSDOF 8
ENDMDL