MODEL 1
REMARK VINA RESULT: -7.670976315      0.000      0.000
REMARK  6 active torsions:
REMARK  status: ('A' for Active; 'I' for Inactive)
REMARK    1  A    between atoms: C2_3  and  C3_4
REMARK    2  A    between atoms: C5_10  and  C6_11
REMARK    3  A    between atoms: C6_11  and  C7_12
REMARK       I    between atoms: C7_12  and  N2_14
REMARK    4  A    between atoms: N2_14  and  C8_16
REMARK    5  A    between atoms: C8_16  and  C9_17
REMARK       I    between atoms: C9_17  and  N3_19
REMARK    6  A    between atoms: N3_19  and  C10_21
ROOT
HETATM    1  C8  UNL     1     -14.858 -44.242 -57.524  1.00  0.00     0.113 C
HETATM    2  C16 UNL     1     -15.450 -45.282 -58.440  1.00  0.00     0.041 C
HETATM    3  C17 UNL     1     -14.593 -46.514 -58.445  1.00  0.00     0.003 C
HETATM    4  C18 UNL     1     -15.151 -47.562 -57.468  1.00  0.00     0.000 C
HETATM    5  C19 UNL     1     -14.798 -47.034 -56.089  1.00  0.00     0.000 C
HETATM    6  C20 UNL     1     -15.734 -45.880 -55.806  1.00  0.00     0.003 C
HETATM    7  C21 UNL     1     -15.148 -44.540 -56.068  1.00  0.00     0.041 C
ENDROOT
BRANCH   1   8
HETATM    8  N2  UNL     1     -13.430 -44.222 -57.728  1.00  0.00    -0.343 N
HETATM    9  C7  UNL     1     -12.775 -43.811 -58.907  1.00  0.00     0.223 C
HETATM   10  O1  UNL     1     -13.396 -43.414 -59.921  1.00  0.00    -0.273 OA
ATOM     11  H2  UNL     1     -12.844 -44.532 -56.952  1.00  0.00     0.163 HD
BRANCH   9  12
HETATM   12  C6  UNL     1     -11.278 -43.823 -59.019  1.00  0.00     0.151 C
BRANCH  12  13
HETATM   13  C5  UNL     1     -10.770 -45.243 -59.009  1.00  0.00     0.016 A
HETATM   14  C1  UNL     1     -10.516 -46.034 -57.924  1.00  0.00     0.075 A
HETATM   15  N1  UNL     1     -10.748 -45.499 -56.587  1.00  0.00    -0.100 NA
HETATM   16  C2  UNL     1     -10.060 -47.281 -58.171  1.00  0.00     0.079 A
HETATM   17  C4  UNL     1      -9.893 -47.640 -59.475  1.00  0.00     0.068 A
HETATM   18  S1  UNL     1     -10.370 -46.246 -60.328  1.00  0.00    -0.103 SA
BRANCH  16  19
HETATM   19  C3  UNL     1      -9.738 -48.264 -57.060  1.00  0.00     0.419 C
HETATM   20  F1  UNL     1     -10.962 -48.731 -56.620  1.00  0.00    -0.166 F
HETATM   21  F2  UNL     1      -9.075 -49.355 -57.624  1.00  0.00    -0.166 F
HETATM   22  F3  UNL     1      -9.011 -47.675 -56.081  1.00  0.00    -0.166 F
ENDBRANCH  16  19
ENDBRANCH  12  13
ENDBRANCH   9  12
ENDBRANCH   1   8
BRANCH   1  23
HETATM   23  C9  UNL     1     -15.399 -42.892 -57.809  1.00  0.00     0.246 C
HETATM   24  O2  UNL     1     -15.142 -41.935 -57.038  1.00  0.00    -0.271 OA
HETATM   25  N3  UNL     1     -16.213 -42.660 -58.953  1.00  0.00    -0.354 N
ATOM     26  H3  UNL     1     -16.409 -43.452 -59.564  1.00  0.00     0.162 HD
BRANCH  25  27
HETATM   27  C10 UNL     1     -16.774 -41.396 -59.304  1.00  0.00     0.084 C
HETATM   28  C11 UNL     1     -16.079 -40.730 -60.468  1.00  0.00     0.025 C
HETATM   29  C12 UNL     1     -16.953 -39.569 -60.906  1.00  0.00     0.002 C
HETATM   30  C13 UNL     1     -17.821 -39.088 -59.740  1.00  0.00     0.000 C
HETATM   31  C14 UNL     1     -18.858 -40.128 -59.382  1.00  0.00     0.002 C
HETATM   32  C15 UNL     1     -18.245 -41.482 -59.659  1.00  0.00     0.025 C
ENDBRANCH  25  27
ENDBRANCH   1  23
TORSDOF 6
ENDMDL