MODEL 5
REMARK VINA RESULT: -8.854005476      4.550      7.086
REMARK  7 active torsions:
REMARK  status: ('A' for Active; 'I' for Inactive)
REMARK    1  A    between atoms: C1_2  and  C2_4
REMARK    2  A    between atoms: C7_9  and  C8_10
REMARK    3  A    between atoms: C8_10  and  C9_11
REMARK    4  A    between atoms: C9_11  and  C10_12
REMARK    5  A    between atoms: N2_15  and  C11_16
REMARK    6  A    between atoms: C15_20  and  C16_21
REMARK    7  A    between atoms: C20_30  and  O3_31
ROOT
HETATM    1  C10 UNL     1     -12.863 -46.460 -56.612  1.00  0.00     0.054 A
HETATM    2  N1  UNL     1     -11.693 -45.828 -56.638  1.00  0.00    -0.295 N
ATOM      3  H1  UNL     1     -11.543 -44.875 -56.307  1.00  0.00     0.187 HD
HETATM    4  N2  UNL     1     -10.732 -46.616 -57.162  1.00  0.00    -0.258 N
HETATM    5  C18 UNL     1     -11.286 -47.789 -57.486  1.00  0.00     0.063 A
HETATM    6  C19 UNL     1     -12.633 -47.693 -57.138  1.00  0.00     0.079 A
HETATM    7  N3  UNL     1     -13.628 -48.670 -57.283  1.00  0.00    -0.361 N
ATOM      8  H3  UNL     1     -14.561 -48.360 -57.009  1.00  0.00     0.162 HD
HETATM    9  C20 UNL     1     -13.572 -50.030 -57.746  1.00  0.00     0.218 C
HETATM   10  C21 UNL     1     -12.618 -50.000 -58.953  1.00  0.00     0.054 C
HETATM   11  C22 UNL     1     -11.247 -50.128 -58.399  1.00  0.00     0.010 C
HETATM   12  C23 UNL     1     -10.520 -48.875 -58.082  1.00  0.00     0.062 C
ENDROOT
BRANCH   1  13
HETATM   13  C9  UNL     1     -14.093 -45.822 -56.053  1.00  0.00     0.061 C
BRANCH  13  14
HETATM   14  C8  UNL     1     -15.079 -45.744 -57.191  1.00  0.00     0.011 C
BRANCH  14  15
HETATM   15  C7  UNL     1     -14.736 -44.690 -58.218  1.00  0.00     0.000 C
HETATM   16  C2  UNL     1     -15.625 -43.472 -58.023  1.00  0.00     0.091 C
HETATM   17  C3  UNL     1     -16.276 -43.075 -59.338  1.00  0.00     0.015 C
HETATM   18  C4  UNL     1     -15.340 -43.059 -60.497  1.00  0.00     0.001 C
HETATM   19  C5  UNL     1     -14.504 -44.315 -60.601  1.00  0.00     0.000 C
HETATM   20  C6  UNL     1     -15.036 -45.297 -59.569  1.00  0.00     0.005 C
BRANCH  16  21
HETATM   21  C1  UNL     1     -14.909 -42.325 -57.425  1.00  0.00     0.177 C
HETATM   22  O1  UNL     1     -13.759 -42.414 -56.938  1.00  0.00    -0.648 OA
HETATM   23  O2  UNL     1     -15.484 -41.047 -57.366  1.00  0.00    -0.648 OA
ENDBRANCH  16  21
ENDBRANCH  14  15
ENDBRANCH  13  14
ENDBRANCH   1  13
BRANCH   4  24
HETATM   24  C11 UNL     1      -9.411 -46.093 -57.253  1.00  0.00     0.057 A
HETATM   25  C12 UNL     1      -8.974 -45.625 -58.506  1.00  0.00     0.031 A
HETATM   26  C13 UNL     1      -7.723 -45.062 -58.648  1.00  0.00     0.003 A
HETATM   27  C14 UNL     1      -6.862 -44.936 -57.578  1.00  0.00     0.016 A
HETATM   28  C15 UNL     1      -7.276 -45.387 -56.358  1.00  0.00     0.050 A
HETATM   29  C17 UNL     1      -8.542 -45.959 -56.210  1.00  0.00     0.047 A
BRANCH  28  30
HETATM   30  C16 UNL     1      -6.360 -45.255 -55.191  1.00  0.00     0.417 C
HETATM   31  F1  UNL     1      -6.200 -43.943 -54.810  1.00  0.00    -0.166 F
HETATM   32  F2  UNL     1      -6.840 -46.054 -54.193  1.00  0.00    -0.166 F
HETATM   33  F3  UNL     1      -5.128 -45.725 -55.630  1.00  0.00    -0.166 F
ENDBRANCH  28  30
ENDBRANCH   4  24
BRANCH   9  34
HETATM   34  O3  UNL     1     -14.780 -50.572 -58.078  1.00  0.00    -0.377 OA
ATOM     35  H3  UNL     1     -14.953 -50.618 -59.011  1.00  0.00     0.212 HD
ENDBRANCH   9  34
TORSDOF 7
ENDMDL