MODEL 5
REMARK VINA RESULT: -7.218978110      3.115      4.142
REMARK  7 active torsions:
REMARK  status: ('A' for Active; 'I' for Inactive)
REMARK    1  A    between atoms: C2_2  and  C3_3
REMARK    2  A    between atoms: C3_3  and  N1_4
REMARK    3  A    between atoms: C3_3  and  C13_17
REMARK    4  A    between atoms: N1_4  and  C4_6
REMARK    5  A    between atoms: C13_17  and  O1_18
REMARK    6  A    between atoms: C13_17  and  C14_20
REMARK    7  A    between atoms: C18_28  and  O3_29
ROOT
HETATM    1  C3  UNL     1     -13.771 -45.927 -56.252  1.00  0.00     0.134 C
ENDROOT
BRANCH   1   2
HETATM    2  C2  UNL     1     -13.136 -44.549 -56.459  1.00  0.00     0.027 C
HETATM    3  C1  UNL     1     -12.910 -44.216 -57.913  1.00  0.00     0.007 C
ENDBRANCH   1   2
BRANCH   1   4
HETATM    4  N1  UNL     1     -13.899 -46.621 -57.495  1.00  0.00    -0.402 N
ATOM      5  H1  UNL     1     -14.450 -46.172 -58.226  1.00  0.00     0.154 HD
BRANCH   4   6
HETATM    6  C4  UNL     1     -13.342 -47.846 -57.791  1.00  0.00     0.034 C
HETATM    7  C5  UNL     1     -13.082 -48.856 -56.740  1.00  0.00     0.074 C
HETATM    8  C6  UNL     1     -11.857 -49.595 -57.315  1.00  0.00     0.107 C
HETATM    9  F1  UNL     1     -11.335 -50.466 -56.417  1.00  0.00    -0.243 F
HETATM   10  C7  UNL     1     -10.975 -48.390 -57.568  1.00  0.00     0.050 C
HETATM   11  C11 UNL     1     -12.282 -50.279 -58.593  1.00  0.00     0.064 C
HETATM   12  C8  UNL     1     -11.940 -47.542 -58.367  1.00  0.00     0.018 C
HETATM   13  C9  UNL     1     -11.939 -48.101 -59.772  1.00  0.00     0.028 C
HETATM   14  C10 UNL     1     -12.861 -49.306 -59.562  1.00  0.00     0.024 C
HETATM   15 BR1  UNL     1     -13.327 -50.147 -61.221  1.00  0.00    -0.085 Br
HETATM   16  C12 UNL     1     -14.039 -48.596 -58.929  1.00  0.00     0.052 C
ENDBRANCH   4   6
ENDBRANCH   1   4
BRANCH   1  17
HETATM   17  C13 UNL     1     -15.127 -45.770 -55.723  1.00  0.00     0.080 C
BRANCH  17  18
HETATM   18  O1  UNL     1     -15.726 -44.760 -56.307  1.00  0.00    -0.362 OA
ATOM     19  H1  UNL     1     -16.071 -45.028 -57.150  1.00  0.00     0.217 HD
ENDBRANCH  17  18
BRANCH  17  20
HETATM   20  C14 UNL     1     -15.920 -46.433 -54.754  1.00  0.00     0.057 A
HETATM   21  C15 UNL     1     -16.676 -47.544 -54.988  1.00  0.00     0.065 A
HETATM   22 CL1  UNL     1     -16.797 -48.351 -56.557  1.00  0.00    -0.082 Cl
HETATM   23  C16 UNL     1     -17.443 -48.066 -53.942  1.00  0.00     0.116 A
HETATM   24  N2  UNL     1     -17.482 -47.536 -52.713  1.00  0.00    -0.330 N
HETATM   25  C17 UNL     1     -16.747 -46.438 -52.454  1.00  0.00     0.279 A
ATOM     26  H2  UNL     1     -18.059 -47.957 -51.984  1.00  0.00     0.168 HD
HETATM   27  O2  UNL     1     -16.778 -45.931 -51.300  1.00  0.00    -0.265 OA
HETATM   28  C18 UNL     1     -15.983 -45.897 -53.448  1.00  0.00     0.148 A
BRANCH  28  29
HETATM   29  O3  UNL     1     -15.247 -44.762 -53.113  1.00  0.00    -0.355 OA
ATOM     30  H3  UNL     1     -15.557 -44.168 -52.440  1.00  0.00     0.218 HD
ENDBRANCH  28  29
ENDBRANCH  17  20
ENDBRANCH   1  17
TORSDOF 7
ENDMDL