MODEL 2
REMARK VINA RESULT: -7.510667788      0.139      1.071
REMARK  8 active torsions:
REMARK  status: ('A' for Active; 'I' for Inactive)
REMARK    1  A    between atoms: C2_2  and  N1_3
REMARK    2  A    between atoms: C2_2  and  C18_30
REMARK    3  A    between atoms: N1_3  and  C3_5
REMARK    4  A    between atoms: C3_5  and  O1_7
REMARK    5  A    between atoms: O1_7  and  C4_8
REMARK    6  A    between atoms: C9_13  and  N2_14
REMARK       I    between atoms: N2_14  and  C10_16
REMARK       I    between atoms: C10_16  and  N3_18
REMARK    7  A    between atoms: N3_18  and  C11_20
REMARK    8  A    between atoms: C15_24  and  C16_25
ROOT
HETATM    1  C4  UNL     1     -14.649 -46.353 -57.654  1.00  0.00     0.154 C
HETATM    2  C5  UNL     1     -14.704 -47.329 -56.560  1.00  0.00     0.034 C
HETATM    3  C6  UNL     1     -15.511 -46.855 -55.385  1.00  0.00     0.003 C
HETATM    4  C7  UNL     1     -15.684 -45.392 -55.223  1.00  0.00     0.002 C
HETATM    5  C8  UNL     1     -15.202 -44.480 -56.270  1.00  0.00     0.028 C
HETATM    6  C9  UNL     1     -14.048 -45.057 -57.131  1.00  0.00     0.115 C
ENDROOT
BRANCH   6   7
HETATM    7  N2  UNL     1     -12.957 -45.184 -56.233  1.00  0.00    -0.336 N
HETATM    8  C10 UNL     1     -11.578 -45.248 -56.725  1.00  0.00     0.321 C
HETATM    9  O2  UNL     1     -11.361 -45.250 -57.946  1.00  0.00    -0.247 OA
HETATM   10  N3  UNL     1     -10.548 -45.300 -55.796  1.00  0.00    -0.309 N
ATOM     11  H3  UNL     1     -10.915 -45.194 -54.850  1.00  0.00     0.170 HD
ATOM     12  H2  UNL     1     -13.134 -45.231 -55.230  1.00  0.00     0.164 HD
BRANCH  10  13
HETATM   13  C11 UNL     1      -9.179 -45.452 -55.768  1.00  0.00     0.037 A
HETATM   14  C12 UNL     1      -8.498 -45.568 -54.534  1.00  0.00     0.029 A
HETATM   15  C13 UNL     1      -7.133 -45.623 -54.451  1.00  0.00     0.003 A
HETATM   16  C14 UNL     1      -6.384 -45.566 -55.592  1.00  0.00     0.016 A
HETATM   17  C15 UNL     1      -7.008 -45.457 -56.807  1.00  0.00     0.050 A
HETATM   18  C17 UNL     1      -8.392 -45.401 -56.884  1.00  0.00     0.045 A
BRANCH  17  19
HETATM   19  C16 UNL     1      -6.133 -45.372 -58.012  1.00  0.00     0.417 C
HETATM   20  F1  UNL     1      -6.498 -44.240 -58.746  1.00  0.00    -0.166 F
HETATM   21  F2  UNL     1      -4.838 -45.113 -57.542  1.00  0.00    -0.166 F
HETATM   22  F3  UNL     1      -6.173 -46.501 -58.786  1.00  0.00    -0.166 F
ENDBRANCH  17  19
ENDBRANCH  10  13
ENDBRANCH   6   7
BRANCH   1  23
HETATM   23  O1  UNL     1     -14.374 -46.707 -58.915  1.00  0.00    -0.320 OA
BRANCH  23  24
HETATM   24  C3  UNL     1     -13.589 -47.785 -59.368  1.00  0.00     0.210 C
HETATM   25  S1  UNL     1     -14.375 -48.722 -60.439  1.00  0.00    -0.033 SA
BRANCH  24  26
HETATM   26  N1  UNL     1     -12.291 -48.032 -58.961  1.00  0.00    -0.356 N
ATOM     27  H1  UNL     1     -11.785 -47.150 -58.892  1.00  0.00     0.162 HD
BRANCH  26  28
HETATM   28  C2  UNL     1     -11.438 -49.081 -58.614  1.00  0.00     0.087 C
HETATM   29  C1  UNL     1     -12.137 -49.856 -57.418  1.00  0.00     0.033 C
BRANCH  28  30
HETATM   30  C18 UNL     1     -10.036 -48.978 -58.176  1.00  0.00    -0.031 C
HETATM   31  C19 UNL     1      -9.387 -50.390 -58.512  1.00  0.00     0.016 C
HETATM   32  C20 UNL     1      -9.798 -48.785 -56.727  1.00  0.00     0.016 C
HETATM   33  C21 UNL     1      -9.139 -48.073 -59.021  1.00  0.00     0.016 C
ENDBRANCH  28  30
ENDBRANCH  26  28
ENDBRANCH  24  26
ENDBRANCH  23  24
ENDBRANCH   1  23
TORSDOF 8
ENDMDL