MODEL 1
REMARK VINA RESULT: -3.910311598      0.000      0.000
REMARK  7 active torsions:
REMARK  status: ('A' for Active; 'I' for Inactive)
REMARK    1  A    between atoms: C5_9  and  N3_10
REMARK    2  A    between atoms: C6_15  and  N5_16
REMARK    3  A    between atoms: N6_21  and  C9_22
REMARK    4  A    between atoms: C9_22  and  C10_23
REMARK    5  A    between atoms: C10_23  and  N7_24
REMARK    6  A    between atoms: N7_24  and  C11_25
REMARK    7  A    between atoms: N7_24  and  C14_28
ROOT
HETATM    1  C1  UNL     1      27.417  29.588   7.764  1.00  0.00     0.034 C
HETATM    2  C2  UNL     1      27.200  29.225   9.239  1.00  0.00     0.097 C
HETATM    3  C3  UNL     1      27.866  30.283  10.146  1.00  0.00     0.146 C
HETATM    4  N1  UNL     1      27.443  31.579   9.627  1.00  0.00    -0.373 N
ATOM      5  H1  UNL     1      28.157  32.267   9.387  1.00  0.00     0.161 HD
HETATM    6  C4  UNL     1      26.072  31.925   9.441  1.00  0.00     0.132 A
HETATM    7  N2  UNL     1      25.941  33.210   8.994  1.00  0.00    -0.176 N
ATOM      8  H2  UNL     1      26.766  33.788   8.834  1.00  0.00     0.186 HD
HETATM    9  C5  UNL     1      24.711  33.699   8.769  1.00  0.00     0.679 A
HETATM   10  N4  UNL     1      23.605  32.947   8.978  1.00  0.00    -0.176 N
ATOM     11  H4  UNL     1      22.684  33.347   8.799  1.00  0.00     0.186 HD
HETATM   12  C6  UNL     1      23.703  31.675   9.419  1.00  0.00     0.130 A
HETATM   13  C7  UNL     1      24.944  31.146   9.657  1.00  0.00     0.068 A
HETATM   14  C8  UNL     1      24.968  29.755  10.126  1.00  0.00     0.105 C
HETATM   15  N6  UNL     1      25.897  28.897   9.569  1.00  0.00    -0.381 N
ENDROOT
BRANCH  15  16
HETATM   16  C9  UNL     1      25.478  27.594   9.111  1.00  0.00     0.153 C
BRANCH  16  17
HETATM   17  C10 UNL     1      24.092  27.651   8.639  1.00  0.00     0.293 C
BRANCH  17  18
HETATM   18  N7  UNL     1      23.415  26.525   8.096  1.00  0.00     0.097 N
BRANCH  18  19
HETATM   19  C11 UNL     1      22.721  25.898   9.205  1.00  0.00     0.215 C
HETATM   20  C12 UNL     1      21.949  24.681   8.775  1.00  0.00     0.042 C
HETATM   21  C13 UNL     1      22.015  26.826  10.146  1.00  0.00     0.042 C
ENDBRANCH  18  19
BRANCH  18  22
HETATM   22  C14 UNL     1      22.758  26.649   6.914  1.00  0.00     0.215 C
HETATM   23  C15 UNL     1      22.002  27.936   6.755  1.00  0.00     0.042 C
HETATM   24  C16 UNL     1      23.579  26.537   5.643  1.00  0.00     0.042 C
ENDBRANCH  18  22
ENDBRANCH  17  18
ENDBRANCH  16  17
ENDBRANCH  15  16
BRANCH  12  25
HETATM   25  N5  UNL     1      22.680  30.939   9.628  1.00  0.00    -0.384 N
ATOM     26  H52 UNL     1      22.057  31.183  10.397  1.00  0.00     0.157 HD
ATOM     27  H51 UNL     1      22.465  30.123   9.056  1.00  0.00     0.157 HD
ENDBRANCH  12  25
BRANCH   9  28
HETATM   28  N3  UNL     1      24.531  34.902   8.340  1.00  0.00    -0.234 N
ATOM     29  H32 UNL     1      25.365  35.459   8.153  1.00  0.00     0.174 HD
ATOM     30  H31 UNL     1      23.596  35.284   8.198  1.00  0.00     0.174 HD
ENDBRANCH   9  28
TORSDOF 7
ENDMDL