MODEL 3
REMARK VINA RESULT: -6.283370409      2.499      4.845
REMARK  8 active torsions:
REMARK  status: ('A' for Active; 'I' for Inactive)
REMARK    1  A    between atoms: C6_10  and  N3_11
REMARK    2  A    between atoms: N3_11  and  C7_13
REMARK    3  A    between atoms: C8_16  and  N5_17
REMARK    4  A    between atoms: N5_17  and  C9_19
REMARK    5  A    between atoms: C9_19  and  C10_20
REMARK    6  A    between atoms: C10_20  and  C11_21
REMARK    7  A    between atoms: C11_21  and  C12_22
REMARK    8  A    between atoms: C12_22  and  O1_23
ROOT
HETATM    1  C1  UNL     1      28.394  22.532  -1.081  1.00  0.00     0.103 C
HETATM    2  C2  UNL     1      28.793  23.688  -1.025  1.00  0.00    -0.143 C
HETATM    3  C3  UNL     1      29.264  25.041  -0.937  1.00  0.00     0.073 A
HETATM    4  C4  UNL     1      30.187  25.570  -0.048  1.00  0.00     0.043 A
HETATM    5  C5  UNL     1      30.848  24.728   1.001  1.00  0.00     0.071 C
HETATM    6  N1  UNL     1      30.361  26.882  -0.288  1.00  0.00    -0.302 N
ATOM      7  H1  UNL     1      30.983  27.513   0.219  1.00  0.00     0.186 HD
HETATM    8  N2  UNL     1      29.588  27.198  -1.289  1.00  0.00    -0.284 N
ATOM      9  H2  UNL     1      29.517  28.135  -1.687  1.00  0.00     0.188 HD
HETATM   10  C6  UNL     1      28.890  26.124  -1.735  1.00  0.00     0.141 A
ENDROOT
BRANCH  10  11
HETATM   11  N3  UNL     1      28.040  26.065  -2.697  1.00  0.00    -0.324 N
ATOM     12  H3  UNL     1      27.964  25.238  -3.289  1.00  0.00     0.169 HD
BRANCH  11  13
HETATM   13  C7  UNL     1      27.201  27.213  -2.905  1.00  0.00     0.153 A
HETATM   14  N4  UNL     1      27.739  28.299  -3.487  1.00  0.00    -0.174 N
HETATM   15  C8  UNL     1      26.944  29.381  -3.680  1.00  0.00     0.681 A
ATOM     16  H4  UNL     1      28.717  28.310  -3.775  1.00  0.00     0.186 HD
HETATM   17  N6  UNL     1      25.661  29.354  -3.300  1.00  0.00    -0.174 N
HETATM   18  C13 UNL     1      25.080  28.295  -2.716  1.00  0.00     0.152 A
ATOM     19  H6  UNL     1      25.094  30.185  -3.463  1.00  0.00     0.186 HD
HETATM   20  N7  UNL     1      23.841  28.082  -2.274  1.00  0.00    -0.336 N
HETATM   21  C15 UNL     1      25.876  27.186  -2.511  1.00  0.00     0.123 A
HETATM   22  C14 UNL     1      23.841  26.829  -1.784  1.00  0.00     0.182 A
ATOM     23  H7  UNL     1      23.056  28.733  -2.302  1.00  0.00     0.168 HD
HETATM   24  N8  UNL     1      25.085  26.282  -1.928  1.00  0.00    -0.346 N
ATOM     25  H8  UNL     1      25.362  25.344  -1.639  1.00  0.00     0.167 HD
BRANCH  15  26
HETATM   26  N5  UNL     1      27.485  30.406  -4.240  1.00  0.00    -0.226 N
ATOM     27  H5  UNL     1      28.060  30.263  -5.070  1.00  0.00     0.177 HD
BRANCH  26  28
HETATM   28  C9  UNL     1      27.314  31.754  -3.743  1.00  0.00     0.138 C
BRANCH  28  29
HETATM   29  C10 UNL     1      28.490  32.192  -2.902  1.00  0.00     0.022 C
BRANCH  29  30
HETATM   30  C11 UNL     1      28.427  31.686  -1.494  1.00  0.00     0.028 C
BRANCH  30  31
HETATM   31  C12 UNL     1      29.611  30.847  -1.112  1.00  0.00     0.164 C
BRANCH  31  32
HETATM   32  O1  UNL     1      29.876  29.993  -2.199  1.00  0.00    -0.401 OA
ATOM     33  H1  UNL     1      30.235  29.191  -1.840  1.00  0.00     0.209 HD
ENDBRANCH  31  32
ENDBRANCH  30  31
ENDBRANCH  29  30
ENDBRANCH  28  29
ENDBRANCH  26  28
ENDBRANCH  15  26
ENDBRANCH  11  13
ENDBRANCH  10  11
TORSDOF 8
ENDMDL