MODEL 4
REMARK VINA RESULT: -5.185721477      1.363      1.758
REMARK  8 active torsions:
REMARK  status: ('A' for Active; 'I' for Inactive)
REMARK    1  A    between atoms: C3_3  and  C4_4
REMARK    2  A    between atoms: C6_9  and  N3_10
REMARK    3  A    between atoms: N3_10  and  C7_11
REMARK    4  A    between atoms: C11_17  and  N5_18
REMARK    5  A    between atoms: N5_18  and  C12_20
REMARK    6  A    between atoms: C12_20  and  C13_21
REMARK    7  A    between atoms: C13_21  and  C14_22
REMARK    8  A    between atoms: C16_28  and  N8_29
ROOT
HETATM    1  C1  UNL     1      28.065  21.813   1.606  1.00  0.00     0.012 C
HETATM    2  C2  UNL     1      29.013  22.324   1.066  1.00  0.00    -0.113 C
HETATM    3  C3  UNL     1      30.173  22.930   0.419  1.00  0.00     0.139 C
ENDROOT
BRANCH   3   4
HETATM    4  C4  UNL     1      29.895  24.255  -0.146  1.00  0.00     0.038 A
HETATM    5  C5  UNL     1      29.114  24.431  -1.276  1.00  0.00     0.130 A
HETATM    6  N1  UNL     1      28.555  23.291  -1.920  1.00  0.00    -0.082 NA
HETATM    7  N2  UNL     1      28.905  25.663  -1.733  1.00  0.00    -0.304 N
HETATM    8  C6  UNL     1      29.429  26.779  -1.135  1.00  0.00     0.265 A
ATOM      9  H2  UNL     1      28.327  25.781  -2.566  1.00  0.00     0.171 HD
HETATM   10  N7  UNL     1      30.193  26.533  -0.021  1.00  0.00    -0.302 N
HETATM   11  C16 UNL     1      30.443  25.348   0.489  1.00  0.00     0.112 A
ATOM     12  H7  UNL     1      30.601  27.339   0.452  1.00  0.00     0.171 HD
BRANCH   8  13
HETATM   13  N3  UNL     1      29.256  28.022  -1.540  1.00  0.00    -0.335 NA
BRANCH  13  14
HETATM   14  C7  UNL     1      29.072  29.138  -1.855  1.00  0.00     0.264 A
HETATM   15  N4  UNL     1      29.159  30.153  -0.944  1.00  0.00    -0.320 N
HETATM   16  C8  UNL     1      28.954  31.424  -1.254  1.00  0.00     0.013 A
ATOM     17  H4  UNL     1      29.394  29.920   0.022  1.00  0.00     0.169 HD
HETATM   18  C9  UNL     1      29.049  32.532  -0.261  1.00  0.00     0.068 C
HETATM   19  C10 UNL     1      28.634  31.760  -2.561  1.00  0.00     0.073 A
HETATM   20  C11 UNL     1      28.538  30.751  -3.506  1.00  0.00     0.106 A
HETATM   21  N6  UNL     1      28.757  29.481  -3.136  1.00  0.00    -0.302 N
ATOM     22  H6  UNL     1      28.685  28.744  -3.838  1.00  0.00     0.171 HD
BRANCH  20  23
HETATM   23  N5  UNL     1      28.239  31.009  -4.730  1.00  0.00    -0.376 N
ATOM     24  H5  UNL     1      28.859  31.637  -5.241  1.00  0.00     0.161 HD
BRANCH  23  25
HETATM   25  C12 UNL     1      27.099  30.484  -5.440  1.00  0.00     0.121 C
BRANCH  25  26
HETATM   26  C13 UNL     1      26.021  30.234  -4.421  1.00  0.00     0.019 C
BRANCH  26  27
HETATM   27  C14 UNL     1      26.053  28.826  -3.864  1.00  0.00    -0.003 C
HETATM   28  C15 UNL     1      25.288  28.695  -2.588  1.00  0.00     0.005 C
ENDBRANCH  26  27
ENDBRANCH  25  26
ENDBRANCH  23  25
ENDBRANCH  20  23
ENDBRANCH  13  14
ENDBRANCH   8  13
BRANCH  11  29
HETATM   29  N8  UNL     1      31.181  25.203   1.553  1.00  0.00    -0.385 N
ATOM     30  H82 UNL     1      31.252  24.308   2.038  1.00  0.00     0.157 HD
ATOM     31  H81 UNL     1      31.711  25.987   1.933  1.00  0.00     0.157 HD
ENDBRANCH  11  29
ENDBRANCH   3   4
TORSDOF 8
ENDMDL