MODEL 4
REMARK VINA RESULT: -7.226165358      1.502      3.943
REMARK  7 active torsions:
REMARK  status: ('A' for Active; 'I' for Inactive)
REMARK    1  A    between atoms: C3_5  and  N2_6
REMARK    2  A    between atoms: C5_12  and  C6_13
REMARK    3  A    between atoms: C6_13  and  N4_14
REMARK    4  A    between atoms: N4_14  and  C7_16
REMARK    5  A    between atoms: C8_19  and  C9_20
REMARK    6  A    between atoms: C9_20  and  N6_21
REMARK    7  A    between atoms: C15_27  and  N7_28
ROOT
HETATM    1  C7  UNL     1      28.160  27.402  -2.708  1.00  0.00     0.680 A
HETATM    2  N5  UNL     1      26.809  27.345  -2.697  1.00  0.00    -0.194 N
ATOM      3  H5  UNL     1      26.353  26.434  -2.654  1.00  0.00     0.184 HD
HETATM    4  C8  UNL     1      26.049  28.454  -2.741  1.00  0.00     0.058 A
HETATM    5  C14 UNL     1      26.701  29.664  -2.799  1.00  0.00     0.076 A
HETATM    6  C15 UNL     1      28.083  29.739  -2.810  1.00  0.00     0.116 A
HETATM    7  N8  UNL     1      28.796  28.584  -2.764  1.00  0.00    -0.177 N
ATOM      8  H8  UNL     1      29.815  28.614  -2.771  1.00  0.00     0.185 HD
ENDROOT
BRANCH   1   9
HETATM    9  N4  UNL     1      28.805  26.287  -2.664  1.00  0.00    -0.222 N
ATOM     10  H4  UNL     1      28.550  25.547  -3.317  1.00  0.00     0.178 HD
BRANCH   9  11
HETATM   11  C6  UNL     1      29.877  26.046  -1.723  1.00  0.00     0.180 C
BRANCH  11  12
HETATM   12  C5  UNL     1      29.570  24.854  -0.905  1.00  0.00    -0.001 A
HETATM   13  C2  UNL     1      30.115  24.661   0.352  1.00  0.00     0.032 A
HETATM   14  C1  UNL     1      31.037  25.683   0.896  1.00  0.00     0.069 C
HETATM   15  N1  UNL     1      29.767  23.541   1.011  1.00  0.00    -0.196 N
HETATM   16  C3  UNL     1      28.932  22.617   0.516  1.00  0.00     0.675 A
ATOM     17  H1  UNL     1      30.162  23.386   1.939  1.00  0.00     0.184 HD
HETATM   18  N3  UNL     1      28.396  22.794  -0.707  1.00  0.00    -0.202 N
HETATM   19  C4  UNL     1      28.712  23.893  -1.398  1.00  0.00     0.116 A
ATOM     20  H3  UNL     1      27.759  22.100  -1.098  1.00  0.00     0.183 HD
BRANCH  16  21
HETATM   21  N2  UNL     1      28.602  21.541   1.156  1.00  0.00    -0.234 N
ATOM     22  H22 UNL     1      28.795  21.518   2.158  1.00  0.00     0.174 HD
ATOM     23  H21 UNL     1      28.167  20.735   0.709  1.00  0.00     0.174 HD
ENDBRANCH  16  21
ENDBRANCH  11  12
ENDBRANCH   9  11
ENDBRANCH   1   9
BRANCH   4  24
HETATM   24  C9  UNL     1      24.591  28.342  -2.726  1.00  0.00     0.330 C
BRANCH  24  25
HETATM   25  N6  UNL     1      24.067  27.222  -2.014  1.00  0.00     0.094 N
HETATM   26  C10 UNL     1      22.918  26.598  -2.578  1.00  0.00     0.273 C
HETATM   27  C11 UNL     1      22.029  26.196  -1.391  1.00  0.00     0.032 C
HETATM   28  C12 UNL     1      22.256  27.424  -0.497  1.00  0.00     0.032 C
HETATM   29  C13 UNL     1      23.749  27.615  -0.666  1.00  0.00     0.273 C
ENDBRANCH  24  25
ENDBRANCH   4  24
BRANCH   6  30
HETATM   30  N7  UNL     1      28.707  30.868  -2.864  1.00  0.00    -0.385 N
ATOM     31  H72 UNL     1      28.580  31.547  -2.113  1.00  0.00     0.157 HD
ATOM     32  H71 UNL     1      29.328  31.107  -3.637  1.00  0.00     0.157 HD
ENDBRANCH   6  30
TORSDOF 7
ENDMDL