MODEL 3
REMARK VINA RESULT: -5.957543843      1.358      2.684
REMARK  7 active torsions:
REMARK  status: ('A' for Active; 'I' for Inactive)
REMARK    1  A    between atoms: C2_2  and  C3_3
REMARK    2  A    between atoms: N2_12  and  C10_14
REMARK    3  A    between atoms: C11_17  and  N4_18
REMARK    4  A    between atoms: N6_24  and  C13_26
REMARK    5  A    between atoms: C13_26  and  C14_27
REMARK    6  A    between atoms: C14_27  and  C15_28
REMARK    7  A    between atoms: C15_28  and  O1_29
ROOT
HETATM    1  C10 UNL     1      28.556  26.741  -2.698  1.00  0.00     0.713 A
HETATM    2  N3  UNL     1      29.856  26.616  -2.964  1.00  0.00    -0.021 N
ATOM      3  H3  UNL     1      30.319  27.329  -3.526  1.00  0.00     0.203 HD
HETATM    4  C11 UNL     1      30.581  25.559  -2.505  1.00  0.00     0.705 A
HETATM    5  N5  UNL     1      29.943  24.635  -1.769  1.00  0.00    -0.022 N
ATOM      6  H5  UNL     1      30.475  23.838  -1.419  1.00  0.00     0.203 HD
HETATM    7  C12 UNL     1      28.635  24.713  -1.471  1.00  0.00     0.707 A
HETATM    8  N6  UNL     1      27.992  23.853  -0.769  1.00  0.00    -0.225 N
ATOM      9  H6  UNL     1      26.998  23.994  -0.592  1.00  0.00     0.177 HD
HETATM   10  N7  UNL     1      27.958  25.797  -1.959  1.00  0.00    -0.021 N
ATOM     11  H7  UNL     1      26.963  25.890  -1.753  1.00  0.00     0.203 HD
ENDROOT
BRANCH   1  12
HETATM   12  N2  UNL     1      27.801  27.835  -3.173  1.00  0.00    -0.175 N
HETATM   13  C9  UNL     1      28.129  29.018  -2.815  1.00  0.00     0.128 A
HETATM   14  C3  UNL     1      27.383  30.072  -3.285  1.00  0.00    -0.008 A
HETATM   15  N1  UNL     1      29.175  29.243  -2.003  1.00  0.00    -0.345 N
HETATM   16  C4  UNL     1      27.657  31.380  -2.961  1.00  0.00    -0.050 A
HETATM   17  C5  UNL     1      26.832  32.489  -3.488  1.00  0.00     0.049 C
HETATM   18  C6  UNL     1      28.739  31.579  -2.125  1.00  0.00     0.032 A
HETATM   19  C7  UNL     1      29.486  30.519  -1.655  1.00  0.00     0.007 A
HETATM   20  C8  UNL     1      30.658  30.776  -0.747  1.00  0.00     0.068 C
ATOM     21  H1  UNL     1      29.731  28.464  -1.652  1.00  0.00     0.167 HD
ATOM     22  H2  UNL     1      27.005  27.684  -3.793  1.00  0.00     0.186 HD
BRANCH  14  23
HETATM   23  C2  UNL     1      26.240  29.785  -4.174  1.00  0.00     0.038 C
HETATM   24  C1  UNL     1      26.722  30.015  -5.611  1.00  0.00     0.010 C
ENDBRANCH  14  23
ENDBRANCH   1  12
BRANCH   4  25
HETATM   25  N4  UNL     1      31.826  25.527  -2.815  1.00  0.00    -0.234 N
ATOM     26  H42 UNL     1      32.276  24.795  -3.366  1.00  0.00     0.174 HD
ATOM     27  H41 UNL     1      32.406  26.298  -2.484  1.00  0.00     0.174 HD
ENDBRANCH   4  25
BRANCH   8  28
HETATM   28  C13 UNL     1      28.650  22.694  -0.227  1.00  0.00     0.140 C
BRANCH  28  29
HETATM   29  C14 UNL     1      28.578  22.614   1.285  1.00  0.00     0.046 C
BRANCH  29  30
HETATM   30  C15 UNL     1      29.778  23.397   1.808  1.00  0.00     0.165 C
BRANCH  30  31
HETATM   31  O1  UNL     1      30.825  23.325   0.886  1.00  0.00    -0.401 OA
ATOM     32  H1  UNL     1      31.559  23.843   1.195  1.00  0.00     0.209 HD
ENDBRANCH  30  31
ENDBRANCH  29  30
ENDBRANCH  28  29
ENDBRANCH   8  28
TORSDOF 7
ENDMDL