MODEL 4
REMARK VINA RESULT: -3.381341241      2.051      3.785
REMARK  7 active torsions:
REMARK  status: ('A' for Active; 'I' for Inactive)
REMARK    1  A    between atoms: C2_2  and  C4_4
REMARK    2  A    between atoms: C4_4  and  C5_5
REMARK    3  A    between atoms: C9_10  and  N1_11
REMARK    4  A    between atoms: C10_18  and  C11_19
REMARK    5  A    between atoms: C11_19  and  C12_20
REMARK    6  A    between atoms: C12_20  and  C13_21
REMARK    7  A    between atoms: C17_29  and  N5_30
ROOT
HETATM    1  C5  UNL     1      26.045  28.546  -2.641  1.00  0.00     0.153 C
HETATM    2  O1  UNL     1      25.874  29.015  -3.926  1.00  0.00    -0.370 OA
HETATM    3  C6  UNL     1      26.602  30.142  -4.201  1.00  0.00     0.108 C
HETATM    4  C7  UNL     1      26.125  31.384  -3.522  1.00  0.00     0.050 C
HETATM    5  C8  UNL     1      26.529  30.367  -5.716  1.00  0.00     0.050 C
HETATM    6  C9  UNL     1      28.085  29.866  -3.917  1.00  0.00     0.414 C
HETATM    7  N2  UNL     1      28.241  29.537  -2.534  1.00  0.00    -0.037 N
ATOM      8  H21 UNL     1      28.025  30.328  -1.927  1.00  0.00     0.280 HD
ATOM      9  H22 UNL     1      29.220  29.416  -2.279  1.00  0.00     0.280 HD
HETATM   10  C10 UNL     1      27.458  28.387  -2.210  1.00  0.00     0.217 C
ENDROOT
BRANCH  10  11
HETATM   11  C11 UNL     1      28.121  27.147  -2.746  1.00  0.00     0.038 C
BRANCH  11  12
HETATM   12  C12 UNL     1      29.432  26.911  -2.028  1.00  0.00     0.039 C
BRANCH  12  13
HETATM   13  C13 UNL     1      29.552  25.480  -1.549  1.00  0.00     0.246 C
HETATM   14  N3  UNL     1      28.257  24.873  -1.492  1.00  0.00    -0.065 N
HETATM   15  C14 UNL     1      28.345  23.453  -1.222  1.00  0.00     0.263 C
ATOM     16  H32 UNL     1      27.653  25.344  -0.816  1.00  0.00     0.277 HD
ATOM     17  H31 UNL     1      27.721  25.059  -2.339  1.00  0.00     0.277 HD
HETATM   18  C15 UNL     1      29.560  23.161  -0.346  1.00  0.00     0.302 C
HETATM   19  N4  UNL     1      29.718  24.325   0.529  1.00  0.00     0.118 N
HETATM   20  C16 UNL     1      30.521  24.026   1.685  1.00  0.00     0.312 C
HETATM   21  C17 UNL     1      30.359  25.353  -0.301  1.00  0.00     0.446 C
BRANCH  21  22
HETATM   22  N5  UNL     1      30.492  26.584   0.439  1.00  0.00    -0.045 N
ATOM     23  H53 UNL     1      30.444  27.386  -0.189  1.00  0.00     0.277 HD
ATOM     24  H52 UNL     1      29.658  26.756   1.001  1.00  0.00     0.277 HD
ATOM     25  H51 UNL     1      31.331  26.631   1.017  1.00  0.00     0.277 HD
ENDBRANCH  21  22
ENDBRANCH  12  13
ENDBRANCH  11  12
ENDBRANCH  10  11
BRANCH   1  26
HETATM   26  C4  UNL     1      25.267  27.281  -2.429  1.00  0.00     0.038 C
BRANCH  26  27
HETATM   27  C2  UNL     1      23.832  27.508  -2.062  1.00  0.00    -0.020 C
HETATM   28  C1  UNL     1      23.033  26.222  -2.028  1.00  0.00     0.009 C
HETATM   29  C3  UNL     1      23.807  28.077  -0.651  1.00  0.00     0.009 C
ENDBRANCH  26  27
ENDBRANCH   1  26
BRANCH   6  30
HETATM   30  N1  UNL     1      28.880  31.019  -4.283  1.00  0.00    -0.047 N
ATOM     31  H13 UNL     1      28.300  31.809  -4.566  1.00  0.00     0.276 HD
ATOM     32  H12 UNL     1      29.329  31.448  -3.474  1.00  0.00     0.276 HD
ATOM     33  H11 UNL     1      29.553  30.761  -5.004  1.00  0.00     0.276 HD
ENDBRANCH   6  30
TORSDOF 7
ENDMDL