MODEL 5
REMARK VINA RESULT: -4.512317780      2.314      5.866
REMARK  9 active torsions:
REMARK  status: ('A' for Active; 'I' for Inactive)
REMARK    1  A    between atoms: C2_2  and  C3_3
REMARK    2  A    between atoms: C3_3  and  C4_4
REMARK    3  A    between atoms: C5_5  and  C6_6
REMARK    4  A    between atoms: C6_6  and  C7_7
REMARK    5  A    between atoms: C8_8  and  S1_9
REMARK    6  A    between atoms: S1_9  and  N1_10
REMARK    7  A    between atoms: C9_16  and  N3_17
REMARK    8  A    between atoms: C10_22  and  N5_23
REMARK    9  A    between atoms: N6_28  and  O2_29
ROOT
HETATM    1  C7  UNL     1      28.779  28.365  -2.367  1.00  0.00     0.029 A
HETATM    2  C8  UNL     1      28.503  29.702  -2.240  1.00  0.00     0.147 A
HETATM    3  N2  UNL     1      27.575  30.339  -2.971  1.00  0.00    -0.181 N
ATOM      4  H2  UNL     1      27.418  31.336  -2.828  1.00  0.00     0.185 HD
HETATM    5  C9  UNL     1      26.858  29.682  -3.879  1.00  0.00     0.678 A
HETATM    6  N4  UNL     1      27.091  28.367  -4.039  1.00  0.00    -0.177 N
ATOM      7  H4  UNL     1      26.547  27.853  -4.732  1.00  0.00     0.185 HD
HETATM    8  C10 UNL     1      28.024  27.698  -3.315  1.00  0.00     0.124 A
ENDROOT
BRANCH   1   9
HETATM    9  C6  UNL     1      29.758  27.691  -1.545  1.00  0.00     0.094 C
BRANCH   9  10
HETATM   10  C5  UNL     1      29.559  26.272  -1.189  1.00  0.00     0.013 A
HETATM   11  C4  UNL     1      30.152  25.384  -0.351  1.00  0.00     0.053 A
HETATM   12  N6  UNL     1      29.694  24.145  -0.309  1.00  0.00    -0.233 N
HETATM   13  C11 UNL     1      28.670  23.818  -1.090  1.00  0.00     0.173 A
HETATM   14  S2  UNL     1      28.332  25.262  -1.904  1.00  0.00    -0.084 SA
BRANCH  11  15
HETATM   15  C3  UNL     1      31.323  25.764   0.527  1.00  0.00     0.060 C
BRANCH  15  16
HETATM   16  C2  UNL     1      30.772  26.210   1.846  1.00  0.00     0.002 C
HETATM   17  C1  UNL     1      30.894  25.134   2.910  1.00  0.00     0.005 C
ENDBRANCH  15  16
ENDBRANCH  11  15
BRANCH  12  18
HETATM   18  O2  UNL     1      30.213  23.101   0.515  1.00  0.00    -0.283 OA
ATOM     19  H2  UNL     1      31.086  22.732   0.448  1.00  0.00     0.245 HD
ENDBRANCH  12  18
ENDBRANCH   9  10
ENDBRANCH   1   9
BRANCH   2  20
HETATM   20  S1  UNL     1      29.363  30.648  -1.080  1.00  0.00     0.162 S
HETATM   21  O1  UNL     1      30.848  31.098  -1.713  1.00  0.00    -0.229 OA
BRANCH  20  22
HETATM   22  N1  UNL     1      28.418  31.971  -0.567  1.00  0.00    -0.344 NA
ATOM     23  H12 UNL     1      28.179  31.938   0.423  1.00  0.00     0.166 HD
ATOM     24  H11 UNL     1      28.890  32.851  -0.776  1.00  0.00     0.166 HD
ENDBRANCH  20  22
ENDBRANCH   2  20
BRANCH   8  25
HETATM   25  N5  UNL     1      28.140  26.437  -3.531  1.00  0.00    -0.385 N
ATOM     26  H52 UNL     1      28.704  26.152  -4.331  1.00  0.00     0.157 HD
ATOM     27  H51 UNL     1      27.676  25.736  -2.954  1.00  0.00     0.157 HD
ENDBRANCH   8  25
BRANCH   5  28
HETATM   28  N3  UNL     1      25.948  30.294  -4.599  1.00  0.00    -0.234 N
ATOM     29  H32 UNL     1      24.961  30.051  -4.508  1.00  0.00     0.174 HD
ATOM     30  H31 UNL     1      26.202  31.025  -5.263  1.00  0.00     0.174 HD
ENDBRANCH   5  28
TORSDOF 9
ENDMDL