MODEL 5
REMARK VINA RESULT: -5.015932437      3.654      5.043
REMARK  7 active torsions:
REMARK  status: ('A' for Active; 'I' for Inactive)
REMARK    1  A    between atoms: C3_3  and  S1_5
REMARK    2  A    between atoms: S1_5  and  C5_6
REMARK    3  A    between atoms: C6_9  and  C7_10
REMARK    4  A    between atoms: C7_10  and  C8_11
REMARK    5  A    between atoms: C10_15  and  N3_16
REMARK    6  A    between atoms: C12_23  and  C13_24
REMARK    7  A    between atoms: C15_26  and  N5_27
ROOT
HETATM    1  C1  UNL     1      20.822  24.679  -1.977  1.00  0.00     0.013 C
HETATM    2  C2  UNL     1      21.514  25.654  -1.772  1.00  0.00    -0.102 C
HETATM    3  C3  UNL     1      22.323  26.839  -1.529  1.00  0.00     0.129 C
HETATM    4  C4  UNL     1      21.883  27.458  -0.212  1.00  0.00     0.035 C
ENDROOT
BRANCH   3   5
HETATM    5  S1  UNL     1      24.056  26.403  -1.378  1.00  0.00    -0.077 SA
BRANCH   5   6
HETATM    6  C5  UNL     1      25.144  27.473  -2.282  1.00  0.00     0.147 A
HETATM    7  N1  UNL     1      26.493  27.261  -2.309  1.00  0.00    -0.339 N
HETATM    8  C6  UNL     1      27.313  28.093  -2.965  1.00  0.00     0.025 A
ATOM      9  H1  UNL     1      26.883  26.456  -1.820  1.00  0.00     0.168 HD
HETATM   10  C12 UNL     1      26.785  29.184  -3.628  1.00  0.00     0.008 A
HETATM   11  C15 UNL     1      25.427  29.408  -3.611  1.00  0.00     0.108 A
HETATM   12  N6  UNL     1      24.639  28.527  -2.923  1.00  0.00    -0.323 N
ATOM     13  H6  UNL     1      23.631  28.681  -2.899  1.00  0.00     0.169 HD
BRANCH   8  14
HETATM   14  C7  UNL     1      28.739  27.876  -2.950  1.00  0.00     0.103 C
BRANCH  14  15
HETATM   15  C8  UNL     1      29.199  26.820  -2.014  1.00  0.00     0.032 A
HETATM   16  C9  UNL     1      29.742  27.129  -0.774  1.00  0.00     0.119 A
HETATM   17  N2  UNL     1      30.153  26.159   0.065  1.00  0.00    -0.201 N
HETATM   18  C10 UNL     1      30.062  24.867  -0.246  1.00  0.00     0.678 A
ATOM     19  H2  UNL     1      30.548  26.423   0.968  1.00  0.00     0.183 HD
HETATM   20  N4  UNL     1      29.539  24.512  -1.446  1.00  0.00    -0.156 N
HETATM   21  C11 UNL     1      29.123  25.470  -2.297  1.00  0.00     0.267 A
ATOM     22  H4  UNL     1      29.462  23.528  -1.702  1.00  0.00     0.187 HD
HETATM   23  O1  UNL     1      28.648  25.072  -3.387  1.00  0.00    -0.267 OA
BRANCH  18  24
HETATM   24  N3  UNL     1      30.457  23.944   0.573  1.00  0.00    -0.234 N
ATOM     25  H32 UNL     1      31.292  24.100   1.138  1.00  0.00     0.174 HD
ATOM     26  H31 UNL     1      29.953  23.061   0.664  1.00  0.00     0.174 HD
ENDBRANCH  18  24
ENDBRANCH  14  15
ENDBRANCH   8  14
BRANCH  10  27
HETATM   27  C13 UNL     1      27.679  30.067  -4.348  1.00  0.00     0.040 C
HETATM   28  C14 UNL     1      27.922  31.414  -3.689  1.00  0.00     0.010 C
ENDBRANCH  10  27
BRANCH  11  29
HETATM   29  N5  UNL     1      24.860  30.393  -4.206  1.00  0.00    -0.385 N
ATOM     30  H52 UNL     1      24.061  30.836  -3.754  1.00  0.00     0.157 HD
ATOM     31  H51 UNL     1      25.163  30.758  -5.109  1.00  0.00     0.157 HD
ENDBRANCH  11  29
ENDBRANCH   5   6
ENDBRANCH   3   5
TORSDOF 7
ENDMDL