MODEL 3
REMARK VINA RESULT: -4.067732870      1.725      6.045
REMARK  9 active torsions:
REMARK  status: ('A' for Active; 'I' for Inactive)
REMARK    1  A    between atoms: C2_2  and  C3_3
REMARK    2  A    between atoms: C3_3  and  N1_4
REMARK    3  A    between atoms: N1_4  and  C4_6
REMARK    4  A    between atoms: C5_9  and  N3_10
REMARK    5  A    between atoms: C7_16  and  N5_17
REMARK    6  A    between atoms: N5_17  and  C8_19
REMARK    7  A    between atoms: C8_19  and  C10_21
REMARK    8  A    between atoms: C10_21  and  O1_22
REMARK    9  A    between atoms: C13_28  and  O2_29
ROOT
HETATM    1  C4  UNL     1      25.449  30.415   8.984  1.00  0.00     0.132 A
HETATM    2  N2  UNL     1      26.295  29.366   9.169  1.00  0.00    -0.176 N
ATOM      3  H2  UNL     1      25.943  28.419   9.023  1.00  0.00     0.186 HD
HETATM    4  C5  UNL     1      27.573  29.532   9.534  1.00  0.00     0.678 A
HETATM    5  N4  UNL     1      28.052  30.754   9.730  1.00  0.00    -0.187 N
ATOM      6  H4  UNL     1      29.027  30.863  10.008  1.00  0.00     0.184 HD
HETATM    7  C6  UNL     1      27.301  31.841   9.575  1.00  0.00     0.109 A
HETATM    8  C7  UNL     1      27.836  33.108   9.800  1.00  0.00     0.130 A
HETATM    9  N6  UNL     1      27.054  34.178   9.646  1.00  0.00    -0.342 N
ATOM     10  H6  UNL     1      27.437  35.109   9.811  1.00  0.00     0.167 HD
HETATM   11  C11 UNL     1      25.745  34.046   9.271  1.00  0.00     0.041 A
HETATM   12  C12 UNL     1      24.877  35.231   9.101  1.00  0.00     0.071 C
HETATM   13  C13 UNL     1      25.180  32.804   9.039  1.00  0.00     0.106 A
HETATM   14  C15 UNL     1      25.962  31.679   9.191  1.00  0.00     0.074 A
ENDROOT
BRANCH   8  15
HETATM   15  N5  UNL     1      29.057  33.186  10.146  1.00  0.00    -0.368 N
ATOM     16  H5  UNL     1      29.287  32.936  11.107  1.00  0.00     0.161 HD
BRANCH  15  17
HETATM   17  C8  UNL     1      30.135  33.597   9.297  1.00  0.00     0.102 C
HETATM   18  C9  UNL     1      31.369  32.807   9.725  1.00  0.00     0.034 C
BRANCH  17  19
HETATM   19  C10 UNL     1      30.449  35.076   9.419  1.00  0.00     0.188 C
BRANCH  19  20
HETATM   20  O1  UNL     1      31.030  35.580   8.282  1.00  0.00    -0.399 OA
ATOM     21  H1  UNL     1      30.562  36.333   7.942  1.00  0.00     0.209 HD
ENDBRANCH  19  20
ENDBRANCH  17  19
ENDBRANCH  15  17
ENDBRANCH   8  15
BRANCH   4  22
HETATM   22  N3  UNL     1      28.305  28.467   9.685  1.00  0.00    -0.234 N
ATOM     23  H32 UNL     1      28.193  27.837  10.480  1.00  0.00     0.174 HD
ATOM     24  H31 UNL     1      29.012  28.271   8.976  1.00  0.00     0.174 HD
ENDBRANCH   4  22
BRANCH   1  25
HETATM   25  N1  UNL     1      24.234  30.238   8.655  1.00  0.00    -0.375 N
ATOM     26  H1  UNL     1      23.784  30.985   8.128  1.00  0.00     0.161 HD
BRANCH  25  27
HETATM   27  C3  UNL     1      23.444  29.088   8.956  1.00  0.00     0.121 C
BRANCH  27  28
HETATM   28  C2  UNL     1      23.502  28.102   7.801  1.00  0.00     0.015 C
HETATM   29  C1  UNL     1      22.138  28.036   7.120  1.00  0.00     0.006 C
ENDBRANCH  27  28
ENDBRANCH  25  27
ENDBRANCH   1  25
BRANCH  13  30
HETATM   30  O2  UNL     1      23.874  32.745   8.669  1.00  0.00    -0.353 OA
HETATM   31  C14 UNL     1      22.751  32.927   9.515  1.00  0.00     0.210 C
ENDBRANCH  13  30
TORSDOF 9
ENDMDL