MODEL 4
REMARK VINA RESULT: -7.537651441      0.960      1.306
REMARK  8 active torsions:
REMARK  status: ('A' for Active; 'I' for Inactive)
REMARK    1  A    between atoms: C5_10  and  O2_11
REMARK    2  A    between atoms: O2_11  and  C6_12
REMARK    3  A    between atoms: C6_12  and  C7_13
REMARK    4  A    between atoms: C7_13  and  C8_14
REMARK    5  A    between atoms: C8_14  and  C9_15
REMARK    6  A    between atoms: C9_15  and  C10_16
REMARK    7  A    between atoms: C11_17  and  C12_18
REMARK    8  A    between atoms: C13_21  and  N4_22
ROOT
HETATM    1  C10 UNL     1      29.418  27.537  -1.843  1.00  0.00    -0.098 C
HETATM    2  C11 UNL     1      28.844  28.481  -2.312  1.00  0.00    -0.029 C
ENDROOT
BRANCH   1   3
HETATM    3  C9  UNL     1      30.140  26.367  -1.301  1.00  0.00     0.094 C
BRANCH   3   4
HETATM    4  C8  UNL     1      30.320  25.368  -2.419  1.00  0.00     0.014 C
BRANCH   4   5
HETATM    5  C7  UNL     1      29.049  24.598  -2.676  1.00  0.00     0.028 C
BRANCH   5   6
HETATM    6  C6  UNL     1      28.376  24.133  -1.416  1.00  0.00     0.177 C
BRANCH   6   7
HETATM    7  O2  UNL     1      29.153  23.102  -0.807  1.00  0.00    -0.337 OA
BRANCH   7   8
HETATM    8  C5  UNL     1      29.554  23.310   0.520  1.00  0.00     0.150 A
HETATM    9  C2  UNL     1      29.100  22.418   1.609  1.00  0.00     0.092 A
HETATM   10  C1  UNL     1      29.626  21.004   1.409  1.00  0.00     0.047 C
HETATM   11  C3  UNL     1      27.586  22.411   1.714  1.00  0.00     0.047 C
HETATM   12  N1  UNL     1      29.711  22.960   2.790  1.00  0.00    -0.327 N
HETATM   13  C4  UNL     1      30.476  24.093   2.403  1.00  0.00     0.322 A
ATOM     14  H1  UNL     1      29.613  22.596   3.738  1.00  0.00     0.165 HD
HETATM   15  O1  UNL     1      31.169  24.859   3.089  1.00  0.00    -0.247 OA
HETATM   16  N2  UNL     1      30.306  24.212   0.993  1.00  0.00    -0.291 N
ATOM     17  H2  UNL     1      30.742  24.942   0.428  1.00  0.00     0.172 HD
ENDBRANCH   7   8
ENDBRANCH   6   7
ENDBRANCH   5   6
ENDBRANCH   4   5
ENDBRANCH   3   4
ENDBRANCH   1   3
BRANCH   2  18
HETATM   18  C12 UNL     1      28.153  29.604  -2.912  1.00  0.00     0.191 A
HETATM   19  N3  UNL     1      28.363  30.853  -2.429  1.00  0.00    -0.168 N
HETATM   20  C13 UNL     1      27.740  31.922  -2.950  1.00  0.00     0.692 A
ATOM     21  H3  UNL     1      29.011  30.984  -1.652  1.00  0.00     0.186 HD
HETATM   22  N5  UNL     1      26.893  31.750  -3.968  1.00  0.00    -0.023 N
HETATM   23  C14 UNL     1      26.666  30.498  -4.471  1.00  0.00     0.692 A
ATOM     24  H5  UNL     1      26.413  32.555  -4.372  1.00  0.00     0.203 HD
HETATM   25  N6  UNL     1      25.872  30.347  -5.433  1.00  0.00    -0.234 N
HETATM   26  N7  UNL     1      27.318  29.433  -3.917  1.00  0.00    -0.168 N
ATOM     27  H62 UNL     1      25.385  31.143  -5.847  1.00  0.00     0.174 HD
ATOM     28  H61 UNL     1      25.703  29.414  -5.808  1.00  0.00     0.174 HD
ATOM     29  H7  UNL     1      27.156  28.496  -4.285  1.00  0.00     0.186 HD
BRANCH  20  30
HETATM   30  N4  UNL     1      27.980  33.099  -2.449  1.00  0.00    -0.234 N
ATOM     31  H42 UNL     1      28.924  33.393  -2.197  1.00  0.00     0.174 HD
ATOM     32  H41 UNL     1      27.202  33.743  -2.304  1.00  0.00     0.174 HD
ENDBRANCH  20  30
ENDBRANCH   2  18
TORSDOF 8
ENDMDL