MODEL 1
REMARK VINA RESULT: -4.588856397      0.000      0.000
REMARK  3 active torsions:
REMARK  status: ('A' for Active; 'I' for Inactive)
REMARK    1  A    between atoms: N1_2  and  C2_4
REMARK    2  A    between atoms: C4_6  and  N2_7
REMARK    3  A    between atoms: C8_14  and  N3_15
ROOT
HETATM    1  C2  UNL     1     -39.264   9.481  -9.911  1.00  0.00     0.084 C
HETATM    2  C3  UNL     1     -38.323  10.202  -8.972  1.00  0.00     0.066 C
HETATM    3  C4  UNL     1     -38.014  11.449  -9.815  1.00  0.00     0.153 C
HETATM    4  C5  UNL     1     -39.294  12.126 -10.198  1.00  0.00     0.041 C
HETATM    5  C6  UNL     1     -39.883  11.329 -11.375  1.00  0.00     0.011 C
HETATM    6  C7  UNL     1     -39.049  10.061 -11.274  1.00  0.00     0.041 C
HETATM    7  C8  UNL     1     -37.670  10.728 -11.130  1.00  0.00     0.225 C
ENDROOT
BRANCH   3   8
HETATM    8  N2  UNL     1     -36.998  12.255  -9.302  1.00  0.00    -0.068 N
ATOM      9  H23 UNL     1     -36.994  12.215  -8.282  1.00  0.00     0.275 HD
ATOM     10  H22 UNL     1     -36.086  11.843  -9.496  1.00  0.00     0.275 HD
ATOM     11  H21 UNL     1     -37.027  13.223  -9.620  1.00  0.00     0.275 HD
ENDBRANCH   3   8
BRANCH   7  12
HETATM   12  N3  UNL     1     -37.488  11.665 -12.204  1.00  0.00    -0.072 N
ATOM     13  H33 UNL     1     -38.270  11.643 -12.857  1.00  0.00     0.274 HD
ATOM     14  H32 UNL     1     -37.579  12.628 -11.882  1.00  0.00     0.274 HD
ATOM     15  H31 UNL     1     -36.599  11.512 -12.681  1.00  0.00     0.274 HD
ENDBRANCH   7  12
BRANCH   1  16
HETATM   16  N1  UNL     1     -39.286   8.088  -9.814  1.00  0.00    -0.421 N
HETATM   17  C1  UNL     1     -40.375   7.325 -10.233  1.00  0.00     0.140 C
ATOM     18  H1  UNL     1     -38.475   7.610  -9.420  1.00  0.00     0.153 HD
ENDBRANCH   1  16
TORSDOF 3
ENDMDL