MODEL 2
REMARK VINA RESULT: -4.711010161      8.983      9.734
REMARK  2 active torsions:
REMARK  status: ('A' for Active; 'I' for Inactive)
REMARK    1  A    between atoms: N1_1  and  N2_4
REMARK       I    between atoms: C1_6  and  N4_8
REMARK    2  A    between atoms: N4_8  and  C2_10
ROOT
HETATM    1  N2  UNL     1     -41.102  17.161  -2.725  1.00  0.00    -0.280 N
ATOM      2  H2  UNL     1     -41.534  17.861  -2.120  1.00  0.00     0.189 HD
HETATM    3  C1  UNL     1     -41.832  16.393  -3.439  1.00  0.00     0.202 C
HETATM    4  N3  UNL     1     -41.182  15.440  -4.261  1.00  0.00    -0.062 NA
HETATM    5  N4  UNL     1     -43.235  16.456  -3.441  1.00  0.00    -0.359 N
ATOM      6  H4  UNL     1     -43.699  16.447  -2.532  1.00  0.00     0.162 HD
ENDROOT
BRANCH   5   7
HETATM    7  C2  UNL     1     -44.073  16.531  -4.597  1.00  0.00     0.084 C
HETATM    8  C3  UNL     1     -45.536  16.234  -4.260  1.00  0.00     0.025 C
HETATM    9  C4  UNL     1     -46.388  16.509  -5.473  1.00  0.00     0.002 C
HETATM   10  C5  UNL     1     -45.574  16.559  -6.737  1.00  0.00     0.000 C
HETATM   11  C6  UNL     1     -44.557  17.661  -6.696  1.00  0.00     0.002 C
HETATM   12  C7  UNL     1     -44.044  17.871  -5.280  1.00  0.00     0.025 C
ENDBRANCH   5   7
BRANCH   1  13
HETATM   13  N1  UNL     1     -39.719  17.038  -2.777  1.00  0.00    -0.343 N
ATOM     14  H12 UNL     1     -39.286  16.161  -2.489  1.00  0.00     0.176 HD
ATOM     15  H11 UNL     1     -39.156  17.825  -3.101  1.00  0.00     0.176 HD
ENDBRANCH   1  13
TORSDOF 2
ENDMDL