MODEL 1
REMARK VINA RESULT: -6.531742399      0.000      0.000
REMARK  1 active torsions:
REMARK  status: ('A' for Active; 'I' for Inactive)
REMARK    1  A    between atoms: C2_3  and  N2_4
REMARK       I    between atoms: N2_4  and  C3_6
ROOT
HETATM    1  N1  UNL     1     -37.743  11.797 -12.551  1.00  0.00    -0.194 NA
HETATM    2  C1  UNL     1     -38.317  11.157 -11.780  1.00  0.00     0.093 C
HETATM    3  C2  UNL     1     -39.053  10.331 -10.817  1.00  0.00     0.145 C
HETATM    4  C4  UNL     1     -40.413   9.930 -11.321  1.00  0.00     0.075 C
HETATM    5  C5  UNL     1     -40.412   8.437 -11.086  1.00  0.00     0.171 C
HETATM    6  O1  UNL     1     -39.386   8.198 -10.172  1.00  0.00    -0.388 OA
HETATM    7  C6  UNL     1     -38.352   8.987 -10.720  1.00  0.00     0.214 C
ENDROOT
BRANCH   3   8
HETATM    8  N2  UNL     1     -39.110  10.953  -9.516  1.00  0.00    -0.341 N
HETATM    9  C3  UNL     1     -37.945  11.310  -8.799  1.00  0.00     0.183 C
HETATM   10  N3  UNL     1     -37.623  10.691  -7.692  1.00  0.00    -0.374 N
HETATM   11  N4  UNL     1     -37.056  12.338  -9.211  1.00  0.00    -0.064 NA
ATOM     12  H32 UNL     1     -38.262   9.953  -7.397  1.00  0.00     0.158 HD
ATOM     13  H31 UNL     1     -36.783  10.948  -7.175  1.00  0.00     0.158 HD
ATOM     14  H2  UNL     1     -40.022  11.142  -9.099  1.00  0.00     0.164 HD
ENDBRANCH   3   8
TORSDOF 1
ENDMDL