MODEL 3
REMARK VINA RESULT: -5.015461659      1.800      2.355
REMARK  4 active torsions:
REMARK  status: ('A' for Active; 'I' for Inactive)
REMARK    1  A    between atoms: N1_1  and  C1_5
REMARK    2  A    between atoms: C1_5  and  C2_6
REMARK    3  A    between atoms: C7_11  and  N2_12
REMARK    4  A    between atoms: C8_16  and  O1_17
ROOT
HETATM    1  C2  UNL     1     -39.396  10.780 -10.319  1.00  0.00     0.043 C
HETATM    2  C3  UNL     1     -38.532  11.711  -9.509  1.00  0.00     0.020 C
HETATM    3  C4  UNL     1     -37.983  11.028  -8.208  1.00  0.00     0.080 C
HETATM    4  C5  UNL     1     -38.125   9.650  -8.430  1.00  0.00    -0.181 C
HETATM    5  C6  UNL     1     -38.268   8.283  -8.702  1.00  0.00     0.115 C
HETATM    6  C7  UNL     1     -38.976   8.198 -10.099  1.00  0.00     0.222 C
HETATM    7  C8  UNL     1     -38.993   9.511 -10.842  1.00  0.00     0.155 C
ENDROOT
BRANCH   1   8
HETATM    8  C1  UNL     1     -39.741  11.670 -11.549  1.00  0.00     0.236 C
BRANCH   8   9
HETATM    9  N1  UNL     1     -40.793  11.056 -12.306  1.00  0.00    -0.079 N
ATOM     10  H13 UNL     1     -40.884  11.463 -13.237  1.00  0.00     0.274 HD
ATOM     11  H12 UNL     1     -40.562  10.103 -12.585  1.00  0.00     0.274 HD
ATOM     12  H11 UNL     1     -41.664  11.102 -11.779  1.00  0.00     0.274 HD
ENDBRANCH   8   9
ENDBRANCH   1   8
BRANCH   7  13
HETATM   13  O1  UNL     1     -37.892   9.628 -11.735  1.00  0.00    -0.393 OA
ATOM     14  H1  UNL     1     -37.060   9.624 -11.276  1.00  0.00     0.210 HD
ENDBRANCH   7  13
BRANCH   6  15
HETATM   15  N2  UNL     1     -40.285   7.619  -9.939  1.00  0.00    -0.072 N
ATOM     16  H23 UNL     1     -40.257   6.737  -9.428  1.00  0.00     0.274 HD
ATOM     17  H22 UNL     1     -40.863   8.148  -9.285  1.00  0.00     0.274 HD
ATOM     18  H21 UNL     1     -40.728   7.522 -10.853  1.00  0.00     0.274 HD
ENDBRANCH   6  15
TORSDOF 4
ENDMDL