MODEL 1
REMARK VINA RESULT: -6.063306954      0.000      0.000
REMARK  1 active torsions:
REMARK  status: ('A' for Active; 'I' for Inactive)
REMARK    1  A    between atoms: C2_3  and  C3_4
REMARK       I    between atoms: N2_8  and  C7_9
ROOT
HETATM    1  N1  UNL     1     -36.340   9.447  -6.821  1.00  0.00    -0.197 NA
HETATM    2  C1  UNL     1     -37.188   9.855  -7.476  1.00  0.00     0.061 C
HETATM    3  C2  UNL     1     -38.256  10.369  -8.324  1.00  0.00     0.149 C
ENDROOT
BRANCH   3   4
HETATM    4  C3  UNL     1     -38.370   9.616  -9.626  1.00  0.00     0.100 C
HETATM    5  C4  UNL     1     -39.219   8.363  -9.474  1.00  0.00     0.028 C
HETATM    6  C5  UNL     1     -39.789   8.211 -10.868  1.00  0.00     0.022 C
HETATM    7  C6  UNL     1     -40.122   9.673 -11.198  1.00  0.00     0.126 C
HETATM    8  N2  UNL     1     -38.978  10.381 -10.674  1.00  0.00    -0.350 N
HETATM    9  C7  UNL     1     -38.522  11.642 -11.127  1.00  0.00     0.184 C
HETATM   10  N3  UNL     1     -38.669  12.735 -10.508  1.00  0.00    -0.374 N
HETATM   11  N4  UNL     1     -37.849  11.647 -12.383  1.00  0.00    -0.064 NA
ATOM     12  H32 UNL     1     -39.151  12.732  -9.609  1.00  0.00     0.158 HD
ATOM     13  H31 UNL     1     -38.341  13.644 -10.833  1.00  0.00     0.158 HD
ENDBRANCH   3   4
TORSDOF 1
ENDMDL