MODEL 1
REMARK VINA RESULT: -3.380237674      0.000      0.000
REMARK  3 active torsions:
REMARK  status: ('A' for Active; 'I' for Inactive)
REMARK    1  A    between atoms: N1_1  and  C1_5
REMARK    2  A    between atoms: C3_7  and  C4_8
REMARK    3  A    between atoms: C8_15  and  N3_16
ROOT
HETATM    1  C1  UNL     1     -45.902  16.500  -5.697  1.00  0.00     0.214 C
HETATM    2  C2  UNL     1     -44.781  15.641  -5.121  1.00  0.00     0.043 C
HETATM    3  C3  UNL     1     -44.289  16.897  -4.457  1.00  0.00     0.050 C
HETATM    4  C8  UNL     1     -44.919  17.675  -5.563  1.00  0.00     0.219 C
ENDROOT
BRANCH   3   5
HETATM    5  C4  UNL     1     -42.826  17.014  -4.225  1.00  0.00     0.192 C
HETATM    6  C5  UNL     1     -42.607  18.048  -3.134  1.00  0.00     0.035 C
HETATM    7  C6  UNL     1     -41.903  17.258  -2.053  1.00  0.00     0.029 C
HETATM    8  C7  UNL     1     -41.092  16.290  -2.928  1.00  0.00     0.233 C
HETATM    9  N2  UNL     1     -42.199  15.804  -3.776  1.00  0.00    -0.070 N
ATOM     10  H22 UNL     1     -42.827  15.146  -3.315  1.00  0.00     0.277 HD
ATOM     11  H21 UNL     1     -41.913  15.172  -4.524  1.00  0.00     0.277 HD
ENDBRANCH   3   5
BRANCH   4  12
HETATM   12  N3  UNL     1     -44.184  17.908  -6.758  1.00  0.00    -0.073 N
ATOM     13  H33 UNL     1     -43.824  17.035  -7.144  1.00  0.00     0.274 HD
ATOM     14  H32 UNL     1     -44.803  18.181  -7.522  1.00  0.00     0.274 HD
ATOM     15  H31 UNL     1     -43.436  18.589  -6.629  1.00  0.00     0.274 HD
ENDBRANCH   4  12
BRANCH   1  16
HETATM   16  N1  UNL     1     -46.282  16.199  -7.036  1.00  0.00    -0.073 N
ATOM     17  H13 UNL     1     -46.339  17.057  -7.583  1.00  0.00     0.274 HD
ATOM     18  H12 UNL     1     -45.517  15.727  -7.517  1.00  0.00     0.274 HD
ATOM     19  H11 UNL     1     -47.143  15.662  -7.139  1.00  0.00     0.274 HD
ENDBRANCH   1  16
TORSDOF 3
ENDMDL