MODEL 1
REMARK VINA RESULT: -4.833231604      0.000      0.000
REMARK  4 active torsions:
REMARK  status: ('A' for Active; 'I' for Inactive)
REMARK    1  A    between atoms: O1_2  and  C2_3
REMARK    2  A    between atoms: C2_3  and  N1_4
REMARK    3  A    between atoms: C5_10  and  N2_11
REMARK    4  A    between atoms: C6_15  and  N3_16
ROOT
HETATM    1  C2  UNL     1     -39.139   9.202 -10.572  1.00  0.00     0.225 C
HETATM    2  C3  UNL     1     -38.825   8.961  -9.135  1.00  0.00     0.070 C
HETATM    3  C4  UNL     1     -37.899   9.986  -8.591  1.00  0.00     0.040 C
HETATM    4  C5  UNL     1     -38.188  11.387  -8.974  1.00  0.00     0.214 C
HETATM    5  C6  UNL     1     -38.622  11.557 -10.412  1.00  0.00     0.218 C
HETATM    6  C7  UNL     1     -39.762  10.604 -10.654  1.00  0.00     0.103 C
ENDROOT
BRANCH   1   7
HETATM    7  O1  UNL     1     -39.978   8.306 -11.148  1.00  0.00    -0.359 OA
HETATM    8  C1  UNL     1     -40.554   7.388 -10.314  1.00  0.00     0.204 C
ENDBRANCH   1   7
BRANCH   1   9
HETATM    9  N1  UNL     1     -37.898   9.234 -11.330  1.00  0.00    -0.047 N
ATOM     10  H13 UNL     1     -37.693   8.343 -11.780  1.00  0.00     0.278 HD
ATOM     11  H12 UNL     1     -37.971   9.806 -12.172  1.00  0.00     0.278 HD
ATOM     12  H11 UNL     1     -37.145   9.542 -10.713  1.00  0.00     0.278 HD
ENDBRANCH   1   9
BRANCH   5  13
HETATM   13  N3  UNL     1     -39.037  12.909 -10.647  1.00  0.00    -0.073 N
ATOM     14  H33 UNL     1     -38.666  13.549  -9.944  1.00  0.00     0.274 HD
ATOM     15  H32 UNL     1     -38.583  13.310 -11.468  1.00  0.00     0.274 HD
ATOM     16  H31 UNL     1     -40.053  12.960 -10.710  1.00  0.00     0.274 HD
ENDBRANCH   5  13
BRANCH   4  17
HETATM   17  N2  UNL     1     -36.973  12.195  -8.812  1.00  0.00    -0.073 N
ATOM     18  H23 UNL     1     -36.430  12.254  -9.673  1.00  0.00     0.274 HD
ATOM     19  H22 UNL     1     -37.181  13.188  -8.704  1.00  0.00     0.274 HD
ATOM     20  H21 UNL     1     -36.425  11.828  -8.034  1.00  0.00     0.274 HD
ENDBRANCH   4  17
TORSDOF 4
ENDMDL