MODEL 5
REMARK VINA RESULT: -3.504585788      9.797     10.622
REMARK  2 active torsions:
REMARK  status: ('A' for Active; 'I' for Inactive)
REMARK    1  A    between atoms: N1_1  and  C1_5
REMARK    2  A    between atoms: C1_5  and  C2_6
ROOT
HETATM    1  C2  UNL     1     -41.404  17.426  -2.974  1.00  0.00     0.030 C
HETATM    2  C3  UNL     1     -42.016  17.334  -1.617  1.00  0.00     0.027 C
HETATM    3  C4  UNL     1     -43.499  17.607  -1.601  1.00  0.00     0.114 C
HETATM    4  N2  UNL     1     -44.270  16.694  -2.372  1.00  0.00    -0.421 N
ATOM      5  H2  UNL     1     -44.068  15.694  -2.403  1.00  0.00     0.153 HD
HETATM    6  C5  UNL     1     -45.351  17.284  -3.103  1.00  0.00     0.115 C
HETATM    7  C6  UNL     1     -45.507  16.509  -4.400  1.00  0.00     0.038 C
HETATM    8  C7  UNL     1     -44.192  16.318  -5.105  1.00  0.00     0.115 C
HETATM    9  N3  UNL     1     -43.159  17.191  -4.681  1.00  0.00    -0.421 N
ATOM     10  H3  UNL     1     -43.200  18.197  -4.845  1.00  0.00     0.153 HD
HETATM   11  C8  UNL     1     -42.063  16.578  -4.011  1.00  0.00     0.120 C
ENDROOT
BRANCH   1  12
HETATM   12  C1  UNL     1     -39.959  16.926  -2.839  1.00  0.00     0.235 C
BRANCH  12  13
HETATM   13  N1  UNL     1     -39.871  15.541  -3.248  1.00  0.00    -0.079 N
ATOM     14  H13 UNL     1     -40.565  14.959  -2.777  1.00  0.00     0.274 HD
ATOM     15  H12 UNL     1     -40.188  15.405  -4.207  1.00  0.00     0.274 HD
ATOM     16  H11 UNL     1     -38.923  15.193  -3.107  1.00  0.00     0.274 HD
ENDBRANCH  12  13
ENDBRANCH   1  12
TORSDOF 2
ENDMDL