MODEL 5
REMARK VINA RESULT: -3.942456270      9.313     10.271
REMARK  4 active torsions:
REMARK  status: ('A' for Active; 'I' for Inactive)
REMARK    1  A    between atoms: C2_2  and  C3_3
REMARK    2  A    between atoms: C3_3  and  N1_4
REMARK    3  A    between atoms: C6_10  and  N2_11
REMARK    4  A    between atoms: N3_16  and  N4_18
ROOT
HETATM    1  C1  UNL     1     -43.739  17.350  -5.264  1.00  0.00     0.023 C
HETATM    2  C2  UNL     1     -43.394  17.438  -3.782  1.00  0.00     0.022 C
HETATM    3  C4  UNL     1     -43.136  18.846  -3.421  1.00  0.00     0.019 C
HETATM    4  C5  UNL     1     -41.950  18.724  -2.457  1.00  0.00     0.040 C
HETATM    5  C6  UNL     1     -41.093  17.756  -3.245  1.00  0.00     0.231 C
HETATM    6  C7  UNL     1     -42.097  16.729  -3.611  1.00  0.00     0.043 C
HETATM    7  N3  UNL     1     -41.869  15.470  -3.748  1.00  0.00    -0.312 N
ATOM      8  H3  UNL     1     -42.638  14.850  -4.004  1.00  0.00     0.185 HD
ENDROOT
BRANCH   2   9
HETATM    9  C3  UNL     1     -44.474  16.747  -3.027  1.00  0.00     0.244 C
BRANCH   9  10
HETATM   10  N1  UNL     1     -45.410  16.011  -3.800  1.00  0.00    -0.078 N
ATOM     11  H13 UNL     1     -46.021  16.653  -4.305  1.00  0.00     0.274 HD
ATOM     12  H12 UNL     1     -44.933  15.559  -4.580  1.00  0.00     0.274 HD
ATOM     13  H11 UNL     1     -45.972  15.324  -3.296  1.00  0.00     0.274 HD
ENDBRANCH   9  10
ENDBRANCH   2   9
BRANCH   5  14
HETATM   14  N2  UNL     1     -39.998  17.233  -2.478  1.00  0.00    -0.070 N
ATOM     15  H23 UNL     1     -39.787  17.837  -1.684  1.00  0.00     0.275 HD
ATOM     16  H22 UNL     1     -40.273  16.390  -1.975  1.00  0.00     0.275 HD
ATOM     17  H21 UNL     1     -39.165  17.067  -3.043  1.00  0.00     0.275 HD
ENDBRANCH   5  14
BRANCH   7  18
HETATM   18  N4  UNL     1     -40.597  14.932  -3.557  1.00  0.00    -0.345 N
ATOM     19  H42 UNL     1     -40.526  13.958  -3.264  1.00  0.00     0.176 HD
ATOM     20  H41 UNL     1     -39.754  15.488  -3.703  1.00  0.00     0.176 HD
ENDBRANCH   7  18
TORSDOF 4
ENDMDL