MODEL 1
REMARK VINA RESULT: -4.252549900      0.000      0.000
REMARK  3 active torsions:
REMARK  status: ('A' for Active; 'I' for Inactive)
REMARK    1  A    between atoms: N1_1  and  N2_4
REMARK    2  A    between atoms: N3_6  and  C1_8
REMARK    3  A    between atoms: C1_8  and  N4_9
ROOT
HETATM    1  C1  UNL     1     -38.073  11.402  -9.625  1.00  0.00     0.213 C
HETATM    2  C2  UNL     1     -37.890   9.979 -10.111  1.00  0.00     0.067 C
HETATM    3  C3  UNL     1     -38.440   9.927 -11.521  1.00  0.00    -0.010 C
HETATM    4  C4  UNL     1     -39.924   9.761 -11.416  1.00  0.00     0.005 C
HETATM    5  C5  UNL     1     -40.314  11.051 -10.689  1.00  0.00     0.009 C
HETATM    6  C6  UNL     1     -39.086  11.908 -10.641  1.00  0.00     0.044 C
HETATM    7  C7  UNL     1     -38.354  11.413 -11.904  1.00  0.00     0.013 C
ENDROOT
BRANCH   1   8
HETATM    8  N3  UNL     1     -38.580  11.478  -8.288  1.00  0.00    -0.286 N
HETATM    9  N2  UNL     1     -38.057  10.854  -7.353  1.00  0.00    -0.252 N
ATOM     10  H2  UNL     1     -38.490  10.971  -6.438  1.00  0.00     0.207 HD
ATOM     11  H3  UNL     1     -39.396  12.061  -8.100  1.00  0.00     0.184 HD
BRANCH   9  12
HETATM   12  N1  UNL     1     -36.959  10.022  -7.405  1.00  0.00    -0.331 N
ATOM     13  H12 UNL     1     -36.651   9.774  -8.345  1.00  0.00     0.178 HD
ATOM     14  H11 UNL     1     -36.432   9.635  -6.622  1.00  0.00     0.178 HD
ENDBRANCH   9  12
ENDBRANCH   1   8
BRANCH   1  15
HETATM   15  N4  UNL     1     -36.873  12.170  -9.801  1.00  0.00    -0.051 N
ATOM     16  H43 UNL     1     -36.542  12.543  -8.912  1.00  0.00     0.277 HD
ATOM     17  H42 UNL     1     -36.082  11.568 -10.030  1.00  0.00     0.277 HD
ATOM     18  H41 UNL     1     -36.982  12.911 -10.493  1.00  0.00     0.277 HD
ENDBRANCH   1  15
TORSDOF 3
ENDMDL