MODEL 5
REMARK VINA RESULT: -6.219347348      1.202      1.850
REMARK  8 active torsions:
REMARK  status: ('A' for Active; 'I' for Inactive)
REMARK    1  A    between atoms: N1_1  and  N2_4
REMARK    2  A    between atoms: C1_6  and  N3_7
REMARK    3  A    between atoms: N3_7  and  C2_9
REMARK    4  A    between atoms: C2_9  and  C3_10
REMARK    5  A    between atoms: C4_12  and  N4_13
REMARK    6  A    between atoms: N4_13  and  N5_14
REMARK    7  A    between atoms: N5_14  and  C5_16
REMARK    8  A    between atoms: C11_22  and  N6_23
ROOT
HETATM    1  C3  UNL     1      -7.756  -5.035 -43.542  1.00  0.00     0.175 C
HETATM    2  O1  UNL     1      -8.191  -3.908 -44.215  1.00  0.00    -0.357 OA
HETATM    3  C4  UNL     1      -7.252  -4.050 -45.235  1.00  0.00     0.267 C
HETATM    4  C11 UNL     1      -6.565  -5.128 -44.433  1.00  0.00     0.260 C
ENDROOT
BRANCH   1   5
HETATM    5  C2  UNL     1      -8.630  -6.219 -43.536  1.00  0.00     0.154 C
BRANCH   5   6
HETATM    6  N3  UNL     1      -9.914  -6.128 -42.959  1.00  0.00    -0.383 N
ATOM      7  H3  UNL     1     -10.045  -6.289 -41.960  1.00  0.00     0.160 HD
BRANCH   6   8
HETATM    8  C1  UNL     1     -11.022  -5.810 -43.790  1.00  0.00     0.192 C
HETATM    9  N2  UNL     1     -11.163  -4.624 -44.262  1.00  0.00    -0.303 N
ATOM     10  H2  UNL     1     -10.446  -3.946 -44.008  1.00  0.00     0.187 HD
BRANCH   9  11
HETATM   11  N1  UNL     1     -12.175  -4.170 -45.073  1.00  0.00    -0.344 N
ATOM     12  H12 UNL     1     -12.039  -4.331 -46.071  1.00  0.00     0.176 HD
ATOM     13  H11 UNL     1     -13.031  -3.698 -44.783  1.00  0.00     0.176 HD
ENDBRANCH   9  11
ENDBRANCH   6   8
ENDBRANCH   5   6
ENDBRANCH   1   5
BRANCH   4  14
HETATM   14  N6  UNL     1      -6.348  -6.320 -45.184  1.00  0.00    -0.069 N
ATOM     15  H63 UNL     1      -7.167  -6.920 -45.089  1.00  0.00     0.275 HD
ATOM     16  H62 UNL     1      -6.381  -6.091 -46.178  1.00  0.00     0.275 HD
ATOM     17  H61 UNL     1      -5.513  -6.877 -45.005  1.00  0.00     0.275 HD
ENDBRANCH   4  14
BRANCH   3  18
HETATM   18  N4  UNL     1      -6.371  -2.909 -45.395  1.00  0.00    -0.106 NA
BRANCH  18  19
HETATM   19  N5  UNL     1      -6.991  -2.009 -46.287  1.00  0.00    -0.302 N
ATOM     20  H5  UNL     1      -7.975  -1.771 -46.158  1.00  0.00     0.182 HD
BRANCH  19  21
HETATM   21  C5  UNL     1      -6.263  -1.427 -47.367  1.00  0.00     0.044 A
HETATM   22  C6  UNL     1      -5.040  -0.842 -47.126  1.00  0.00     0.030 A
HETATM   23  C7  UNL     1      -4.299  -0.262 -48.164  1.00  0.00     0.002 A
HETATM   24  C8  UNL     1      -4.816  -0.286 -49.437  1.00  0.00     0.000 A
HETATM   25  C9  UNL     1      -6.027  -0.861 -49.699  1.00  0.00     0.002 A
HETATM   26  C10 UNL     1      -6.736  -1.425 -48.657  1.00  0.00     0.030 A
ENDBRANCH  19  21
ENDBRANCH  18  19
ENDBRANCH   3  18
TORSDOF 8
ENDMDL