MODEL 5
REMARK VINA RESULT: -5.650442135      1.475      1.846
REMARK  8 active torsions:
REMARK  status: ('A' for Active; 'I' for Inactive)
REMARK    1  A    between atoms: O1_2  and  C2_3
REMARK    2  A    between atoms: C5_12  and  N4_13
REMARK    3  A    between atoms: N5_17  and  C7_18
REMARK    4  A    between atoms: C7_18  and  C8_19
REMARK    5  A    between atoms: C8_19  and  N6_20
REMARK    6  A    between atoms: N6_20  and  N7_21
REMARK    7  A    between atoms: N7_21  and  C9_23
REMARK    8  A    between atoms: C9_23  and  N8_24
ROOT
HETATM    1  C2  UNL     1      -7.979  -6.369 -43.627  1.00  0.00     0.227 A
HETATM    2  N1  UNL     1      -8.952  -5.829 -44.343  1.00  0.00    -0.306 N
ATOM      3  H1  UNL     1      -8.822  -5.418 -45.268  1.00  0.00     0.171 HD
HETATM    4  C3  UNL     1     -10.151  -5.890 -43.694  1.00  0.00     0.140 A
HETATM    5  N2  UNL     1     -11.387  -5.485 -44.015  1.00  0.00    -0.336 N
ATOM      6  H2  UNL     1     -11.566  -5.027 -44.909  1.00  0.00     0.168 HD
HETATM    7  C4  UNL     1     -12.396  -5.692 -43.135  1.00  0.00     0.183 A
HETATM    8  N3  UNL     1     -12.146  -6.306 -41.939  1.00  0.00    -0.337 N
ATOM      9  H3  UNL     1     -12.911  -6.454 -41.280  1.00  0.00     0.168 HD
HETATM   10  C5  UNL     1     -10.923  -6.711 -41.624  1.00  0.00     0.131 A
HETATM   11  C6  UNL     1      -9.857  -6.517 -42.510  1.00  0.00     0.126 A
HETATM   12  N5  UNL     1      -8.564  -6.822 -42.440  1.00  0.00    -0.305 N
ENDROOT
BRANCH  12  13
HETATM   13  C7  UNL     1      -7.844  -7.512 -41.427  1.00  0.00     0.151 C
BRANCH  13  14
HETATM   14  C8  UNL     1      -6.517  -7.025 -40.955  1.00  0.00     0.155 C
BRANCH  14  15
HETATM   15  N6  UNL     1      -6.775  -6.218 -39.733  1.00  0.00    -0.143 NA
BRANCH  15  16
HETATM   16  N7  UNL     1      -5.762  -5.406 -39.405  1.00  0.00    -0.315 N
ATOM     17  H7  UNL     1      -4.930  -5.470 -39.993  1.00  0.00     0.177 HD
BRANCH  16  18
HETATM   18  C9  UNL     1      -5.701  -4.489 -38.368  1.00  0.00     0.364 C
BRANCH  18  19
HETATM   19  N8  UNL     1      -4.270  -4.087 -38.186  1.00  0.00    -0.063 N
ATOM     20  H83 UNL     1      -3.633  -4.612 -38.786  1.00  0.00     0.276 HD
ATOM     21  H82 UNL     1      -4.072  -3.157 -38.557  1.00  0.00     0.276 HD
ATOM     22  H81 UNL     1      -4.040  -4.172 -37.196  1.00  0.00     0.276 HD
ENDBRANCH  18  19
ENDBRANCH  16  18
ENDBRANCH  15  16
ENDBRANCH  14  15
ENDBRANCH  13  14
ENDBRANCH  12  13
BRANCH   1  23
HETATM   23  O1  UNL     1      -6.660  -6.511 -43.892  1.00  0.00    -0.327 OA
HETATM   24  C1  UNL     1      -5.687  -5.679 -44.378  1.00  0.00     0.213 C
ENDBRANCH   1  23
BRANCH  10  25
HETATM   25  N4  UNL     1     -10.685  -7.239 -40.506  1.00  0.00    -0.383 N
ATOM     26  H42 UNL     1     -11.253  -6.961 -39.707  1.00  0.00     0.157 HD
ATOM     27  H41 UNL     1      -9.964  -7.954 -40.408  1.00  0.00     0.157 HD
ENDBRANCH  10  25
TORSDOF 8
ENDMDL