MODEL 2
REMARK VINA RESULT: -6.066402492      1.272      1.718
REMARK  10 active torsions:
REMARK  status: ('A' for Active; 'I' for Inactive)
REMARK    1  A    between atoms: N1_2  and  C2_4
REMARK    2  A    between atoms: C4_8  and  C5_9
REMARK    3  A    between atoms: C5_9  and  N3_10
REMARK    4  A    between atoms: N3_10  and  N4_11
REMARK    5  A    between atoms: N4_11  and  C6_13
REMARK    6  A    between atoms: C6_13  and  C7_17
REMARK    7  A    between atoms: C7_17  and  N6_18
REMARK    8  A    between atoms: N6_18  and  C8_21
REMARK    9  A    between atoms: C8_21  and  C9_22
REMARK   10  A    between atoms: C9_22  and  N7_24
ROOT
HETATM    1  C6  UNL     1     -12.471  -5.443 -43.572  1.00  0.00     0.127 C
HETATM    2  N5  UNL     1     -13.489  -4.738 -43.920  1.00  0.00    -0.386 N
ATOM      3  H51 UNL     1     -13.571  -4.367 -44.866  1.00  0.00     0.157 HD
ATOM      4  H52 UNL     1     -14.212  -4.559 -43.224  1.00  0.00     0.157 HD
ENDROOT
BRANCH   1   5
HETATM    5  N4  UNL     1     -12.356  -5.964 -42.242  1.00  0.00    -0.223 N
ATOM      6  H4  UNL     1     -12.934  -5.543 -41.513  1.00  0.00     0.203 HD
BRANCH   5   7
HETATM    7  N3  UNL     1     -11.567  -6.934 -41.904  1.00  0.00    -0.334 NA
BRANCH   7   8
HETATM    8  C5  UNL     1     -10.843  -7.806 -41.562  1.00  0.00     0.247 C
BRANCH   8   9
HETATM    9  C4  UNL     1      -9.377  -7.852 -41.832  1.00  0.00     0.125 A
HETATM   10  C3  UNL     1      -8.432  -6.956 -41.417  1.00  0.00     0.131 A
HETATM   11  N2  UNL     1      -7.262  -7.404 -41.895  1.00  0.00    -0.329 N
HETATM   12  C2  UNL     1      -7.478  -8.538 -42.583  1.00  0.00     0.224 A
ATOM     13  H2  UNL     1      -6.355  -6.956 -41.759  1.00  0.00     0.168 HD
HETATM   14  O1  UNL     1      -8.765  -8.780 -42.525  1.00  0.00    -0.276 OA
BRANCH  12  15
HETATM   15  N1  UNL     1      -6.532  -9.351 -43.258  1.00  0.00    -0.360 N
HETATM   16  C1  UNL     1      -5.335  -9.754 -42.538  1.00  0.00     0.150 C
ATOM     17  H1  UNL     1      -6.687  -9.646 -44.222  1.00  0.00     0.162 HD
ENDBRANCH  12  15
ENDBRANCH   8   9
ENDBRANCH   7   8
ENDBRANCH   5   7
ENDBRANCH   1   5
BRANCH   1  18
HETATM   18  C7  UNL     1     -11.419  -5.703 -44.582  1.00  0.00     0.310 C
BRANCH  18  19
HETATM   19  N6  UNL     1     -10.270  -4.920 -44.274  1.00  0.00    -0.067 N
ATOM     20  H62 UNL     1     -10.352  -3.985 -44.674  1.00  0.00     0.277 HD
ATOM     21  H61 UNL     1     -10.252  -4.679 -43.282  1.00  0.00     0.277 HD
BRANCH  19  22
HETATM   22  C8  UNL     1      -9.025  -5.539 -44.672  1.00  0.00     0.264 C
BRANCH  22  23
HETATM   23  C9  UNL     1      -7.837  -4.637 -44.405  1.00  0.00     0.205 C
HETATM   24  C10 UNL     1      -7.122  -4.338 -45.692  1.00  0.00     0.041 C
BRANCH  23  25
HETATM   25  N7  UNL     1      -8.298  -3.429 -43.762  1.00  0.00    -0.074 N
ATOM     26  H73 UNL     1      -8.878  -2.860 -44.378  1.00  0.00     0.274 HD
ATOM     27  H72 UNL     1      -8.995  -3.616 -43.041  1.00  0.00     0.274 HD
ATOM     28  H71 UNL     1      -7.494  -2.916 -43.401  1.00  0.00     0.274 HD
ENDBRANCH  23  25
ENDBRANCH  22  23
ENDBRANCH  19  22
ENDBRANCH  18  19
ENDBRANCH   1  18
TORSDOF 10
ENDMDL