MODEL 1
REMARK VINA RESULT: -6.186588365      0.000      0.000
REMARK  9 active torsions:
REMARK  status: ('A' for Active; 'I' for Inactive)
REMARK    1  A    between atoms: C2_2  and  C3_3
REMARK    2  A    between atoms: C3_3  and  N1_4
REMARK    3  A    between atoms: N1_4  and  C4_6
REMARK    4  A    between atoms: C5_11  and  N4_12
REMARK    5  A    between atoms: N5_14  and  N6_16
REMARK    6  A    between atoms: N6_16  and  C6_18
REMARK    7  A    between atoms: C6_18  and  N7_19
REMARK    8  A    between atoms: C6_18  and  C7_23
REMARK    9  A    between atoms: C7_23  and  N8_24
ROOT
HETATM    1  N4  UNL     1     -11.793  -6.337 -41.074  1.00  0.00    -0.266 N
ATOM      2  H4  UNL     1     -12.234  -6.278 -40.156  1.00  0.00     0.190 HD
HETATM    3  N5  UNL     1     -12.413  -5.955 -42.083  1.00  0.00    -0.243 N
ATOM      4  H5  UNL     1     -13.358  -5.587 -41.987  1.00  0.00     0.208 HD
ENDROOT
BRANCH   1   5
HETATM    5  C5  UNL     1     -10.475  -6.853 -41.192  1.00  0.00     0.206 A
HETATM    6  N3  UNL     1      -9.393  -6.125 -40.818  1.00  0.00    -0.266 N
HETATM    7  N2  UNL     1      -8.174  -6.622 -40.935  1.00  0.00    -0.130 N
ATOM      8  H3  UNL     1      -9.522  -5.185 -40.443  1.00  0.00     0.189 HD
HETATM    9  C4  UNL     1      -7.966  -7.862 -41.428  1.00  0.00     0.696 A
ATOM     10  H2  UNL     1      -7.374  -6.059 -40.647  1.00  0.00     0.205 HD
HETATM   11  N9  UNL     1      -9.025  -8.602 -41.805  1.00  0.00    -0.152 N
HETATM   12  C8  UNL     1     -10.250  -8.114 -41.692  1.00  0.00     0.306 A
ATOM     13  H9  UNL     1      -8.884  -9.541 -42.178  1.00  0.00     0.188 HD
HETATM   14  O1  UNL     1     -11.279  -8.782 -42.039  1.00  0.00    -0.263 OA
BRANCH   9  15
HETATM   15  N1  UNL     1      -6.778  -8.317 -41.530  1.00  0.00    -0.221 N
ATOM     16  H1  UNL     1      -6.618  -9.229 -41.958  1.00  0.00     0.178 HD
BRANCH  15  17
HETATM   17  C3  UNL     1      -5.651  -7.535 -41.036  1.00  0.00     0.164 C
BRANCH  17  18
HETATM   18  C2  UNL     1      -4.715  -7.167 -42.103  1.00  0.00    -0.017 C
HETATM   19  C1  UNL     1      -4.950  -6.143 -42.910  1.00  0.00     0.008 C
ENDBRANCH  17  18
ENDBRANCH  15  17
ENDBRANCH   9  15
ENDBRANCH   1   5
BRANCH   3  20
HETATM   20  N6  UNL     1     -11.828  -6.027 -43.336  1.00  0.00    -0.290 N
ATOM     21  H6  UNL     1     -11.780  -6.919 -43.828  1.00  0.00     0.184 HD
BRANCH  20  22
HETATM   22  C6  UNL     1     -11.289  -4.838 -43.940  1.00  0.00     0.322 C
BRANCH  22  23
HETATM   23  N7  UNL     1     -12.168  -4.313 -44.964  1.00  0.00    -0.055 N
ATOM     24  H73 UNL     1     -13.079  -4.769 -44.942  1.00  0.00     0.276 HD
ATOM     25  H72 UNL     1     -12.461  -3.360 -44.750  1.00  0.00     0.276 HD
ATOM     26  H71 UNL     1     -11.744  -4.373 -45.891  1.00  0.00     0.276 HD
ENDBRANCH  22  23
BRANCH  22  27
HETATM   27  C7  UNL     1      -9.922  -5.189 -44.495  1.00  0.00     0.285 C
BRANCH  27  28
HETATM   28  N8  UNL     1      -8.885  -4.324 -44.017  1.00  0.00    -0.076 N
ATOM     29  H83 UNL     1      -9.201  -3.792 -43.206  1.00  0.00     0.274 HD
ATOM     30  H82 UNL     1      -8.134  -4.861 -43.582  1.00  0.00     0.274 HD
ATOM     31  H81 UNL     1      -8.519  -3.705 -44.739  1.00  0.00     0.274 HD
ENDBRANCH  27  28
ENDBRANCH  22  27
ENDBRANCH  20  22
ENDBRANCH   3  20
TORSDOF 9
ENDMDL