MODEL 3
REMARK VINA RESULT: -6.264957255      2.032      3.906
REMARK  9 active torsions:
REMARK  status: ('A' for Active; 'I' for Inactive)
REMARK    1  A    between atoms: C4_5  and  C5_6
REMARK    2  A    between atoms: C5_6  and  N2_7
REMARK    3  A    between atoms: N2_7  and  N3_9
REMARK    4  A    between atoms: N3_9  and  C6_11
REMARK    5  A    between atoms: C6_11  and  O1_12
REMARK    6  A    between atoms: C6_11  and  C7_14
REMARK    7  A    between atoms: C7_14  and  C8_15
REMARK    8  A    between atoms: C8_15  and  N4_16
REMARK    9  A    between atoms: N4_16  and  C9_19
ROOT
HETATM    1  C6  UNL     1     -11.012  -7.954 -40.855  1.00  0.00     0.234 C
ENDROOT
BRANCH   1   2
HETATM    2  N3  UNL     1      -9.798  -7.170 -40.749  1.00  0.00    -0.308 N
ATOM      3  H3  UNL     1      -9.818  -6.206 -40.416  1.00  0.00     0.183 HD
BRANCH   2   4
HETATM    4  N2  UNL     1      -8.608  -7.776 -41.116  1.00  0.00    -0.312 N
ATOM      5  H2  UNL     1      -8.557  -8.792 -41.185  1.00  0.00     0.185 HD
BRANCH   4   6
HETATM    6  C5  UNL     1      -7.578  -7.072 -41.367  1.00  0.00     0.137 C
BRANCH   6   7
HETATM    7  C4  UNL     1      -7.443  -6.422 -42.662  1.00  0.00     0.066 A
HETATM    8  C3  UNL     1      -7.454  -7.061 -43.910  1.00  0.00     0.051 A
HETATM    9  C2  UNL     1      -7.299  -6.087 -44.873  1.00  0.00     0.112 A
HETATM   10  N1  UNL     1      -7.199  -4.906 -44.236  1.00  0.00    -0.307 N
HETATM   11  C1  UNL     1      -7.023  -3.629 -44.941  1.00  0.00     0.177 C
HETATM   12  N6  UNL     1      -7.285  -5.122 -42.951  1.00  0.00    -0.298 N
ATOM     13  H6  UNL     1      -7.238  -4.385 -42.247  1.00  0.00     0.187 HD
ENDBRANCH   6   7
ENDBRANCH   4   6
ENDBRANCH   2   4
ENDBRANCH   1   2
BRANCH   1  14
HETATM   14  O1  UNL     1     -10.760  -9.323 -40.848  1.00  0.00    -0.376 OA
ATOM     15  H1  UNL     1     -11.452  -9.814 -40.420  1.00  0.00     0.212 HD
ENDBRANCH   1  14
BRANCH   1  16
HETATM   16  C7  UNL     1     -11.725  -7.665 -42.182  1.00  0.00     0.082 C
BRANCH  16  17
HETATM   17  C8  UNL     1     -12.154  -6.211 -42.122  1.00  0.00     0.237 C
BRANCH  17  18
HETATM   18  N4  UNL     1     -12.900  -5.829 -43.304  1.00  0.00    -0.068 N
ATOM     19  H42 UNL     1     -12.970  -6.579 -43.991  1.00  0.00     0.277 HD
ATOM     20  H41 UNL     1     -13.899  -5.717 -43.127  1.00  0.00     0.277 HD
BRANCH  18  21
HETATM   21  C9  UNL     1     -12.281  -4.628 -43.836  1.00  0.00     0.236 C
HETATM   22  C10 UNL     1     -10.771  -4.695 -43.895  1.00  0.00     0.267 C
HETATM   23  N5  UNL     1     -10.914  -5.213 -45.257  1.00  0.00    -0.071 N
HETATM   24  C11 UNL     1     -12.242  -4.664 -45.347  1.00  0.00     0.267 C
ATOM     25  H52 UNL     1     -10.219  -4.974 -45.964  1.00  0.00     0.277 HD
ATOM     26  H51 UNL     1     -10.765  -6.206 -45.437  1.00  0.00     0.277 HD
ENDBRANCH  18  21
ENDBRANCH  17  18
ENDBRANCH  16  17
ENDBRANCH   1  16
TORSDOF 9
ENDMDL