MODEL 2
REMARK VINA RESULT: -5.284353636      1.986      5.487
REMARK  11 active torsions:
REMARK  status: ('A' for Active; 'I' for Inactive)
REMARK    1  A    between atoms: O1_2  and  C2_3
REMARK    2  A    between atoms: C6_9  and  C7_10
REMARK    3  A    between atoms: C7_10  and  N2_11
REMARK    4  A    between atoms: C7_10  and  C8_15
REMARK    5  A    between atoms: C7_10  and  C11_24
REMARK    6  A    between atoms: C8_15  and  N3_16
REMARK    7  A    between atoms: N3_16  and  C9_18
REMARK    8  A    between atoms: C9_18  and  C10_19
REMARK    9  A    between atoms: C10_19  and  N4_20
REMARK   10  A    between atoms: C11_24  and  N5_25
REMARK   11  A    between atoms: C11_24  and  N6_29
ROOT
HETATM    1  C7  UNL     1      -8.461  -5.712 -44.097  1.00  0.00     0.238 C
ENDROOT
BRANCH   1   2
HETATM    2  C6  UNL     1      -9.917  -5.638 -43.889  1.00  0.00     0.038 A
HETATM    3  C2  UNL     1     -10.554  -6.227 -42.837  1.00  0.00     0.151 A
HETATM    4  N1  UNL     1     -11.925  -6.171 -42.718  1.00  0.00    -0.346 N
HETATM    5  C3  UNL     1     -12.710  -5.553 -43.599  1.00  0.00     0.090 A
ATOM      6  H1  UNL     1     -12.361  -6.626 -41.916  1.00  0.00     0.167 HD
HETATM    7  C4  UNL     1     -12.106  -4.945 -44.675  1.00  0.00     0.018 A
HETATM    8  C5  UNL     1     -10.711  -4.987 -44.821  1.00  0.00     0.016 A
BRANCH   3   9
HETATM    9  O1  UNL     1      -9.817  -6.879 -41.878  1.00  0.00    -0.340 OA
HETATM   10  C1  UNL     1     -10.345  -8.059 -41.312  1.00  0.00     0.211 C
ENDBRANCH   3   9
ENDBRANCH   1   2
BRANCH   1  11
HETATM   11  N2  UNL     1      -7.891  -4.963 -42.890  1.00  0.00    -0.057 N
ATOM     12  H23 UNL     1      -8.374  -4.093 -42.666  1.00  0.00     0.276 HD
ATOM     13  H22 UNL     1      -8.062  -5.414 -41.992  1.00  0.00     0.276 HD
ATOM     14  H21 UNL     1      -6.904  -4.850 -43.125  1.00  0.00     0.276 HD
ENDBRANCH   1  11
BRANCH   1  15
HETATM   15  C8  UNL     1      -7.887  -7.052 -43.964  1.00  0.00     0.103 C
BRANCH  15  16
HETATM   16  N3  UNL     1      -7.032  -7.310 -42.899  1.00  0.00    -0.398 N
ATOM     17  H3  UNL     1      -6.550  -6.508 -42.493  1.00  0.00     0.158 HD
BRANCH  16  18
HETATM   18  C9  UNL     1      -6.771  -8.545 -42.335  1.00  0.00     0.146 C
BRANCH  18  19
HETATM   19  C10 UNL     1      -6.322  -8.277 -40.871  1.00  0.00     0.249 C
BRANCH  19  20
HETATM   20  N4  UNL     1      -7.085  -7.211 -40.279  1.00  0.00    -0.078 N
ATOM     21  H43 UNL     1      -8.049  -7.209 -40.614  1.00  0.00     0.274 HD
ATOM     22  H42 UNL     1      -7.263  -7.383 -39.290  1.00  0.00     0.274 HD
ATOM     23  H41 UNL     1      -6.635  -6.308 -40.428  1.00  0.00     0.274 HD
ENDBRANCH  19  20
ENDBRANCH  18  19
ENDBRANCH  16  18
ENDBRANCH  15  16
ENDBRANCH   1  15
BRANCH   1  24
HETATM   24  C11 UNL     1      -7.999  -4.849 -45.211  1.00  0.00     0.423 C
BRANCH  24  25
HETATM   25  N5  UNL     1      -7.367  -3.617 -44.928  1.00  0.00    -0.047 N
ATOM     26  H53 UNL     1      -8.087  -2.923 -44.728  1.00  0.00     0.276 HD
ATOM     27  H52 UNL     1      -6.901  -3.691 -44.024  1.00  0.00     0.276 HD
ATOM     28  H51 UNL     1      -6.710  -3.219 -45.599  1.00  0.00     0.276 HD
ENDBRANCH  24  25
BRANCH  24  29
HETATM   29  N6  UNL     1      -6.913  -5.676 -45.873  1.00  0.00    -0.047 N
ATOM     30  H63 UNL     1      -6.389  -6.275 -45.234  1.00  0.00     0.276 HD
ATOM     31  H62 UNL     1      -7.259  -6.430 -46.467  1.00  0.00     0.276 HD
ATOM     32  H61 UNL     1      -6.347  -4.980 -46.359  1.00  0.00     0.276 HD
ENDBRANCH  24  29
ENDBRANCH   1  24
TORSDOF 11
ENDMDL