MODEL 4
REMARK VINA RESULT: -4.745602663      2.000      4.327
REMARK  10 active torsions:
REMARK  status: ('A' for Active; 'I' for Inactive)
REMARK    1  A    between atoms: C2_2  and  N1_5
REMARK    2  A    between atoms: N1_5  and  C5_7
REMARK    3  A    between atoms: C5_7  and  O1_8
REMARK    4  A    between atoms: C5_7  and  C6_10
REMARK    5  A    between atoms: C6_10  and  C7_11
REMARK    6  A    between atoms: C6_10  and  C8_16
REMARK    7  A    between atoms: C6_10  and  N5_23
REMARK    8  A    between atoms: C7_11  and  N2_12
REMARK    9  A    between atoms: C8_16  and  N3_17
REMARK   10  A    between atoms: N5_23  and  N6_24
ROOT
HETATM    1  C6  UNL     1      -7.640  -6.455 -43.083  1.00  0.00     0.134 C
ENDROOT
BRANCH   1   2
HETATM    2  C5  UNL     1      -8.599  -6.903 -41.999  1.00  0.00     0.243 C
BRANCH   2   3
HETATM    3  N1  UNL     1      -9.843  -6.263 -42.176  1.00  0.00    -0.387 N
ATOM      4  H1  UNL     1      -9.862  -5.279 -42.443  1.00  0.00     0.156 HD
BRANCH   3   5
HETATM    5  C2  UNL     1     -11.059  -6.949 -41.994  1.00  0.00     0.017 C
HETATM    6  C1  UNL     1     -11.044  -8.382 -41.609  1.00  0.00     0.037 C
HETATM    7  C3  UNL     1     -12.035  -6.710 -43.147  1.00  0.00     0.037 C
HETATM    8  C4  UNL     1     -11.748  -6.228 -40.799  1.00  0.00     0.037 C
ENDBRANCH   3   5
ENDBRANCH   2   3
BRANCH   2   9
HETATM    9  O1  UNL     1      -7.959  -6.625 -40.790  1.00  0.00    -0.375 OA
ATOM     10  H1  UNL     1      -8.426  -6.913 -40.014  1.00  0.00     0.212 HD
ENDBRANCH   2   9
ENDBRANCH   1   2
BRANCH   1  11
HETATM   11  C7  UNL     1      -6.987  -7.740 -43.617  1.00  0.00     0.264 C
BRANCH  11  12
HETATM   12  N2  UNL     1      -7.399  -8.910 -42.888  1.00  0.00    -0.077 N
ATOM     13  H23 UNL     1      -7.008  -8.913 -41.946  1.00  0.00     0.274 HD
ATOM     14  H22 UNL     1      -8.390  -8.867 -42.654  1.00  0.00     0.274 HD
ATOM     15  H21 UNL     1      -7.175  -9.774 -43.381  1.00  0.00     0.274 HD
ENDBRANCH  11  12
ENDBRANCH   1  11
BRANCH   1  16
HETATM   16  C8  UNL     1      -8.381  -5.863 -44.248  1.00  0.00     0.183 C
BRANCH  16  17
HETATM   17  N3  UNL     1      -7.620  -4.920 -45.018  1.00  0.00    -0.301 N
HETATM   18  C9  UNL     1      -6.930  -5.125 -46.138  1.00  0.00     0.111 A
HETATM   19  C10 UNL     1      -6.336  -3.947 -46.582  1.00  0.00     0.037 A
HETATM   20  C11 UNL     1      -6.725  -3.019 -45.640  1.00  0.00     0.108 A
HETATM   21  N4  UNL     1      -7.476  -3.615 -44.733  1.00  0.00    -0.310 N
ATOM     22  H4  UNL     1      -7.890  -3.148 -43.926  1.00  0.00     0.186 HD
ENDBRANCH  16  17
ENDBRANCH   1  16
BRANCH   1  23
HETATM   23  N5  UNL     1      -6.606  -5.573 -42.607  1.00  0.00    -0.130 NA
BRANCH  23  24
HETATM   24  N6  UNL     1      -5.373  -6.186 -42.519  1.00  0.00    -0.347 N
ATOM     25  H62 UNL     1      -5.045  -6.865 -43.207  1.00  0.00     0.172 HD
ATOM     26  H61 UNL     1      -4.837  -5.889 -41.703  1.00  0.00     0.172 HD
ENDBRANCH  23  24
ENDBRANCH   1  23
TORSDOF 10
ENDMDL