MODEL 1
REMARK VINA RESULT: -5.977791894      0.000      0.000
REMARK  8 active torsions:
REMARK  status: ('A' for Active; 'I' for Inactive)
REMARK    1  A    between atoms: O1_2  and  C2_3
REMARK    2  A    between atoms: C2_3  and  C3_4
REMARK    3  A    between atoms: C3_4  and  C4_5
REMARK    4  A    between atoms: C3_4  and  N3_10
REMARK    5  A    between atoms: C4_5  and  N1_6
REMARK    6  A    between atoms: N3_10  and  N4_11
REMARK    7  A    between atoms: N4_11  and  C6_13
REMARK    8  A    between atoms: C8_17  and  N6_18
ROOT
HETATM    1  N1  UNL     1      -4.804  -6.775 -41.549  1.00  0.00    -0.327 N
ATOM      2  H1  UNL     1      -4.169  -7.466 -41.949  1.00  0.00     0.171 HD
HETATM    3  C5  UNL     1      -4.307  -5.814 -40.626  1.00  0.00     0.177 C
HETATM    4  N2  UNL     1      -3.895  -5.051 -39.871  1.00  0.00    -0.172 NA
ENDROOT
BRANCH   1   5
HETATM    5  C4  UNL     1      -6.202  -6.784 -41.926  1.00  0.00     0.156 C
BRANCH   5   6
HETATM    6  C3  UNL     1      -6.387  -7.136 -43.376  1.00  0.00     0.141 C
BRANCH   6   7
HETATM    7  C2  UNL     1      -5.884  -6.033 -44.231  1.00  0.00     0.191 C
BRANCH   7   8
HETATM    8  O1  UNL     1      -6.266  -4.801 -43.766  1.00  0.00    -0.394 OA
HETATM    9  C1  UNL     1      -6.742  -3.929 -44.718  1.00  0.00     0.201 C
ENDBRANCH   7   8
ENDBRANCH   6   7
BRANCH   6  10
HETATM   10  N3  UNL     1      -7.810  -7.325 -43.579  1.00  0.00    -0.132 NA
BRANCH  10  11
HETATM   11  N4  UNL     1      -8.590  -6.681 -42.660  1.00  0.00    -0.300 N
ATOM     12  H4  UNL     1      -8.215  -6.539 -41.722  1.00  0.00     0.182 HD
BRANCH  11  13
HETATM   13  C6  UNL     1      -9.903  -6.196 -42.942  1.00  0.00     0.083 A
HETATM   14  C7  UNL     1     -10.017  -5.223 -43.918  1.00  0.00     0.138 A
HETATM   15  N5  UNL     1     -11.255  -4.763 -44.187  1.00  0.00    -0.200 N
HETATM   16  C8  UNL     1     -12.344  -5.216 -43.548  1.00  0.00     0.675 A
ATOM     17  H5  UNL     1     -11.367  -4.044 -44.902  1.00  0.00     0.183 HD
HETATM   18  N7  UNL     1     -12.214  -6.162 -42.601  1.00  0.00    -0.194 N
HETATM   19  C9  UNL     1     -11.009  -6.674 -42.274  1.00  0.00     0.051 A
ATOM     20  H7  UNL     1     -13.047  -6.501 -42.118  1.00  0.00     0.184 HD
HETATM   21  C10 UNL     1     -10.854  -7.721 -41.228  1.00  0.00     0.071 C
BRANCH  16  22
HETATM   22  N6  UNL     1     -13.484  -4.715 -43.873  1.00  0.00    -0.234 N
ATOM     23  H62 UNL     1     -13.574  -3.811 -44.335  1.00  0.00     0.174 HD
ATOM     24  H61 UNL     1     -14.322  -5.255 -43.656  1.00  0.00     0.174 HD
ENDBRANCH  16  22
ENDBRANCH  11  13
ENDBRANCH  10  11
ENDBRANCH   6  10
ENDBRANCH   5   6
ENDBRANCH   1   5
TORSDOF 8
ENDMDL