MODEL 2
REMARK VINA RESULT: -6.266342241      1.651      2.769
REMARK  11 active torsions:
REMARK  status: ('A' for Active; 'I' for Inactive)
REMARK    1  A    between atoms: C2_2  and  C3_3
REMARK    2  A    between atoms: C3_3  and  O1_4
REMARK    3  A    between atoms: C3_3  and  C4_6
REMARK    4  A    between atoms: C4_6  and  N1_7
REMARK    5  A    between atoms: C4_6  and  C10_21
REMARK    6  A    between atoms: N1_7  and  C5_9
REMARK    7  A    between atoms: C5_9  and  C6_10
REMARK    8  A    between atoms: C8_12  and  C9_13
REMARK    9  A    between atoms: C9_13  and  N2_14
REMARK   10  A    between atoms: C10_21  and  N4_22
REMARK   11  A    between atoms: C10_21  and  O3_26
ROOT
HETATM    1  N1  UNL     1      -9.280  -6.357 -43.613  1.00  0.00    -0.385 N
ATOM      2  H1  UNL     1      -9.676  -6.662 -44.502  1.00  0.00     0.159 HD
ENDROOT
BRANCH   1   3
HETATM    3  C4  UNL     1     -10.114  -6.196 -42.479  1.00  0.00     0.169 C
BRANCH   3   4
HETATM    4  C3  UNL     1     -11.531  -6.371 -42.942  1.00  0.00     0.167 C
BRANCH   4   5
HETATM    5  C2  UNL     1     -11.572  -5.809 -44.339  1.00  0.00    -0.004 C
HETATM    6  C1  UNL     1     -12.285  -4.729 -44.635  1.00  0.00     0.009 C
ENDBRANCH   4   5
BRANCH   4   7
HETATM    7  O1  UNL     1     -12.473  -5.700 -42.180  1.00  0.00    -0.390 OA
ATOM      8  H1  UNL     1     -12.339  -4.767 -42.298  1.00  0.00     0.210 HD
ENDBRANCH   4   7
ENDBRANCH   3   4
BRANCH   3   9
HETATM    9  C10 UNL     1      -9.758  -7.107 -41.328  1.00  0.00     0.341 C
BRANCH   9  10
HETATM   10  N4  UNL     1     -10.935  -7.531 -40.599  1.00  0.00    -0.051 N
ATOM     11  H43 UNL     1     -11.774  -7.462 -41.174  1.00  0.00     0.277 HD
ATOM     12  H42 UNL     1     -10.932  -8.539 -40.443  1.00  0.00     0.277 HD
ATOM     13  H41 UNL     1     -11.041  -7.020 -39.722  1.00  0.00     0.277 HD
ENDBRANCH   9  10
BRANCH   9  14
HETATM   14  O3  UNL     1      -8.943  -6.420 -40.436  1.00  0.00    -0.368 OA
ATOM     15  H3  UNL     1      -9.417  -5.672 -40.092  1.00  0.00     0.212 HD
ENDBRANCH   9  14
ENDBRANCH   3   9
ENDBRANCH   1   3
BRANCH   1  16
HETATM   16  C5  UNL     1      -7.908  -6.094 -43.504  1.00  0.00     0.115 C
BRANCH  16  17
HETATM   17  C6  UNL     1      -7.668  -4.713 -44.068  1.00  0.00     0.072 A
HETATM   18  C7  UNL     1      -6.912  -4.463 -45.166  1.00  0.00     0.069 A
HETATM   19  C8  UNL     1      -6.956  -3.089 -45.349  1.00  0.00     0.104 A
HETATM   20  O2  UNL     1      -7.704  -2.610 -44.388  1.00  0.00    -0.240 OA
HETATM   21  N3  UNL     1      -8.145  -3.546 -43.608  1.00  0.00    -0.260 N
ATOM     22  H3  UNL     1      -8.744  -3.419 -42.792  1.00  0.00     0.195 HD
BRANCH  19  23
HETATM   23  C9  UNL     1      -6.266  -2.351 -46.443  1.00  0.00     0.296 C
BRANCH  23  24
HETATM   24  N2  UNL     1      -7.239  -1.653 -47.267  1.00  0.00    -0.073 N
ATOM     25  H23 UNL     1      -7.023  -1.730 -48.261  1.00  0.00     0.274 HD
ATOM     26  H22 UNL     1      -8.143  -2.125 -47.274  1.00  0.00     0.274 HD
ATOM     27  H21 UNL     1      -7.319  -0.682 -46.969  1.00  0.00     0.274 HD
ENDBRANCH  23  24
ENDBRANCH  19  23
ENDBRANCH  16  17
ENDBRANCH   1  16
TORSDOF 11
ENDMDL