MODEL 2
REMARK VINA RESULT: -5.828845829      1.057      1.115
REMARK  9 active torsions:
REMARK  status: ('A' for Active; 'I' for Inactive)
REMARK    1  A    between atoms: C2_2  and  C3_3
REMARK    2  A    between atoms: C3_3  and  N1_4
REMARK    3  A    between atoms: N1_4  and  C4_6
REMARK    4  A    between atoms: C6_8  and  C7_9
REMARK    5  A    between atoms: C7_9  and  N2_11
REMARK    6  A    between atoms: N2_11  and  N3_13
REMARK    7  A    between atoms: N3_13  and  N4_14
REMARK    8  A    between atoms: C10_19  and  N6_20
REMARK    9  A    between atoms: N7_23  and  N8_24
ROOT
HETATM    1  C4  UNL     1      -9.447  -6.244 -42.836  1.00  0.00     0.142 A
HETATM    2  C5  UNL     1      -9.043  -5.830 -44.133  1.00  0.00     0.078 A
HETATM    3  C6  UNL     1      -7.740  -5.569 -44.407  1.00  0.00     0.054 A
HETATM    4  N5  UNL     1      -6.830  -5.704 -43.444  1.00  0.00    -0.192 N
ATOM      5  H5  UNL     1      -5.851  -5.507 -43.651  1.00  0.00     0.184 HD
HETATM    6  C10 UNL     1      -7.166  -6.086 -42.233  1.00  0.00     0.698 A
HETATM    7  N7  UNL     1      -8.477  -6.348 -41.954  1.00  0.00    -0.077 N
ENDROOT
BRANCH   3   8
HETATM    8  C7  UNL     1      -7.254  -5.134 -45.744  1.00  0.00     0.146 C
HETATM    9  C8  UNL     1      -6.204  -6.098 -46.278  1.00  0.00     0.040 C
BRANCH   8  10
HETATM   10  N2  UNL     1      -6.688  -3.838 -45.749  1.00  0.00    -0.306 N
HETATM   11  C9  UNL     1      -5.333  -3.697 -46.124  1.00  0.00     0.169 C
BRANCH  10  12
HETATM   12  N3  UNL     1      -7.222  -2.903 -44.904  1.00  0.00    -0.032 NA
BRANCH  12  13
HETATM   13  N4  UNL     1      -7.196  -1.655 -45.518  1.00  0.00    -0.329 N
ATOM     14  H42 UNL     1      -6.345  -1.141 -45.745  1.00  0.00     0.174 HD
ATOM     15  H41 UNL     1      -8.150  -1.346 -45.700  1.00  0.00     0.174 HD
ENDBRANCH  12  13
ENDBRANCH  10  12
ENDBRANCH   8  10
ENDBRANCH   3   8
BRANCH   1  16
HETATM   16  N1  UNL     1     -10.815  -6.462 -42.631  1.00  0.00    -0.374 N
ATOM     17  H1  UNL     1     -11.097  -6.623 -41.664  1.00  0.00     0.161 HD
BRANCH  16  18
HETATM   18  C3  UNL     1     -11.865  -6.489 -43.589  1.00  0.00     0.121 C
BRANCH  18  19
HETATM   19  C2  UNL     1     -12.661  -5.183 -43.665  1.00  0.00     0.015 C
HETATM   20  C1  UNL     1     -12.377  -4.555 -45.018  1.00  0.00     0.006 C
ENDBRANCH  18  19
ENDBRANCH  16  18
ENDBRANCH   1  16
BRANCH   6  21
HETATM   21  N6  UNL     1      -6.251  -6.205 -41.336  1.00  0.00    -0.233 N
ATOM     22  H62 UNL     1      -6.081  -7.092 -40.862  1.00  0.00     0.174 HD
ATOM     23  H61 UNL     1      -5.685  -5.393 -41.093  1.00  0.00     0.174 HD
ENDBRANCH   6  21
BRANCH   7  24
HETATM   24  N8  UNL     1      -8.718  -6.697 -40.624  1.00  0.00    -0.322 N
ATOM     25  H82 UNL     1      -8.334  -7.602 -40.355  1.00  0.00     0.178 HD
ATOM     26  H81 UNL     1      -9.210  -6.076 -39.981  1.00  0.00     0.178 HD
ENDBRANCH   7  24
TORSDOF 9
ENDMDL