MODEL 2
REMARK VINA RESULT: -5.638273582      3.277      4.998
REMARK  14 active torsions:
REMARK  status: ('A' for Active; 'I' for Inactive)
REMARK    1  A    between atoms: C2_2  and  S1_3
REMARK    2  A    between atoms: S1_3  and  S2_4
REMARK    3  A    between atoms: S2_4  and  C3_5
REMARK    4  A    between atoms: C4_6  and  N1_7
REMARK    5  A    between atoms: C5_11  and  O1_12
REMARK    6  A    between atoms: C6_15  and  C7_16
REMARK    7  A    between atoms: C7_16  and  O3_17
REMARK    8  A    between atoms: C7_16  and  C8_19
REMARK    9  A    between atoms: C8_19  and  C10_21
REMARK   10  A    between atoms: C10_21  and  N2_22
REMARK   11  A    between atoms: C11_26  and  N3_27
REMARK   12  A    between atoms: N3_27  and  C12_29
REMARK   13  A    between atoms: C12_29  and  N4_30
REMARK   14  A    between atoms: N4_30  and  N5_31
ROOT
HETATM    1  C3  UNL     1     -13.042  26.201 -23.524  1.00  0.00     0.142 C
HETATM    2  C4  UNL     1     -14.226  27.084 -23.893  1.00  0.00     0.258 C
HETATM    3  C5  UNL     1     -14.508  26.957 -25.329  1.00  0.00     0.289 C
HETATM    4  O2  UNL     1     -13.474  27.186 -26.182  1.00  0.00    -0.346 OA
HETATM    5  C6  UNL     1     -12.273  26.642 -25.893  1.00  0.00     0.200 C
HETATM    6  C11 UNL     1     -11.932  26.481 -24.438  1.00  0.00     0.032 C
ENDROOT
BRANCH   5   7
HETATM    7  C7  UNL     1     -12.193  25.297 -26.581  1.00  0.00     0.158 C
BRANCH   7   8
HETATM    8  O3  UNL     1     -10.856  24.847 -26.639  1.00  0.00    -0.392 OA
ATOM      9  H3  UNL     1     -10.520  24.909 -27.525  1.00  0.00     0.210 HD
ENDBRANCH   7   8
BRANCH   7  10
HETATM   10  C8  UNL     1     -12.824  25.238 -27.927  1.00  0.00     0.038 C
HETATM   11  C9  UNL     1     -12.787  23.774 -28.405  1.00  0.00     0.014 C
BRANCH  10  12
HETATM   12  C10 UNL     1     -12.068  26.039 -28.968  1.00  0.00     0.236 C
BRANCH  12  13
HETATM   13  N2  UNL     1     -11.359  25.075 -29.807  1.00  0.00    -0.079 N
ATOM     14  H23 UNL     1     -10.830  24.386 -29.271  1.00  0.00     0.274 HD
ATOM     15  H22 UNL     1     -11.981  24.418 -30.280  1.00  0.00     0.274 HD
ATOM     16  H21 UNL     1     -10.780  25.615 -30.450  1.00  0.00     0.274 HD
ENDBRANCH  12  13
ENDBRANCH  10  12
ENDBRANCH   7  10
ENDBRANCH   5   7
BRANCH   6  17
HETATM   17  N3  UNL     1     -10.980  27.445 -24.024  1.00  0.00    -0.378 N
ATOM     18  H3  UNL     1     -11.290  28.385 -23.780  1.00  0.00     0.160 HD
BRANCH  17  19
HETATM   19  C12 UNL     1      -9.619  27.128 -23.944  1.00  0.00     0.255 C
BRANCH  19  20
HETATM   20  N4  UNL     1      -9.531  25.663 -23.756  1.00  0.00    -0.129 NA
BRANCH  20  21
HETATM   21  N5  UNL     1      -8.587  25.183 -24.682  1.00  0.00    -0.347 N
ATOM     22  H52 UNL     1      -8.601  25.355 -25.688  1.00  0.00     0.172 HD
ATOM     23  H51 UNL     1      -7.900  24.641 -24.158  1.00  0.00     0.172 HD
ENDBRANCH  20  21
ENDBRANCH  19  20
ENDBRANCH  17  19
ENDBRANCH   6  17
BRANCH   3  24
HETATM   24  O1  UNL     1     -15.095  25.704 -25.569  1.00  0.00    -0.369 OA
ATOM     25  H1  UNL     1     -14.721  25.336 -26.361  1.00  0.00     0.212 HD
ENDBRANCH   3  24
BRANCH   1  26
HETATM   26  S2  UNL     1     -12.771  26.389 -21.783  1.00  0.00    -0.085 SA
BRANCH  26  27
HETATM   27  S1  UNL     1     -14.297  25.577 -20.601  1.00  0.00    -0.097 SA
BRANCH  27  28
HETATM   28  C2  UNL     1     -15.115  24.173 -21.344  1.00  0.00     0.081 C
HETATM   29  C1  UNL     1     -16.254  23.752 -20.434  1.00  0.00     0.017 C
ENDBRANCH  27  28
ENDBRANCH  26  27
ENDBRANCH   1  26
BRANCH   2  30
HETATM   30  N1  UNL     1     -14.112  28.431 -23.468  1.00  0.00    -0.069 N
ATOM     31  H13 UNL     1     -13.501  28.497 -22.655  1.00  0.00     0.275 HD
ATOM     32  H12 UNL     1     -13.568  28.970 -24.141  1.00  0.00     0.275 HD
ATOM     33  H11 UNL     1     -15.001  28.894 -23.280  1.00  0.00     0.275 HD
ENDBRANCH   2  30
TORSDOF 14
ENDMDL