MODEL 3
REMARK VINA RESULT: -6.712835792      2.397      6.265
REMARK  13 active torsions:
REMARK  status: ('A' for Active; 'I' for Inactive)
REMARK    1  A    between atoms: C2_2  and  N1_3
REMARK    2  A    between atoms: C2_2  and  C13_29
REMARK    3  A    between atoms: N1_3  and  C3_6
REMARK    4  A    between atoms: C3_6  and  O1_7
REMARK    5  A    between atoms: C3_6  and  N2_9
REMARK    6  A    between atoms: N2_9  and  C4_11
REMARK    7  A    between atoms: C4_11  and  C5_12
REMARK    8  A    between atoms: C4_11  and  C6_17
REMARK    9  A    between atoms: C5_12  and  N3_13
REMARK   10  A    between atoms: C6_17  and  O2_18
REMARK   11  A    between atoms: C6_17  and  N4_20
REMARK   12  A    between atoms: N4_20  and  C7_22
REMARK   13  A    between atoms: C7_22  and  C9_24
ROOT
HETATM    1  N2  UNL     1      -8.351  26.396 -24.450  1.00  0.00    -0.365 N
ATOM      2  H2  UNL     1      -8.538  26.041 -25.388  1.00  0.00     0.158 HD
ENDROOT
BRANCH   1   3
HETATM    3  C3  UNL     1      -9.207  25.994 -23.429  1.00  0.00     0.423 C
BRANCH   3   4
HETATM    4  N1  UNL     1     -10.276  25.079 -23.913  1.00  0.00    -0.021 N
ATOM      5  H12 UNL     1     -10.460  24.304 -23.276  1.00  0.00     0.283 HD
ATOM      6  H11 UNL     1      -9.992  24.521 -24.719  1.00  0.00     0.283 HD
BRANCH   4   7
HETATM    7  C2  UNL     1     -11.441  25.890 -24.169  1.00  0.00     0.256 C
HETATM    8  C1  UNL     1     -12.527  25.635 -23.138  1.00  0.00     0.049 C
BRANCH   7   9
HETATM    9  C13 UNL     1     -12.047  25.670 -25.477  1.00  0.00     0.141 A
HETATM   10  N5  UNL     1     -11.360  25.370 -26.595  1.00  0.00    -0.273 N
HETATM   11  N6  UNL     1     -12.182  25.243 -27.605  1.00  0.00    -0.225 N
ATOM     12  H5  UNL     1     -10.348  25.258 -26.647  1.00  0.00     0.189 HD
HETATM   13  N7  UNL     1     -13.417  25.455 -27.172  1.00  0.00    -0.005 NA
ATOM     14  H6  UNL     1     -11.917  25.019 -28.564  1.00  0.00     0.205 HD
HETATM   15  N8  UNL     1     -13.331  25.714 -25.879  1.00  0.00    -0.269 N
ATOM     16  H8  UNL     1     -14.125  25.917 -25.271  1.00  0.00     0.185 HD
ENDBRANCH   7   9
ENDBRANCH   4   7
ENDBRANCH   3   4
BRANCH   3  17
HETATM   17  O1  UNL     1      -8.445  25.089 -22.610  1.00  0.00    -0.355 OA
ATOM     18  H1  UNL     1      -7.777  24.820 -23.230  1.00  0.00     0.213 HD
ENDBRANCH   3  17
ENDBRANCH   1   3
BRANCH   1  19
HETATM   19  C4  UNL     1      -7.260  27.246 -24.290  1.00  0.00     0.154 C
BRANCH  19  20
HETATM   20  C5  UNL     1      -5.907  26.511 -24.429  1.00  0.00     0.258 C
BRANCH  20  21
HETATM   21  N3  UNL     1      -6.145  25.123 -24.787  1.00  0.00    -0.077 N
ATOM     22  H33 UNL     1      -7.054  24.792 -24.462  1.00  0.00     0.274 HD
ATOM     23  H32 UNL     1      -6.294  25.004 -25.788  1.00  0.00     0.274 HD
ATOM     24  H31 UNL     1      -5.379  24.546 -24.440  1.00  0.00     0.274 HD
ENDBRANCH  20  21
ENDBRANCH  19  20
BRANCH  19  25
HETATM   25  C6  UNL     1      -7.251  28.447 -25.204  1.00  0.00     0.238 C
BRANCH  25  26
HETATM   26  O2  UNL     1      -6.375  29.465 -24.721  1.00  0.00    -0.375 OA
ATOM     27  H2  UNL     1      -6.746  29.916 -23.971  1.00  0.00     0.212 HD
ENDBRANCH  25  26
BRANCH  25  28
HETATM   28  N4  UNL     1      -8.443  29.067 -25.534  1.00  0.00    -0.385 N
ATOM     29  H4  UNL     1      -8.794  28.917 -26.480  1.00  0.00     0.156 HD
BRANCH  28  30
HETATM   30  C7  UNL     1      -9.204  29.875 -24.703  1.00  0.00     0.132 C
HETATM   31  C8  UNL     1     -10.394  29.300 -24.018  1.00  0.00     0.039 C
BRANCH  30  32
HETATM   32  C9  UNL     1      -9.585  31.195 -25.326  1.00  0.00     0.074 A
HETATM   33  C10 UNL     1     -10.434  32.084 -24.713  1.00  0.00     0.037 A
HETATM   34  C11 UNL     1     -10.552  33.177 -25.569  1.00  0.00     0.027 A
HETATM   35  C12 UNL     1      -9.759  32.877 -26.654  1.00  0.00     0.142 A
HETATM   36  O3  UNL     1      -9.226  31.718 -26.454  1.00  0.00    -0.325 OA
ENDBRANCH  30  32
ENDBRANCH  28  30
ENDBRANCH  25  28
ENDBRANCH  19  25
ENDBRANCH   1  19
TORSDOF 13
ENDMDL