MODEL 2
REMARK VINA RESULT: -6.694130141      0.846      1.889
REMARK  13 active torsions:
REMARK  status: ('A' for Active; 'I' for Inactive)
REMARK    1  A    between atoms: N1_2  and  C2_4
REMARK    2  A    between atoms: C2_4  and  O1_5
REMARK    3  A    between atoms: C2_4  and  C3_7
REMARK    4  A    between atoms: C3_7  and  O2_8
REMARK    5  A    between atoms: C3_7  and  N2_10
REMARK    6  A    between atoms: N2_10  and  C4_12
REMARK    7  A    between atoms: C4_12  and  C5_13
REMARK    8  A    between atoms: C4_12  and  C13_27
REMARK    9  A    between atoms: C5_13  and  C6_14
REMARK   10  A    between atoms: C6_14  and  N3_16
REMARK   11  A    between atoms: N3_16  and  C8_18
REMARK   12  A    between atoms: C13_27  and  N7_28
REMARK   13  A    between atoms: C13_27  and  O3_32
ROOT
HETATM    1  C8  UNL     1      -8.490  27.299 -24.369  1.00  0.00     0.141 A
HETATM    2  N4  UNL     1      -8.142  28.540 -24.751  1.00  0.00    -0.336 N
ATOM      3  H4  UNL     1      -8.805  29.295 -24.929  1.00  0.00     0.168 HD
HETATM    4  C9  UNL     1      -6.808  28.660 -24.868  1.00  0.00     0.185 A
HETATM    5  N5  UNL     1      -6.252  27.475 -24.556  1.00  0.00    -0.336 N
HETATM    6  C10 UNL     1      -4.833  27.137 -24.545  1.00  0.00     0.158 C
HETATM    7  C11 UNL     1      -7.258  26.640 -24.252  1.00  0.00     0.161 A
HETATM    8  C12 UNL     1      -7.100  25.278 -23.865  1.00  0.00     0.122 C
HETATM    9  N6  UNL     1      -6.980  24.161 -23.551  1.00  0.00    -0.190 NA
ENDROOT
BRANCH   1  10
HETATM   10  N3  UNL     1      -9.725  26.702 -24.120  1.00  0.00    -0.369 N
ATOM     11  H3  UNL     1      -9.973  25.826 -24.581  1.00  0.00     0.161 HD
BRANCH  10  12
HETATM   12  C6  UNL     1     -10.660  27.332 -23.199  1.00  0.00     0.081 C
HETATM   13  C7  UNL     1     -11.171  26.346 -22.186  1.00  0.00     0.032 C
BRANCH  12  14
HETATM   14  C5  UNL     1     -11.624  28.216 -23.810  1.00  0.00     0.054 C
BRANCH  14  15
HETATM   15  C4  UNL     1     -12.440  28.038 -24.993  1.00  0.00     0.137 C
BRANCH  15  16
HETATM   16  N2  UNL     1     -12.470  26.556 -25.217  1.00  0.00    -0.385 N
ATOM     17  H2  UNL     1     -12.261  25.894 -24.470  1.00  0.00     0.156 HD
BRANCH  16  18
HETATM   18  C3  UNL     1     -12.799  26.135 -26.502  1.00  0.00     0.262 C
BRANCH  18  19
HETATM   19  C2  UNL     1     -11.964  25.005 -27.029  1.00  0.00     0.262 C
BRANCH  19  20
HETATM   20  N1  UNL     1     -11.527  25.157 -28.381  1.00  0.00    -0.398 N
HETATM   21  C1  UNL     1     -12.195  26.012 -29.249  1.00  0.00     0.142 C
ATOM     22  H1  UNL     1     -10.718  24.633 -28.712  1.00  0.00     0.155 HD
ENDBRANCH  19  20
BRANCH  19  23
HETATM   23  O1  UNL     1     -10.757  25.083 -26.221  1.00  0.00    -0.373 OA
ATOM     24  H1  UNL     1     -11.057  25.107 -25.320  1.00  0.00     0.212 HD
ENDBRANCH  19  23
ENDBRANCH  18  19
BRANCH  18  25
HETATM   25  O2  UNL     1     -14.168  25.631 -26.435  1.00  0.00    -0.373 OA
ATOM     26  H2  UNL     1     -14.575  26.071 -25.697  1.00  0.00     0.212 HD
ENDBRANCH  18  25
ENDBRANCH  16  18
ENDBRANCH  15  16
BRANCH  15  27
HETATM   27  C13 UNL     1     -12.000  28.571 -26.314  1.00  0.00     0.338 C
BRANCH  27  28
HETATM   28  N7  UNL     1     -12.780  29.673 -26.819  1.00  0.00    -0.051 N
ATOM     29  H73 UNL     1     -13.532  29.898 -26.169  1.00  0.00     0.277 HD
ATOM     30  H72 UNL     1     -12.238  30.536 -26.773  1.00  0.00     0.277 HD
ATOM     31  H71 UNL     1     -13.154  29.543 -27.759  1.00  0.00     0.277 HD
ENDBRANCH  27  28
BRANCH  27  32
HETATM   32  O3  UNL     1     -10.687  29.021 -26.329  1.00  0.00    -0.368 OA
ATOM     33  H3  UNL     1     -10.041  28.325 -26.311  1.00  0.00     0.212 HD
ENDBRANCH  27  32
ENDBRANCH  15  27
ENDBRANCH  14  15
ENDBRANCH  12  14
ENDBRANCH  10  12
ENDBRANCH   1  10
TORSDOF 13
ENDMDL