MODEL 3
REMARK VINA RESULT: -6.665623887      1.435      1.639
REMARK  14 active torsions:
REMARK  status: ('A' for Active; 'I' for Inactive)
REMARK    1  A    between atoms: N1_1  and  C1_4
REMARK    2  A    between atoms: C2_7  and  S1_8
REMARK    3  A    between atoms: S1_8  and  C3_9
REMARK    4  A    between atoms: C3_9  and  C4_10
REMARK    5  A    between atoms: C4_10  and  N3_11
REMARK    6  A    between atoms: C4_10  and  C5_15
REMARK    7  A    between atoms: C5_15  and  N4_16
REMARK    8  A    between atoms: N4_16  and  C6_18
REMARK    9  A    between atoms: C6_18  and  O1_19
REMARK   10  A    between atoms: C6_18  and  C7_21
REMARK   11  A    between atoms: C6_18  and  C8_26
REMARK   12  A    between atoms: C7_21  and  N5_22
REMARK   13  A    between atoms: C8_26  and  S2_27
REMARK   14  A    between atoms: S2_27  and  C9_28
ROOT
HETATM    1  C5  UNL     1     -10.373  28.766 -23.712  1.00  0.00     0.150 C
ENDROOT
BRANCH   1   2
HETATM    2  C4  UNL     1     -11.797  29.160 -24.061  1.00  0.00     0.210 C
BRANCH   2   3
HETATM    3  C3  UNL     1     -12.759  28.047 -23.925  1.00  0.00     0.116 C
BRANCH   3   4
HETATM    4  S1  UNL     1     -13.841  27.702 -25.280  1.00  0.00    -0.090 SA
BRANCH   4   5
HETATM    5  C2  UNL     1     -13.095  26.557 -26.431  1.00  0.00     0.174 A
HETATM    6  N2  UNL     1     -13.371  25.272 -26.686  1.00  0.00    -0.168 N
HETATM    7  C1  UNL     1     -12.521  24.836 -27.625  1.00  0.00     0.692 A
ATOM      8  H2  UNL     1     -14.103  24.720 -26.241  1.00  0.00     0.186 HD
HETATM    9  N9  UNL     1     -11.689  25.839 -27.982  1.00  0.00    -0.130 N
HETATM   10  N8  UNL     1     -12.043  26.871 -27.258  1.00  0.00    -0.265 N
ATOM     11  H9  UNL     1     -10.941  25.800 -28.673  1.00  0.00     0.205 HD
ATOM     12  H8  UNL     1     -11.596  27.787 -27.301  1.00  0.00     0.189 HD
BRANCH   7  13
HETATM   13  N1  UNL     1     -12.477  23.628 -28.137  1.00  0.00    -0.233 N
ATOM     14  H12 UNL     1     -13.289  23.137 -28.510  1.00  0.00     0.174 HD
ATOM     15  H11 UNL     1     -11.650  23.038 -28.229  1.00  0.00     0.174 HD
ENDBRANCH   7  13
ENDBRANCH   4   5
ENDBRANCH   3   4
ENDBRANCH   2   3
BRANCH   2  16
HETATM   16  N3  UNL     1     -11.851  29.900 -25.292  1.00  0.00    -0.073 N
ATOM     17  H33 UNL     1     -11.159  29.533 -25.945  1.00  0.00     0.274 HD
ATOM     18  H32 UNL     1     -12.713  29.676 -25.790  1.00  0.00     0.274 HD
ATOM     19  H31 UNL     1     -11.751  30.911 -25.213  1.00  0.00     0.274 HD
ENDBRANCH   2  16
ENDBRANCH   1   2
BRANCH   1  20
HETATM   20  N4  UNL     1      -9.862  27.783 -24.589  1.00  0.00    -0.388 N
ATOM     21  H4  UNL     1      -9.928  27.900 -25.600  1.00  0.00     0.156 HD
BRANCH  20  22
HETATM   22  C6  UNL     1      -9.255  26.631 -24.030  1.00  0.00     0.160 C
BRANCH  22  23
HETATM   23  O1  UNL     1      -9.511  26.436 -22.694  1.00  0.00    -0.369 OA
ATOM     24  H1  UNL     1      -8.748  26.216 -22.171  1.00  0.00     0.212 HD
ENDBRANCH  22  23
BRANCH  22  25
HETATM   25  C7  UNL     1      -9.832  25.444 -24.849  1.00  0.00     0.290 C
BRANCH  25  26
HETATM   26  N5  UNL     1     -10.894  24.863 -24.050  1.00  0.00    -0.075 N
ATOM     27  H53 UNL     1     -10.857  25.140 -23.069  1.00  0.00     0.274 HD
ATOM     28  H52 UNL     1     -11.813  25.252 -24.259  1.00  0.00     0.274 HD
ATOM     29  H51 UNL     1     -10.845  23.854 -24.186  1.00  0.00     0.274 HD
ENDBRANCH  25  26
ENDBRANCH  22  25
BRANCH  22  30
HETATM   30  C8  UNL     1      -7.771  26.576 -24.275  1.00  0.00     0.144 C
BRANCH  30  31
HETATM   31  S2  UNL     1      -7.037  28.152 -24.723  1.00  0.00    -0.086 SA
BRANCH  31  32
HETATM   32  C9  UNL     1      -5.287  28.078 -24.970  1.00  0.00     0.188 A
HETATM   33  N6  UNL     1      -4.298  28.896 -25.397  1.00  0.00    -0.218 N
HETATM   34  O2  UNL     1      -3.396  27.985 -25.246  1.00  0.00    -0.153 OA
ATOM     35  H6  UNL     1      -4.274  29.865 -25.717  1.00  0.00     0.199 HD
HETATM   36  N7  UNL     1      -4.332  27.160 -24.822  1.00  0.00    -0.218 N
ATOM     37  H7  UNL     1      -4.327  26.191 -24.503  1.00  0.00     0.199 HD
ENDBRANCH  31  32
ENDBRANCH  30  31
ENDBRANCH  22  30
ENDBRANCH  20  22
ENDBRANCH   1  20
TORSDOF 14
ENDMDL