MODEL 1
REMARK VINA RESULT: -7.634490112      0.000      0.000
REMARK  13 active torsions:
REMARK  status: ('A' for Active; 'I' for Inactive)
REMARK    1  A    between atoms: N1_1  and  C1_5
REMARK    2  A    between atoms: C1_5  and  C2_6
REMARK    3  A    between atoms: C1_5  and  C9_17
REMARK    4  A    between atoms: C2_6  and  O1_7
REMARK    5  A    between atoms: O1_7  and  C3_8
REMARK    6  A    between atoms: C7_12  and  N2_13
REMARK    7  A    between atoms: C9_17  and  N3_18
REMARK    8  A    between atoms: C9_17  and  C10_22
REMARK    9  A    between atoms: C10_22  and  O4_23
REMARK   10  A    between atoms: C10_22  and  N4_25
REMARK   11  A    between atoms: N4_25  and  C11_28
REMARK   12  A    between atoms: C11_28  and  N5_30
REMARK   13  A    between atoms: N5_30  and  O5_31
ROOT
HETATM    1  C1  UNL     1     -11.516  26.983 -23.581  1.00  0.00     0.242 C
ENDROOT
BRANCH   1   2
HETATM    2  N1  UNL     1     -11.315  25.702 -22.935  1.00  0.00    -0.071 N
ATOM      3  H13 UNL     1     -11.632  24.912 -23.495  1.00  0.00     0.274 HD
ATOM      4  H12 UNL     1     -10.334  25.427 -22.876  1.00  0.00     0.274 HD
ATOM      5  H11 UNL     1     -11.774  25.767 -22.026  1.00  0.00     0.274 HD
ENDBRANCH   1   2
BRANCH   1   6
HETATM    6  C2  UNL     1     -10.237  27.786 -23.341  1.00  0.00     0.210 C
BRANCH   6   7
HETATM    7  O1  UNL     1      -9.464  27.692 -24.531  1.00  0.00    -0.349 OA
BRANCH   7   8
HETATM    8  C3  UNL     1      -8.146  27.277 -24.385  1.00  0.00     0.071 A
HETATM    9  C4  UNL     1      -7.794  26.022 -23.917  1.00  0.00     0.037 A
HETATM   10  C5  UNL     1      -6.475  25.636 -23.783  1.00  0.00     0.005 A
HETATM   11  C6  UNL     1      -5.447  26.493 -24.111  1.00  0.00     0.036 A
HETATM   12  C7  UNL     1      -5.786  27.749 -24.581  1.00  0.00     0.105 A
HETATM   13  C8  UNL     1      -7.105  28.120 -24.709  1.00  0.00     0.072 A
BRANCH  12  14
HETATM   14  N2  UNL     1      -4.755  28.656 -24.929  1.00  0.00    -0.116 N
HETATM   15  O2  UNL     1      -4.986  29.886 -25.004  1.00  0.00    -0.532 OA
HETATM   16  O3  UNL     1      -3.506  28.150 -25.177  1.00  0.00    -0.532 OA
ENDBRANCH  12  14
ENDBRANCH   7   8
ENDBRANCH   6   7
ENDBRANCH   1   6
BRANCH   1  17
HETATM   17  C9  UNL     1     -11.680  26.862 -25.065  1.00  0.00     0.271 C
BRANCH  17  18
HETATM   18  N3  UNL     1     -12.960  27.485 -25.406  1.00  0.00    -0.069 N
ATOM     19  H33 UNL     1     -13.683  27.325 -24.705  1.00  0.00     0.275 HD
ATOM     20  H32 UNL     1     -12.940  28.503 -25.343  1.00  0.00     0.275 HD
ATOM     21  H31 UNL     1     -13.219  27.145 -26.333  1.00  0.00     0.275 HD
ENDBRANCH  17  18
BRANCH  17  22
HETATM   22  C10 UNL     1     -11.704  25.433 -25.542  1.00  0.00     0.354 C
BRANCH  22  23
HETATM   23  O4  UNL     1     -10.433  25.063 -25.935  1.00  0.00    -0.368 OA
ATOM     24  H4  UNL     1     -10.231  24.207 -25.576  1.00  0.00     0.212 HD
ENDBRANCH  22  23
BRANCH  22  25
HETATM   25  N4  UNL     1     -12.646  25.371 -26.651  1.00  0.00    -0.017 N
ATOM     26  H42 UNL     1     -13.390  24.697 -26.472  1.00  0.00     0.283 HD
ATOM     27  H41 UNL     1     -13.211  26.217 -26.710  1.00  0.00     0.283 HD
BRANCH  25  28
HETATM   28  C11 UNL     1     -11.970  25.095 -27.904  1.00  0.00     0.380 C
HETATM   29  S1  UNL     1     -12.399  23.464 -28.566  1.00  0.00    -0.042 SA
BRANCH  28  30
HETATM   30  N5  UNL     1     -12.364  26.090 -28.860  1.00  0.00    -0.058 NA
BRANCH  30  31
HETATM   31  O5  UNL     1     -12.014  27.332 -28.520  1.00  0.00    -0.293 OA
ATOM     32  H5  UNL     1     -11.202  27.624 -28.917  1.00  0.00     0.238 HD
ENDBRANCH  30  31
ENDBRANCH  28  30
ENDBRANCH  25  28
ENDBRANCH  22  25
ENDBRANCH  17  22
ENDBRANCH   1  17
TORSDOF 13
ENDMDL