MODEL 4
REMARK VINA RESULT: -7.062651254      2.363      3.852
REMARK  11 active torsions:
REMARK  status: ('A' for Active; 'I' for Inactive)
REMARK    1  A    between atoms: C4_9  and  N3_10
REMARK    2  A    between atoms: N3_10  and  C5_12
REMARK    3  A    between atoms: C5_12  and  O1_13
REMARK    4  A    between atoms: C5_12  and  C6_15
REMARK    5  A    between atoms: C8_19  and  C9_20
REMARK    6  A    between atoms: C9_20  and  C10_21
REMARK    7  A    between atoms: C9_20  and  N6_26
REMARK    8  A    between atoms: C10_21  and  N5_22
REMARK    9  A    between atoms: N6_26  and  C11_28
REMARK   10  A    between atoms: C11_28  and  C12_29
REMARK   11  A    between atoms: C12_29  and  N7_30
ROOT
HETATM    1  C6  UNL     1     -11.860  26.828 -25.492  1.00  0.00     0.089 A
HETATM    2  C7  UNL     1     -11.259  25.590 -25.476  1.00  0.00     0.120 A
HETATM    3  N4  UNL     1      -9.945  25.507 -25.122  1.00  0.00    -0.348 N
ATOM      4  H4  UNL     1      -9.488  24.595 -25.105  1.00  0.00     0.167 HD
HETATM    5  C8  UNL     1      -9.245  26.593 -24.797  1.00  0.00     0.144 A
HETATM    6  N8  UNL     1      -9.848  27.776 -24.821  1.00  0.00    -0.283 N
ATOM      7  H8  UNL     1      -9.316  28.609 -24.573  1.00  0.00     0.188 HD
HETATM    8  N9  UNL     1     -11.140  27.905 -25.164  1.00  0.00    -0.297 N
ATOM      9  H9  UNL     1     -11.573  28.829 -25.173  1.00  0.00     0.187 HD
ENDROOT
BRANCH   1  10
HETATM   10  C5  UNL     1     -13.293  26.897 -25.879  1.00  0.00     0.272 C
BRANCH  10  11
HETATM   11  N3  UNL     1     -14.132  27.357 -24.796  1.00  0.00    -0.355 N
ATOM     12  H3  UNL     1     -14.414  28.336 -24.735  1.00  0.00     0.162 HD
BRANCH  11  13
HETATM   13  C4  UNL     1     -14.555  26.418 -23.817  1.00  0.00     0.090 A
HETATM   14  C3  UNL     1     -15.822  25.854 -23.912  1.00  0.00     0.128 A
HETATM   15  N1  UNL     1     -16.249  24.956 -23.004  1.00  0.00    -0.331 N
HETATM   16  N2  UNL     1     -16.558  26.242 -24.914  1.00  0.00    -0.384 N
HETATM   17  C2  UNL     1     -15.483  24.562 -21.974  1.00  0.00     0.078 A
ATOM     18  H1  UNL     1     -17.185  24.563 -23.103  1.00  0.00     0.168 HD
HETATM   19  C1  UNL     1     -16.000  23.556 -20.984  1.00  0.00     0.089 C
HETATM   20  N10 UNL     1     -14.260  25.093 -21.864  1.00  0.00    -0.354 N
HETATM   21  C13 UNL     1     -13.779  26.008 -22.757  1.00  0.00     0.122 A
ATOM     22  H10 UNL     1     -13.666  24.805 -21.086  1.00  0.00     0.166 HD
ATOM     23  H22 UNL     1     -17.488  25.829 -24.984  1.00  0.00     0.157 HD
ATOM     24  H21 UNL     1     -16.236  26.922 -25.601  1.00  0.00     0.157 HD
ENDBRANCH  11  13
ENDBRANCH  10  11
BRANCH  10  25
HETATM   25  O1  UNL     1     -13.788  25.709 -26.391  1.00  0.00    -0.371 OA
ATOM     26  H1  UNL     1     -13.395  25.531 -27.237  1.00  0.00     0.212 HD
ENDBRANCH  10  25
ENDBRANCH   1  10
BRANCH   5  27
HETATM   27  C9  UNL     1      -7.822  26.482 -24.415  1.00  0.00     0.080 C
BRANCH  27  28
HETATM   28  C10 UNL     1      -7.579  25.363 -23.450  1.00  0.00     0.290 C
BRANCH  28  29
HETATM   29  N5  UNL     1      -7.049  24.161 -24.004  1.00  0.00    -0.074 N
ATOM     30  H53 UNL     1      -6.883  24.285 -25.003  1.00  0.00     0.274 HD
ATOM     31  H52 UNL     1      -6.094  24.020 -23.675  1.00  0.00     0.274 HD
ATOM     32  H51 UNL     1      -7.598  23.316 -23.847  1.00  0.00     0.274 HD
ENDBRANCH  28  29
ENDBRANCH  27  28
BRANCH  27  33
HETATM   33  N6  UNL     1      -7.060  27.602 -24.280  1.00  0.00    -0.367 N
ATOM     34  H6  UNL     1      -7.109  28.023 -23.353  1.00  0.00     0.165 HD
BRANCH  33  35
HETATM   35  C11 UNL     1      -6.239  28.273 -25.148  1.00  0.00     0.088 C
BRANCH  35  36
HETATM   36  C12 UNL     1      -4.840  28.651 -24.799  1.00  0.00     0.274 C
BRANCH  36  37
HETATM   37  N7  UNL     1      -3.912  27.627 -25.367  1.00  0.00    -0.075 N
ATOM     38  H73 UNL     1      -4.107  26.688 -25.020  1.00  0.00     0.274 HD
ATOM     39  H72 UNL     1      -4.085  27.451 -26.357  1.00  0.00     0.274 HD
ATOM     40  H71 UNL     1      -2.952  27.920 -25.185  1.00  0.00     0.274 HD
ENDBRANCH  36  37
ENDBRANCH  35  36
ENDBRANCH  33  35
ENDBRANCH  27  33
ENDBRANCH   5  27
TORSDOF 11
ENDMDL