MODEL 3
REMARK VINA RESULT: -6.493208035      0.123      1.558
REMARK  12 active torsions:
REMARK  status: ('A' for Active; 'I' for Inactive)
REMARK    1  A    between atoms: S1_2  and  C2_3
REMARK    2  A    between atoms: C2_3  and  C3_4
REMARK    3  A    between atoms: C3_4  and  N1_5
REMARK    4  A    between atoms: C4_6  and  N2_7
REMARK    5  A    between atoms: N2_7  and  C5_9
REMARK    6  A    between atoms: C5_9  and  C6_10
REMARK    7  A    between atoms: C6_10  and  N3_11
REMARK    8  A    between atoms: N3_11  and  N4_13
REMARK    9  A    between atoms: C7_14  and  N5_15
REMARK   10  A    between atoms: C10_29  and  C11_30
REMARK   11  A    between atoms: C11_30  and  N10_31
REMARK   12  A    between atoms: C11_30  and  O1_35
ROOT
HETATM    1  N2  UNL     1     -10.479  25.138 -23.819  1.00  0.00    -0.373 N
ATOM      2  H2  UNL     1     -10.153  24.173 -23.878  1.00  0.00     0.161 HD
ENDROOT
BRANCH   1   3
HETATM    3  C4  UNL     1     -11.645  25.454 -24.514  1.00  0.00     0.120 A
HETATM    4  N1  UNL     1     -12.795  25.922 -23.942  1.00  0.00    -0.318 N
HETATM    5  C10 UNL     1     -13.702  26.093 -24.908  1.00  0.00     0.142 A
HETATM    6  N9  UNL     1     -13.120  25.734 -26.071  1.00  0.00    -0.348 N
HETATM    7  C9  UNL     1     -11.856  25.336 -25.860  1.00  0.00     0.138 A
ATOM      8  H9  UNL     1     -13.577  25.761 -26.982  1.00  0.00     0.166 HD
BRANCH   4   9
HETATM    9  C3  UNL     1     -12.985  26.166 -22.551  1.00  0.00     0.142 C
BRANCH   9  10
HETATM   10  C2  UNL     1     -13.420  24.943 -21.781  1.00  0.00     0.093 C
BRANCH  10  11
HETATM   11  S1  UNL     1     -15.112  25.252 -21.200  1.00  0.00    -0.172 SA
HETATM   12  C1  UNL     1     -16.302  24.245 -22.148  1.00  0.00     0.089 C
ENDBRANCH  10  11
ENDBRANCH   9  10
ENDBRANCH   4   9
BRANCH   5  13
HETATM   13  C11 UNL     1     -15.109  26.582 -24.850  1.00  0.00     0.385 C
BRANCH  13  14
HETATM   14  N10 UNL     1     -15.288  27.924 -25.298  1.00  0.00    -0.046 N
ATOM     15 3H10 UNL     1     -15.157  28.577 -24.525  1.00  0.00     0.277 HD
ATOM     16 2H10 UNL     1     -14.512  28.205 -25.897  1.00  0.00     0.277 HD
ATOM     17 1H10 UNL     1     -16.178  28.100 -25.764  1.00  0.00     0.277 HD
ENDBRANCH  13  14
BRANCH  13  18
HETATM   18  O1  UNL     1     -15.975  25.744 -25.529  1.00  0.00    -0.364 OA
ATOM     19  H1  UNL     1     -15.999  25.938 -26.459  1.00  0.00     0.212 HD
ENDBRANCH  13  18
ENDBRANCH   5  13
ENDBRANCH   1   3
BRANCH   1  20
HETATM   20  C5  UNL     1      -9.689  26.048 -23.025  1.00  0.00     0.142 C
BRANCH  20  21
HETATM   21  C6  UNL     1      -9.352  27.340 -23.726  1.00  0.00     0.161 C
BRANCH  21  22
HETATM   22  N3  UNL     1      -8.376  27.080 -24.744  1.00  0.00    -0.299 N
ATOM     23  H3  UNL     1      -8.736  27.062 -25.698  1.00  0.00     0.181 HD
BRANCH  22  24
HETATM   24  N4  UNL     1      -7.022  26.851 -24.622  1.00  0.00     0.087 N
HETATM   25  C7  UNL     1      -6.069  27.824 -24.703  1.00  0.00     0.727 A
HETATM   26  N6  UNL     1      -4.863  27.280 -24.506  1.00  0.00    -0.116 N
HETATM   27  N7  UNL     1      -5.021  25.999 -24.303  1.00  0.00    -0.116 N
ATOM     28  H6  UNL     1      -3.974  27.779 -24.512  1.00  0.00     0.206 HD
HETATM   29  C8  UNL     1      -6.379  25.716 -24.374  1.00  0.00     0.727 A
ATOM     30  H7  UNL     1      -4.276  25.325 -24.125  1.00  0.00     0.206 HD
HETATM   31  N8  UNL     1      -6.753  24.520 -24.183  1.00  0.00    -0.231 N
ATOM     32  H82 UNL     1      -7.750  24.313 -24.235  1.00  0.00     0.174 HD
ATOM     33  H81 UNL     1      -6.259  23.648 -23.992  1.00  0.00     0.174 HD
BRANCH  25  34
HETATM   34  N5  UNL     1      -6.276  29.069 -24.933  1.00  0.00    -0.231 N
ATOM     35  H52 UNL     1      -7.051  29.607 -24.546  1.00  0.00     0.174 HD
ATOM     36  H51 UNL     1      -5.704  29.675 -25.521  1.00  0.00     0.174 HD
ENDBRANCH  25  34
ENDBRANCH  22  24
ENDBRANCH  21  22
ENDBRANCH  20  21
ENDBRANCH   1  20
TORSDOF 12
ENDMDL