MODEL 4
REMARK VINA RESULT: -7.346454001      3.008      4.522
REMARK  10 active torsions:
REMARK  status: ('A' for Active; 'I' for Inactive)
REMARK    1  A    between atoms: N1_1  and  C1_4
REMARK    2  A    between atoms: C2_9  and  C3_10
REMARK    3  A    between atoms: C3_10  and  N4_11
REMARK    4  A    between atoms: N4_11  and  C4_13
REMARK    5  A    between atoms: N5_15  and  C6_16
REMARK    6  A    between atoms: C6_16  and  C7_17
REMARK    7  A    between atoms: C7_17  and  N6_18
REMARK    8  A    between atoms: N6_18  and  C8_20
REMARK    9  A    between atoms: C11_31  and  N11_32
REMARK   10  A    between atoms: N11_32  and  C12_34
ROOT
HETATM    1  C4  UNL     1      -9.772  25.534 -24.744  1.00  0.00     0.138 A
HETATM    2  C5  UNL     1     -10.697  25.858 -23.771  1.00  0.00     0.161 A
HETATM    3  N5  UNL     1     -11.919  25.854 -24.220  1.00  0.00    -0.281 N
HETATM    4  N9  UNL     1     -11.808  25.520 -25.521  1.00  0.00    -0.239 N
ATOM      5  H9  UNL     1     -12.599  25.427 -26.158  1.00  0.00     0.208 HD
HETATM    6  N10 UNL     1     -10.568  25.330 -25.864  1.00  0.00    -0.270 N
ATOM      7  H10 UNL     1     -10.236  25.076 -26.794  1.00  0.00     0.190 HD
ENDROOT
BRANCH   1   8
HETATM    8  N4  UNL     1      -8.394  25.221 -24.719  1.00  0.00    -0.348 N
ATOM      9  H4  UNL     1      -8.029  24.530 -25.374  1.00  0.00     0.167 HD
BRANCH   8  10
HETATM   10  C3  UNL     1      -7.515  25.841 -23.811  1.00  0.00     0.123 C
BRANCH  10  11
HETATM   11  C2  UNL     1      -6.353  26.565 -24.378  1.00  0.00     0.094 A
HETATM   12  N3  UNL     1      -5.061  26.197 -24.214  1.00  0.00    -0.295 N
HETATM   13  N2  UNL     1      -4.266  27.194 -24.638  1.00  0.00    -0.283 N
ATOM     14  H3  UNL     1      -4.742  25.308 -23.831  1.00  0.00     0.187 HD
HETATM   15  C1  UNL     1      -5.028  28.226 -25.076  1.00  0.00     0.143 A
ATOM     16  H2  UNL     1      -3.247  27.177 -24.631  1.00  0.00     0.188 HD
HETATM   17  C11 UNL     1      -6.322  27.831 -24.921  1.00  0.00     0.108 A
BRANCH  15  18
HETATM   18  N1  UNL     1      -4.622  29.360 -25.552  1.00  0.00    -0.383 N
ATOM     19  H12 UNL     1      -4.205  30.125 -25.021  1.00  0.00     0.157 HD
ATOM     20  H11 UNL     1      -4.654  29.674 -26.522  1.00  0.00     0.157 HD
ENDBRANCH  15  18
BRANCH  17  21
HETATM   21  N11 UNL     1      -7.523  28.421 -25.365  1.00  0.00    -0.349 N
ATOM     22  H11 UNL     1      -7.814  28.103 -26.289  1.00  0.00     0.166 HD
BRANCH  21  23
HETATM   23  C12 UNL     1      -8.390  29.348 -24.801  1.00  0.00     0.190 C
HETATM   24  N12 UNL     1      -8.742  30.515 -25.625  1.00  0.00    -0.097 NA
ENDBRANCH  21  23
ENDBRANCH  17  21
ENDBRANCH  10  11
ENDBRANCH   8  10
ENDBRANCH   1   8
BRANCH   3  25
HETATM   25  C6  UNL     1     -13.169  26.231 -23.543  1.00  0.00     0.194 C
BRANCH  25  26
HETATM   26  C7  UNL     1     -13.281  25.825 -22.136  1.00  0.00     0.085 C
BRANCH  26  27
HETATM   27  N6  UNL     1     -13.836  24.604 -21.722  1.00  0.00    -0.341 N
ATOM     28  H6  UNL     1     -13.228  23.786 -21.753  1.00  0.00     0.168 HD
BRANCH  27  29
HETATM   29  C8  UNL     1     -15.165  24.402 -21.265  1.00  0.00     0.174 C
HETATM   30  N7  UNL     1     -16.239  24.520 -22.021  1.00  0.00    -0.361 N
HETATM   31  C9  UNL     1     -17.442  24.258 -21.268  1.00  0.00     0.142 C
ATOM     32  H7  UNL     1     -16.221  24.765 -23.011  1.00  0.00     0.162 HD
HETATM   33  C10 UNL     1     -17.004  24.260 -19.824  1.00  0.00     0.142 C
HETATM   34  N8  UNL     1     -15.590  24.076 -19.953  1.00  0.00    -0.361 N
ATOM     35  H8  UNL     1     -14.975  23.754 -19.205  1.00  0.00     0.162 HD
ENDBRANCH  27  29
ENDBRANCH  26  27
ENDBRANCH  25  26
ENDBRANCH   3  25
TORSDOF 10
ENDMDL