MODEL 2
REMARK VINA RESULT: -6.857248236      1.733      2.285
REMARK  12 active torsions:
REMARK  status: ('A' for Active; 'I' for Inactive)
REMARK    1  A    between atoms: N1_2  and  C2_4
REMARK    2  A    between atoms: C2_4  and  C3_5
REMARK    3  A    between atoms: C3_5  and  N2_6
REMARK    4  A    between atoms: C4_12  and  S1_13
REMARK    5  A    between atoms: S1_13  and  C5_14
REMARK    6  A    between atoms: C5_14  and  C6_15
REMARK    7  A    between atoms: C6_15  and  N6_16
REMARK    8  A    between atoms: N6_16  and  C7_18
REMARK    9  A    between atoms: C8_21  and  N8_22
REMARK   10  A    between atoms: C9_27  and  N10_28
REMARK   11  A    between atoms: C10_31  and  C11_32
REMARK   12  A    between atoms: C11_32  and  N11_33
ROOT
HETATM    1  C7  UNL     1      -7.575  27.693 -24.531  1.00  0.00     0.132 A
HETATM    2  N7  UNL     1      -6.318  28.077 -24.784  1.00  0.00    -0.176 N
ATOM      3  H7  UNL     1      -6.109  29.052 -24.999  1.00  0.00     0.186 HD
HETATM    4  C8  UNL     1      -5.313  27.142 -24.752  1.00  0.00     0.679 A
HETATM    5  N9  UNL     1      -5.509  25.859 -24.476  1.00  0.00    -0.177 N
ATOM      6  H9  UNL     1      -4.719  25.214 -24.463  1.00  0.00     0.186 HD
HETATM    7  C9  UNL     1      -6.766  25.403 -24.209  1.00  0.00     0.126 A
HETATM    8  C10 UNL     1      -7.761  26.303 -24.239  1.00  0.00     0.056 A
ENDROOT
BRANCH   1   9
HETATM    9  N6  UNL     1      -8.726  28.447 -24.760  1.00  0.00    -0.354 N
ATOM     10  H6  UNL     1      -9.531  27.853 -24.561  1.00  0.00     0.166 HD
BRANCH   9  11
HETATM   11  C6  UNL     1      -9.197  29.669 -25.148  1.00  0.00     0.073 C
BRANCH  11  12
HETATM   12  C5  UNL     1     -10.392  30.362 -24.564  1.00  0.00     0.127 C
BRANCH  12  13
HETATM   13  S1  UNL     1     -11.839  30.024 -25.551  1.00  0.00    -0.086 SA
BRANCH  13  14
HETATM   14  C4  UNL     1     -12.071  28.393 -26.171  1.00  0.00     0.175 A
HETATM   15  N2  UNL     1     -12.489  27.307 -25.482  1.00  0.00    -0.251 N
HETATM   16  N3  UNL     1     -12.442  26.218 -26.262  1.00  0.00    -0.002 NA
HETATM   17  N4  UNL     1     -11.991  26.626 -27.488  1.00  0.00    -0.224 N
HETATM   18  N5  UNL     1     -11.777  27.915 -27.416  1.00  0.00    -0.266 N
ATOM     19  H4  UNL     1     -11.848  26.035 -28.307  1.00  0.00     0.205 HD
ATOM     20  H5  UNL     1     -11.437  28.488 -28.188  1.00  0.00     0.190 HD
BRANCH  15  21
HETATM   21  C3  UNL     1     -13.006  27.396 -24.172  1.00  0.00     0.168 C
BRANCH  21  22
HETATM   22  C2  UNL     1     -13.697  26.116 -23.698  1.00  0.00     0.139 C
BRANCH  22  23
HETATM   23  N1  UNL     1     -14.850  26.065 -24.635  1.00  0.00    -0.406 N
HETATM   24  C1  UNL     1     -15.916  25.711 -24.034  1.00  0.00     0.112 C
ATOM     25  H1  UNL     1     -14.794  26.284 -25.630  1.00  0.00     0.158 HD
ENDBRANCH  22  23
ENDBRANCH  21  22
ENDBRANCH  15  21
ENDBRANCH  13  14
ENDBRANCH  12  13
ENDBRANCH  11  12
ENDBRANCH   9  11
ENDBRANCH   1   9
BRANCH   8  26
HETATM   26  C11 UNL     1      -9.129  26.045 -23.698  1.00  0.00     0.275 C
BRANCH  26  27
HETATM   27  N11 UNL     1      -9.889  25.226 -24.644  1.00  0.00    -0.075 N
ATOM     28 3H11 UNL     1     -10.894  25.291 -24.485  1.00  0.00     0.274 HD
ATOM     29 2H11 UNL     1      -9.863  25.608 -25.589  1.00  0.00     0.274 HD
ATOM     30 1H11 UNL     1      -9.557  24.262 -24.610  1.00  0.00     0.274 HD
ENDBRANCH  26  27
ENDBRANCH   8  26
BRANCH   4  31
HETATM   31  N8  UNL     1      -4.153  27.537 -25.058  1.00  0.00    -0.234 N
ATOM     32  H82 UNL     1      -4.002  28.522 -25.274  1.00  0.00     0.174 HD
ATOM     33  H81 UNL     1      -3.406  26.842 -25.032  1.00  0.00     0.174 HD
ENDBRANCH   4  31
BRANCH   7  34
HETATM   34  N10 UNL     1      -6.892  24.179 -23.870  1.00  0.00    -0.384 N
ATOM     35 2H10 UNL     1      -6.229  23.658 -23.297  1.00  0.00     0.157 HD
ATOM     36 1H10 UNL     1      -7.680  23.661 -24.257  1.00  0.00     0.157 HD
ENDBRANCH   7  34
TORSDOF 12
ENDMDL