MODEL 3
REMARK VINA RESULT: -5.779756810      2.149      4.044
REMARK  15 active torsions:
REMARK  status: ('A' for Active; 'I' for Inactive)
REMARK    1  A    between atoms: C2_2  and  N1_3
REMARK    2  A    between atoms: C2_2  and  C3_7
REMARK    3  A    between atoms: C3_7  and  S1_8
REMARK    4  A    between atoms: S1_8  and  C4_9
REMARK    5  A    between atoms: C4_9  and  C5_10
REMARK    6  A    between atoms: C5_10  and  N2_11
REMARK    7  A    between atoms: C5_10  and  C12_30
REMARK    8  A    between atoms: N2_11  and  C6_13
REMARK    9  A    between atoms: C9_17  and  N4_18
REMARK   10  A    between atoms: N4_18  and  C10_20
REMARK   11  A    between atoms: C10_20  and  C11_21
REMARK   12  A    between atoms: C11_21  and  N5_22
REMARK   13  A    between atoms: N6_26  and  N7_27
REMARK   14  A    between atoms: C12_30  and  N8_31
REMARK   15  A    between atoms: C12_30  and  O1_35
ROOT
HETATM    1  N2  UNL     1     -11.276  27.329 -23.555  1.00  0.00    -0.364 N
ATOM      2  H2  UNL     1     -11.501  28.059 -22.880  1.00  0.00     0.161 HD
ENDROOT
BRANCH   1   3
HETATM    3  C5  UNL     1     -12.373  26.712 -24.259  1.00  0.00     0.148 C
BRANCH   3   4
HETATM    4  C4  UNL     1     -13.122  25.672 -23.515  1.00  0.00     0.103 C
BRANCH   4   5
HETATM    5  S1  UNL     1     -14.744  26.075 -22.919  1.00  0.00    -0.165 SA
BRANCH   5   6
HETATM    6  C3  UNL     1     -15.705  24.726 -22.260  1.00  0.00     0.106 C
BRANCH   6   7
HETATM    7  C2  UNL     1     -15.210  24.040 -21.048  1.00  0.00     0.188 C
HETATM    8  C1  UNL     1     -14.881  25.197 -20.046  1.00  0.00     0.040 C
BRANCH   7   9
HETATM    9  N1  UNL     1     -16.261  23.321 -20.332  1.00  0.00    -0.075 N
ATOM     10  H13 UNL     1     -16.878  22.757 -20.916  1.00  0.00     0.274 HD
ATOM     11  H12 UNL     1     -15.939  22.541 -19.757  1.00  0.00     0.274 HD
ATOM     12  H11 UNL     1     -16.717  24.077 -19.822  1.00  0.00     0.274 HD
ENDBRANCH   7   9
ENDBRANCH   6   7
ENDBRANCH   5   6
ENDBRANCH   4   5
ENDBRANCH   3   4
BRANCH   3  13
HETATM   13  C12 UNL     1     -11.996  26.402 -25.685  1.00  0.00     0.339 C
BRANCH  13  14
HETATM   14  N8  UNL     1     -13.151  25.696 -26.249  1.00  0.00    -0.051 N
ATOM     15  H83 UNL     1     -13.085  24.681 -26.182  1.00  0.00     0.277 HD
ATOM     16  H82 UNL     1     -14.003  25.798 -25.699  1.00  0.00     0.277 HD
ATOM     17  H81 UNL     1     -13.238  26.038 -27.206  1.00  0.00     0.277 HD
ENDBRANCH  13  14
BRANCH  13  18
HETATM   18  O1  UNL     1     -11.790  27.513 -26.474  1.00  0.00    -0.368 OA
ATOM     19  H1  UNL     1     -12.075  27.413 -27.374  1.00  0.00     0.212 HD
ENDBRANCH  13  18
ENDBRANCH   3  13
ENDBRANCH   1   3
BRANCH   1  20
HETATM   20  C6  UNL     1      -9.902  26.995 -23.731  1.00  0.00     0.157 A
HETATM   21  C7  UNL     1      -9.183  25.927 -23.288  1.00  0.00     0.159 A
HETATM   22  N3  UNL     1      -7.873  26.003 -23.662  1.00  0.00    -0.192 N
HETATM   23  C8  UNL     1      -6.906  24.942 -23.364  1.00  0.00     0.175 C
HETATM   24  C9  UNL     1      -7.760  27.142 -24.352  1.00  0.00     0.702 A
HETATM   25  N6  UNL     1      -9.005  27.749 -24.397  1.00  0.00    -0.075 N
BRANCH  24  26
HETATM   26  N4  UNL     1      -6.611  27.760 -24.879  1.00  0.00    -0.223 N
ATOM     27  H4  UNL     1      -6.378  27.485 -25.834  1.00  0.00     0.177 HD
BRANCH  26  28
HETATM   28  C10 UNL     1      -5.726  28.700 -24.301  1.00  0.00     0.165 C
BRANCH  28  29
HETATM   29  C11 UNL     1      -4.429  28.853 -25.096  1.00  0.00     0.249 C
BRANCH  29  30
HETATM   30  N5  UNL     1      -3.870  27.543 -25.372  1.00  0.00    -0.078 N
ATOM     31  H53 UNL     1      -3.508  27.093 -24.531  1.00  0.00     0.274 HD
ATOM     32  H52 UNL     1      -4.590  26.859 -25.606  1.00  0.00     0.274 HD
ATOM     33  H51 UNL     1      -3.161  27.620 -26.102  1.00  0.00     0.274 HD
ENDBRANCH  29  30
ENDBRANCH  28  29
ENDBRANCH  26  28
ENDBRANCH  24  26
BRANCH  25  34
HETATM   34  N7  UNL     1      -9.284  28.958 -25.029  1.00  0.00    -0.322 N
ATOM     35  H72 UNL     1     -10.216  29.291 -25.273  1.00  0.00     0.178 HD
ATOM     36  H71 UNL     1      -8.587  29.643 -25.322  1.00  0.00     0.178 HD
ENDBRANCH  25  34
ENDBRANCH   1  20
TORSDOF 15
ENDMDL