MODEL 2
REMARK VINA RESULT: -7.334349688      1.586      1.694
REMARK  6 active torsions:
REMARK  status: ('A' for Active; 'I' for Inactive)
REMARK    1  A    between atoms: C2_3  and  C3_4
REMARK    2  A    between atoms: C2_3  and  C4_6
REMARK       I    between atoms: C4_6  and  N2_8
REMARK    3  A    between atoms: N2_8  and  C5_10
REMARK    4  A    between atoms: C5_10  and  C6_11
REMARK    5  A    between atoms: C6_11  and  N3_12
REMARK       I    between atoms: N3_12  and  C7_14
REMARK       I    between atoms: C7_14  and  N4_16
REMARK    6  A    between atoms: N4_16  and  C8_18
ROOT
HETATM    1  N1  UNL     1      15.133   1.677  17.237  1.00  0.00    -0.196 NA
HETATM    2  C1  UNL     1      15.699   2.469  16.617  1.00  0.00     0.074 C
HETATM    3  C2  UNL     1      16.389   3.460  15.825  1.00  0.00     0.198 C
ENDROOT
BRANCH   3   4
HETATM    4  C3  UNL     1      15.506   4.642  15.496  1.00  0.00     0.143 C
HETATM    5 CL1  UNL     1      14.345   4.874  16.823  1.00  0.00    -0.129 Cl
ENDBRANCH   3   4
BRANCH   3   6
HETATM    6  C4  UNL     1      16.859   2.888  14.518  1.00  0.00     0.236 C
HETATM    7  O1  UNL     1      16.587   1.702  14.279  1.00  0.00    -0.272 OA
HETATM    8  N2  UNL     1      17.574   3.701  13.634  1.00  0.00    -0.358 N
ATOM      9  H2  UNL     1      17.757   4.670  13.893  1.00  0.00     0.162 HD
BRANCH   8  10
HETATM   10  C5  UNL     1      18.059   3.214  12.372  1.00  0.00     0.142 C
BRANCH  10  11
HETATM   11  C6  UNL     1      18.443   4.343  11.480  1.00  0.00     0.144 C
BRANCH  11  12
HETATM   12  N3  UNL     1      17.916   5.583  11.949  1.00  0.00    -0.342 N
HETATM   13  C7  UNL     1      17.275   6.505  11.083  1.00  0.00     0.316 C
HETATM   14  O2  UNL     1      17.185   6.227   9.869  1.00  0.00    -0.247 OA
HETATM   15  N4  UNL     1      16.752   7.723  11.625  1.00  0.00    -0.334 N
ATOM     16  H4  UNL     1      16.856   7.890  12.626  1.00  0.00     0.165 HD
ATOM     17  H3  UNL     1      18.003   5.814  12.938  1.00  0.00     0.164 HD
BRANCH  15  18
HETATM   18  C8  UNL     1      16.093   8.715  10.841  1.00  0.00     0.037 C
HETATM   19  C9  UNL     1      16.984   9.875  10.487  1.00  0.00     0.035 C
HETATM   20  C10 UNL     1      16.239  10.872   9.629  1.00  0.00    -0.010 C
HETATM   21  C11 UNL     1      15.129  11.446  10.501  1.00  0.00     0.009 C
HETATM   22  C15 UNL     1      15.623  10.275   8.407  1.00  0.00     0.030 C
HETATM   23  C12 UNL     1      14.202  10.328  10.897  1.00  0.00    -0.010 C
HETATM   24  C13 UNL     1      13.595   9.710   9.656  1.00  0.00     0.030 C
HETATM   25  C17 UNL     1      14.897   9.216  11.639  1.00  0.00     0.035 C
HETATM   26  C14 UNL     1      14.691   9.132   8.823  1.00  0.00     0.040 C
HETATM   27 CL2  UNL     1      13.972   8.381   7.393  1.00  0.00    -0.119 Cl
HETATM   28  C16 UNL     1      15.558   8.131   9.546  1.00  0.00     0.056 C
ENDBRANCH  15  18
ENDBRANCH  11  12
ENDBRANCH  10  11
ENDBRANCH   8  10
ENDBRANCH   3   6
TORSDOF 6
ENDMDL