MODEL 3
REMARK VINA RESULT: -7.148272312      2.560      5.665
REMARK  8 active torsions:
REMARK  status: ('A' for Active; 'I' for Inactive)
REMARK    1  A    between atoms: N1_2  and  C2_4
REMARK    2  A    between atoms: C2_4  and  C3_5
REMARK    3  A    between atoms: C3_5  and  C4_6
REMARK    4  A    between atoms: C3_5  and  C11_13
REMARK    5  A    between atoms: C4_6  and  C5_7
REMARK       I    between atoms: C11_13  and  N2_15
REMARK    6  A    between atoms: N2_15  and  C12_17
REMARK    7  A    between atoms: C12_17  and  C14_19
REMARK       I    between atoms: C14_19  and  N3_21
REMARK    8  A    between atoms: C18_25  and  N4_26
ROOT
HETATM    1  C11 UNL     1      17.962   6.592  12.786  1.00  0.00     0.227 C
HETATM    2  O1  UNL     1      17.046   6.809  11.976  1.00  0.00    -0.273 OA
HETATM    3  N2  UNL     1      19.031   5.807  12.315  1.00  0.00    -0.348 N
ATOM      4  H2  UNL     1      19.806   5.605  12.947  1.00  0.00     0.163 HD
ENDROOT
BRANCH   3   5
HETATM    5  C12 UNL     1      19.076   5.269  10.958  1.00  0.00     0.172 C
HETATM    6  C13 UNL     1      20.060   6.071  10.119  1.00  0.00     0.042 C
BRANCH   5   7
HETATM    7  C14 UNL     1      19.536   3.865  10.987  1.00  0.00     0.242 C
HETATM    8  O2  UNL     1      20.609   3.598  10.350  1.00  0.00    -0.271 OA
HETATM    9  N3  UNL     1      18.892   2.806  11.656  1.00  0.00    -0.348 N
HETATM   10  C15 UNL     1      17.691   2.939  12.437  1.00  0.00     0.126 C
HETATM   11  C19 UNL     1      19.431   1.435  11.588  1.00  0.00     0.158 C
HETATM   12  C16 UNL     1      16.596   2.146  11.763  1.00  0.00     0.022 C
HETATM   13  C17 UNL     1      17.028   0.699  11.671  1.00  0.00     0.036 C
HETATM   14  C18 UNL     1      18.369   0.513  11.025  1.00  0.00     0.201 C
BRANCH  14  15
HETATM   15  N4  UNL     1      18.789  -0.852  11.281  1.00  0.00    -0.073 N
ATOM     16  H43 UNL     1      18.169  -1.346  11.923  1.00  0.00     0.274 HD
ATOM     17  H42 UNL     1      18.662  -1.465  10.475  1.00  0.00     0.274 HD
ATOM     18  H41 UNL     1      19.755  -0.819  11.607  1.00  0.00     0.274 HD
ENDBRANCH  14  15
ENDBRANCH   5   7
ENDBRANCH   3   5
BRANCH   1  19
HETATM   19  C3  UNL     1      17.955   7.107  14.151  1.00  0.00     0.116 C
BRANCH  19  20
HETATM   20  C2  UNL     1      18.172   8.585  14.244  1.00  0.00     0.069 C
BRANCH  20  21
HETATM   21  N1  UNL     1      19.404   9.129  14.536  1.00  0.00    -0.406 N
HETATM   22  C1  UNL     1      19.569  10.298  15.292  1.00  0.00     0.145 C
ATOM     23  H1  UNL     1      20.238   8.658  14.185  1.00  0.00     0.158 HD
ENDBRANCH  20  21
ENDBRANCH  19  20
BRANCH  19  24
HETATM   24  C4  UNL     1      16.836   6.660  15.004  1.00  0.00     0.024 C
BRANCH  24  25
HETATM   25  C5  UNL     1      16.421   5.209  14.806  1.00  0.00    -0.013 C
HETATM   26  C6  UNL     1      14.958   5.135  15.114  1.00  0.00     0.005 C
HETATM   27  C7  UNL     1      14.541   4.691  16.446  1.00  0.00     0.000 C
HETATM   28  C8  UNL     1      15.560   4.023  17.305  1.00  0.00     0.000 C
HETATM   29  C9  UNL     1      16.467   3.246  16.360  1.00  0.00     0.000 C
HETATM   30  C10 UNL     1      17.282   4.345  15.663  1.00  0.00     0.005 C
ENDBRANCH  24  25
ENDBRANCH  19  24
ENDBRANCH   1  19
TORSDOF 8
ENDMDL