MODEL 5
REMARK VINA RESULT: -7.147959032      3.087      5.526
REMARK  8 active torsions:
REMARK  status: ('A' for Active; 'I' for Inactive)
REMARK    1  A    between atoms: O1_2  and  C2_3
REMARK    2  A    between atoms: C2_3  and  C3_4
REMARK    3  A    between atoms: C3_4  and  N1_5
REMARK    4  A    between atoms: C3_4  and  C17_25
REMARK    5  A    between atoms: N1_5  and  C4_7
REMARK    6  A    between atoms: C6_11  and  C7_12
REMARK    7  A    between atoms: C17_25  and  C20_28
REMARK    8  A    between atoms: C20_28  and  O2_29
ROOT
HETATM    1  C4  UNL     1      18.001   5.022  13.221  1.00  0.00     0.108 A
HETATM    2  N2  UNL     1      19.172   5.659  12.899  1.00  0.00    -0.352 N
ATOM      3  H2  UNL     1      19.951   5.100  12.551  1.00  0.00     0.166 HD
HETATM    4  C5  UNL     1      19.340   6.975  13.018  1.00  0.00     0.097 A
HETATM    5  C6  UNL     1      18.335   7.816  13.483  1.00  0.00    -0.029 A
HETATM    6  C12 UNL     1      17.142   7.219  13.817  1.00  0.00    -0.040 A
HETATM    7  C13 UNL     1      16.986   5.829  13.684  1.00  0.00    -0.007 A
HETATM    8  C14 UNL     1      15.618   5.516  14.143  1.00  0.00     0.043 C
HETATM    9  C15 UNL     1      15.237   6.709  15.038  1.00  0.00     0.009 C
HETATM   10  C16 UNL     1      15.879   7.832  14.292  1.00  0.00     0.040 C
ENDROOT
BRANCH   1  11
HETATM   11  N1  UNL     1      17.969   3.807  13.055  1.00  0.00    -0.368 N
ATOM     12  H1  UNL     1      18.924   3.478  12.915  1.00  0.00     0.161 HD
BRANCH  11  13
HETATM   13  C3  UNL     1      17.120   2.715  12.987  1.00  0.00     0.116 C
BRANCH  13  14
HETATM   14  C2  UNL     1      17.203   1.739  14.124  1.00  0.00     0.193 C
BRANCH  14  15
HETATM   15  O1  UNL     1      16.231   2.047  15.087  1.00  0.00    -0.394 OA
HETATM   16  C1  UNL     1      16.909   2.721  16.121  1.00  0.00     0.201 C
ENDBRANCH  14  15
ENDBRANCH  13  14
BRANCH  13  17
HETATM   17  C17 UNL     1      17.284   2.062  11.644  1.00  0.00    -0.004 C
HETATM   18  C18 UNL     1      17.231   0.530  11.797  1.00  0.00     0.019 C
HETATM   19  C19 UNL     1      18.680   2.330  11.063  1.00  0.00     0.019 C
BRANCH  17  20
HETATM   20  C20 UNL     1      16.304   2.403  10.594  1.00  0.00     0.175 C
BRANCH  20  21
HETATM   21  O2  UNL     1      15.506   3.452  10.946  1.00  0.00    -0.400 OA
ATOM     22  H2  UNL     1      14.842   3.205  11.578  1.00  0.00     0.209 HD
ENDBRANCH  20  21
ENDBRANCH  17  20
ENDBRANCH  13  17
ENDBRANCH  11  13
ENDBRANCH   1  11
BRANCH   5  23
HETATM   23  C7  UNL     1      18.535   9.265  13.636  1.00  0.00     0.058 C
HETATM   24  C8  UNL     1      18.992   9.916  12.338  1.00  0.00     0.031 C
HETATM   25  C9  UNL     1      18.885  11.410  12.585  1.00  0.00     0.114 C
HETATM   26  N3  UNL     1      19.620  11.879  13.709  1.00  0.00    -0.418 N
HETATM   27  C10 UNL     1      19.486  11.080  14.912  1.00  0.00     0.151 C
ATOM     28  H3  UNL     1      20.199  12.717  13.673  1.00  0.00     0.153 HD
HETATM   29  C11 UNL     1      19.657   9.606  14.624  1.00  0.00     0.196 C
HETATM   30  F1  UNL     1      20.867   9.432  13.959  1.00  0.00    -0.247 F
ENDBRANCH   5  23
TORSDOF 8
ENDMDL