MODEL 1
REMARK VINA RESULT: -7.548906129      0.000      0.000
REMARK  9 active torsions:
REMARK  status: ('A' for Active; 'I' for Inactive)
REMARK    1  A    between atoms: N1_2  and  C2_4
REMARK    2  A    between atoms: C3_7  and  N3_8
REMARK    3  A    between atoms: N3_8  and  C4_10
REMARK    4  A    between atoms: C4_10  and  C5_11
REMARK    5  A    between atoms: C5_11  and  O1_12
REMARK    6  A    between atoms: O1_12  and  C6_13
REMARK    7  A    between atoms: C6_13  and  C7_14
REMARK    8  A    between atoms: C9_17  and  N4_18
REMARK    9  A    between atoms: N4_18  and  C10_20
ROOT
HETATM    1  C2  UNL     1      20.146   4.803  10.448  1.00  0.00     0.679 A
HETATM    2  N2  UNL     1      19.844   5.455  11.593  1.00  0.00    -0.176 N
ATOM      3  H2  UNL     1      20.276   6.360  11.783  1.00  0.00     0.186 HD
HETATM    4  C3  UNL     1      18.990   4.938  12.483  1.00  0.00     0.133 A
HETATM    5  C8  UNL     1      18.420   3.703  12.194  1.00  0.00     0.079 A
HETATM    6  C9  UNL     1      17.534   3.141  13.093  1.00  0.00     0.117 A
HETATM    7  N5  UNL     1      16.988   1.947  12.807  1.00  0.00    -0.352 N
ATOM      8  H5  UNL     1      16.334   1.530  13.469  1.00  0.00     0.166 HD
HETATM    9  C16 UNL     1      17.285   1.280  11.656  1.00  0.00     0.092 A
HETATM   10  C17 UNL     1      18.158   1.813  10.752  1.00  0.00     0.048 A
HETATM   11  C18 UNL     1      18.741   3.055  11.024  1.00  0.00     0.068 A
HETATM   12  N6  UNL     1      19.601   3.610  10.160  1.00  0.00    -0.191 N
ATOM     13  H6  UNL     1      19.839   3.130   9.293  1.00  0.00     0.184 HD
ENDROOT
BRANCH   4  14
HETATM   14  N3  UNL     1      18.662   5.506  13.587  1.00  0.00    -0.373 N
ATOM     15  H3  UNL     1      18.127   4.977  14.276  1.00  0.00     0.161 HD
BRANCH  14  16
HETATM   16  C4  UNL     1      19.034   6.897  13.887  1.00  0.00     0.147 C
BRANCH  16  17
HETATM   17  C5  UNL     1      17.871   7.624  14.507  1.00  0.00     0.187 C
BRANCH  17  18
HETATM   18  O1  UNL     1      18.127   8.904  14.873  1.00  0.00    -0.387 OA
BRANCH  18  19
HETATM   19  C6  UNL     1      19.308   9.372  14.336  1.00  0.00     0.199 C
BRANCH  19  20
HETATM   20  C7  UNL     1      19.682  10.696  15.009  1.00  0.00     0.248 C
HETATM   21  F1  UNL     1      19.953  10.494  16.325  1.00  0.00    -0.253 F
ENDBRANCH  19  20
ENDBRANCH  18  19
ENDBRANCH  17  18
ENDBRANCH  16  17
ENDBRANCH  14  16
ENDBRANCH   4  14
BRANCH   1  22
HETATM   22  N1  UNL     1      20.981   5.333   9.601  1.00  0.00    -0.230 N
HETATM   23  C1  UNL     1      20.616   5.488   8.212  1.00  0.00     0.165 C
ATOM     24  H1  UNL     1      21.899   5.640   9.920  1.00  0.00     0.177 HD
ENDBRANCH   1  22
BRANCH   6  25
HETATM   25  N4  UNL     1      17.264   3.768  14.160  1.00  0.00    -0.371 N
ATOM     26  H4  UNL     1      17.897   4.524  14.422  1.00  0.00     0.161 HD
BRANCH  25  27
HETATM   27  C10 UNL     1      16.159   3.520  15.034  1.00  0.00     0.083 C
HETATM   28  C11 UNL     1      16.649   3.052  16.406  1.00  0.00     0.025 C
HETATM   29  C12 UNL     1      15.457   2.607  17.188  1.00  0.00     0.002 C
HETATM   30  C13 UNL     1      14.246   3.470  17.001  1.00  0.00     0.000 C
HETATM   31  C14 UNL     1      14.549   4.831  16.443  1.00  0.00     0.002 C
HETATM   32  C15 UNL     1      15.452   4.834  15.269  1.00  0.00     0.025 C
ENDBRANCH  25  27
ENDBRANCH   6  25
TORSDOF 9
ENDMDL