MODEL 2
REMARK VINA RESULT: -6.749385827      2.481      3.978
REMARK  8 active torsions:
REMARK  status: ('A' for Active; 'I' for Inactive)
REMARK    1  A    between atoms: N1_1  and  C1_4
REMARK    2  A    between atoms: C2_7  and  N3_8
REMARK    3  A    between atoms: N3_8  and  C3_10
REMARK    4  A    between atoms: C3_10  and  C4_11
REMARK    5  A    between atoms: C4_11  and  O1_12
REMARK    6  A    between atoms: O1_12  and  C5_13
REMARK    7  A    between atoms: C5_13  and  C6_14
REMARK    8  A    between atoms: C6_14  and  N4_15
ROOT
HETATM    1  N3  UNL     1      16.933   6.330  10.644  1.00  0.00    -0.224 N
ATOM      2  H3  UNL     1      16.747   6.630   9.687  1.00  0.00     0.177 HD
ENDROOT
BRANCH   1   3
HETATM    3  C2  UNL     1      17.242   5.114  10.846  1.00  0.00     0.679 A
HETATM    4  N2  UNL     1      18.455   4.646  11.102  1.00  0.00    -0.176 N
HETATM    5  C1  UNL     1      18.710   3.335  11.310  1.00  0.00     0.133 A
ATOM      6  H2  UNL     1      19.232   5.305  11.144  1.00  0.00     0.186 HD
HETATM    7  C15 UNL     1      17.658   2.451  11.253  1.00  0.00     0.070 A
HETATM    8  C14 UNL     1      16.378   2.920  10.986  1.00  0.00     0.129 A
HETATM    9 BR1  UNL     1      18.011   0.593  11.547  1.00  0.00    -0.046 Br
HETATM   10  N5  UNL     1      16.214   4.229  10.794  1.00  0.00    -0.201 N
ATOM     11  H5  UNL     1      15.277   4.581  10.598  1.00  0.00     0.183 HD
BRANCH   5  12
HETATM   12  N1  UNL     1      19.898   2.892  11.558  1.00  0.00    -0.384 N
ATOM     13  H12 UNL     1      20.152   1.948  11.269  1.00  0.00     0.157 HD
ATOM     14  H11 UNL     1      20.602   3.454  12.037  1.00  0.00     0.157 HD
ENDBRANCH   5  12
ENDBRANCH   1   3
BRANCH   1  15
HETATM   15  C3  UNL     1      16.835   7.294  11.691  1.00  0.00     0.164 C
BRANCH  15  16
HETATM   16  C4  UNL     1      18.133   8.033  11.960  1.00  0.00     0.188 C
BRANCH  16  17
HETATM   17  O1  UNL     1      18.924   7.364  12.885  1.00  0.00    -0.385 OA
BRANCH  17  18
HETATM   18  C5  UNL     1      18.283   7.178  14.102  1.00  0.00     0.212 C
BRANCH  18  19
HETATM   19  C6  UNL     1      18.446   5.789  14.663  1.00  0.00     0.094 C
BRANCH  19  20
HETATM   20  N4  UNL     1      17.202   5.136  14.701  1.00  0.00    -0.352 N
HETATM   21  C7  UNL     1      16.072   5.930  14.959  1.00  0.00     0.068 C
HETATM   22  C8  UNL     1      14.806   5.205  15.196  1.00  0.00     0.045 C
HETATM   23  C9  UNL     1      14.425   5.091  16.651  1.00  0.00     0.005 C
HETATM   24  C10 UNL     1      14.343   3.677  17.127  1.00  0.00     0.001 C
HETATM   25  C11 UNL     1      15.382   2.775  16.524  1.00  0.00     0.005 C
HETATM   26  C12 UNL     1      16.719   3.485  16.469  1.00  0.00     0.045 C
HETATM   27  C13 UNL     1      17.178   3.781  15.086  1.00  0.00     0.068 C
ENDBRANCH  19  20
ENDBRANCH  18  19
ENDBRANCH  17  18
ENDBRANCH  16  17
ENDBRANCH  15  16
ENDBRANCH   1  15
TORSDOF 8
ENDMDL