MODEL 2
REMARK VINA RESULT: -8.575427757      1.758      2.286
REMARK  7 active torsions:
REMARK  status: ('A' for Active; 'I' for Inactive)
REMARK    1  A    between atoms: C2_2  and  C4_4
REMARK    2  A    between atoms: C4_4  and  N1_5
REMARK    3  A    between atoms: C4_4  and  C18_27
REMARK       I    between atoms: N1_5  and  C5_7
REMARK    4  A    between atoms: C5_7  and  C6_9
REMARK       I    between atoms: N2_13  and  C10_14
REMARK    5  A    between atoms: C10_14  and  C11_16
REMARK    6  A    between atoms: C11_16  and  N3_17
REMARK    7  A    between atoms: C11_16  and  C12_21
ROOT
HETATM    1  C6  UNL     1      17.305   3.704  15.279  1.00  0.00     0.179 C
HETATM    2  C7  UNL     1      16.660   3.085  16.539  1.00  0.00     0.037 C
HETATM    3  C8  UNL     1      15.406   3.860  16.733  1.00  0.00     0.022 C
HETATM    4  C9  UNL     1      15.276   4.780  15.555  1.00  0.00     0.127 C
HETATM    5  N2  UNL     1      16.665   4.958  15.074  1.00  0.00    -0.337 N
HETATM    6  C10 UNL     1      17.127   6.156  14.530  1.00  0.00     0.251 C
HETATM    7  O2  UNL     1      16.283   7.133  14.546  1.00  0.00    -0.271 OA
ENDROOT
BRANCH   1   8
HETATM    8  C5  UNL     1      17.046   2.731  14.194  1.00  0.00     0.241 C
HETATM    9  N1  UNL     1      17.415   2.975  12.848  1.00  0.00    -0.344 N
ATOM     10  H1  UNL     1      17.877   3.853  12.613  1.00  0.00     0.163 HD
HETATM   11  O1  UNL     1      16.479   1.646  14.463  1.00  0.00    -0.271 OA
BRANCH   9  12
HETATM   12  C4  UNL     1      17.155   2.014  11.795  1.00  0.00     0.189 C
BRANCH  12  13
HETATM   13  C2  UNL     1      18.443   1.515  11.174  1.00  0.00     0.010 C
HETATM   14  C1  UNL     1      19.595   2.454  11.441  1.00  0.00     0.012 C
HETATM   15  C3  UNL     1      18.837   0.157  11.698  1.00  0.00     0.012 C
ENDBRANCH  12  13
BRANCH  12  16
HETATM   16  C18 UNL     1      16.250   2.564  10.762  1.00  0.00     0.197 C
HETATM   17  O3  UNL     1      16.279   2.137   9.581  1.00  0.00    -0.646 OA
HETATM   18  O4  UNL     1      15.359   3.556  11.085  1.00  0.00    -0.646 OA
ENDBRANCH  12  16
ENDBRANCH   9  12
ENDBRANCH   1   8
BRANCH   6  19
HETATM   19  C11 UNL     1      18.453   6.352  13.971  1.00  0.00     0.278 C
BRANCH  19  20
HETATM   20  N3  UNL     1      19.502   5.760  14.737  1.00  0.00    -0.066 N
ATOM     21  H33 UNL     1      20.321   6.369  14.752  1.00  0.00     0.275 HD
ATOM     22  H32 UNL     1      19.265   5.763  15.729  1.00  0.00     0.275 HD
ATOM     23  H31 UNL     1      19.761   4.821  14.433  1.00  0.00     0.275 HD
ENDBRANCH  19  20
BRANCH  19  24
HETATM   24  C12 UNL     1      18.605   5.821  12.532  1.00  0.00     0.025 C
HETATM   25  C13 UNL     1      17.489   6.223  11.654  1.00  0.00     0.007 C
HETATM   26  C14 UNL     1      17.771   6.539  10.239  1.00  0.00     0.000 C
HETATM   27  C15 UNL     1      19.189   6.767   9.865  1.00  0.00     0.000 C
HETATM   28  C16 UNL     1      20.150   5.865  10.637  1.00  0.00     0.000 C
HETATM   29  C17 UNL     1      19.968   6.277  12.083  1.00  0.00     0.007 C
ENDBRANCH  19  24
ENDBRANCH   6  19
TORSDOF 7
ENDMDL