MODEL 5
REMARK VINA RESULT: -6.579424618      2.425      6.904
REMARK  7 active torsions:
REMARK  status: ('A' for Active; 'I' for Inactive)
REMARK    1  A    between atoms: C2_2  and  N1_4
REMARK    2  A    between atoms: C2_2  and  C15_21
REMARK       I    between atoms: N1_4  and  C4_6
REMARK       I    between atoms: C4_6  and  N2_8
REMARK    3  A    between atoms: N2_8  and  C5_9
REMARK    4  A    between atoms: C10_14  and  C11_15
REMARK    5  A    between atoms: C15_21  and  O5_23
REMARK    6  A    between atoms: O5_23  and  C16_24
REMARK    7  A    between atoms: C16_24  and  C17_25
ROOT
HETATM    1  N1  UNL     1      18.196   4.623  13.709  1.00  0.00    -0.313 N
ATOM      2  H1  UNL     1      18.760   4.039  13.092  1.00  0.00     0.166 HD
HETATM    3  C4  UNL     1      18.565   6.039  13.830  1.00  0.00     0.390 C
HETATM    4  O1  UNL     1      17.756   6.645  14.608  1.00  0.00    -0.231 OA
HETATM    5  N2  UNL     1      19.614   6.571  13.186  1.00  0.00    -0.390 NA
ENDROOT
BRANCH   1   6
HETATM    6  C2  UNL     1      17.117   4.010  14.385  1.00  0.00     0.116 C
HETATM    7  C1  UNL     1      15.774   4.664  14.109  1.00  0.00     0.049 C
HETATM    8  C3  UNL     1      16.947   2.612  13.690  1.00  0.00     0.049 C
BRANCH   6   9
HETATM    9  C15 UNL     1      17.291   3.792  15.830  1.00  0.00     0.286 C
HETATM   10  O4  UNL     1      18.486   3.596  16.241  1.00  0.00    -0.262 OA
BRANCH   9  11
HETATM   11  O5  UNL     1      16.300   3.777  16.773  1.00  0.00    -0.318 OA
BRANCH  11  12
HETATM   12  C16 UNL     1      15.520   2.676  17.172  1.00  0.00     0.194 C
BRANCH  12  13
HETATM   13  C17 UNL     1      14.047   3.105  17.184  1.00  0.00     0.141 C
HETATM   14 CL1  UNL     1      13.954   4.899  17.108  1.00  0.00    -0.128 Cl
ENDBRANCH  12  13
ENDBRANCH  11  12
ENDBRANCH   9  11
ENDBRANCH   6   9
ENDBRANCH   1   6
BRANCH   5  15
HETATM   15  C5  UNL     1      20.693   7.119  12.524  1.00  0.00     0.177 C
HETATM   16  C6  UNL     1      21.613   6.057  11.865  1.00  0.00     0.024 C
HETATM   17  C7  UNL     1      22.730   7.042  11.469  1.00  0.00     0.013 C
HETATM   18  C12 UNL     1      21.038   5.460  10.638  1.00  0.00     0.028 C
HETATM   19  C8  UNL     1      21.878   8.088  10.745  1.00  0.00    -0.006 C
HETATM   20  C9  UNL     1      21.723   7.525   9.350  1.00  0.00     0.025 C
HETATM   21  C14 UNL     1      20.483   8.017  11.361  1.00  0.00     0.027 C
HETATM   22  C10 UNL     1      20.628   6.470   9.618  1.00  0.00     0.050 C
HETATM   23  C13 UNL     1      19.602   7.360  10.284  1.00  0.00     0.028 C
BRANCH  22  24
HETATM   24  C11 UNL     1      20.198   5.834   8.384  1.00  0.00     0.181 C
HETATM   25  O2  UNL     1      20.886   4.980   7.785  1.00  0.00    -0.647 OA
HETATM   26  O3  UNL     1      18.968   6.203   7.863  1.00  0.00    -0.647 OA
ENDBRANCH  22  24
ENDBRANCH   5  15
TORSDOF 7
ENDMDL