MODEL 1
REMARK VINA RESULT: -7.134130489      0.000      0.000
REMARK  8 active torsions:
REMARK  status: ('A' for Active; 'I' for Inactive)
REMARK    1  A    between atoms: C2_2  and  N1_4
REMARK       I    between atoms: N1_4  and  C4_6
REMARK       I    between atoms: C4_6  and  N2_8
REMARK    2  A    between atoms: N2_8  and  C6_10
REMARK    3  A    between atoms: C6_10  and  C8_12
REMARK       I    between atoms: C8_12  and  N3_14
REMARK    4  A    between atoms: N3_14  and  C9_16
REMARK    5  A    between atoms: C9_16  and  N4_17
REMARK    6  A    between atoms: C9_16  and  C10_21
REMARK    7  A    between atoms: C15_26  and  O3_27
REMARK    8  A    between atoms: O3_27  and  C16_28
ROOT
HETATM    1  C9  UNL     1      17.660   3.552  15.888  1.00  0.00     0.290 C
ENDROOT
BRANCH   1   2
HETATM    2  N3  UNL     1      17.467   3.646  14.434  1.00  0.00    -0.331 N
HETATM    3  C8  UNL     1      17.020   2.558  13.650  1.00  0.00     0.241 C
HETATM    4  O2  UNL     1      16.781   1.473  14.227  1.00  0.00    -0.271 OA
ATOM      5  H3  UNL     1      17.664   4.533  13.971  1.00  0.00     0.164 HD
BRANCH   3   6
HETATM    6  C6  UNL     1      16.841   2.694  12.200  1.00  0.00     0.176 C
HETATM    7  C7  UNL     1      16.755   1.343  11.498  1.00  0.00     0.042 C
BRANCH   6   8
HETATM    8  N2  UNL     1      17.886   3.439  11.556  1.00  0.00    -0.325 N
HETATM    9  C4  UNL     1      17.608   4.638  10.877  1.00  0.00     0.319 C
HETATM   10  N1  UNL     1      18.658   5.345  10.235  1.00  0.00    -0.339 N
HETATM   11  O1  UNL     1      16.419   5.061  10.854  1.00  0.00    -0.247 OA
ATOM     12  H1  UNL     1      19.612   4.987  10.265  1.00  0.00     0.164 HD
HETATM   13  C5  UNL     1      19.239   2.949  11.598  1.00  0.00     0.155 C
BRANCH  10  14
HETATM   14  C2  UNL     1      18.366   6.564   9.547  1.00  0.00     0.078 C
HETATM   15  C1  UNL     1      18.755   7.725  10.428  1.00  0.00     0.032 C
HETATM   16  C3  UNL     1      19.206   6.602   8.287  1.00  0.00     0.032 C
ENDBRANCH  10  14
ENDBRANCH   6   8
ENDBRANCH   3   6
ENDBRANCH   1   2
BRANCH   1  17
HETATM   17  N4  UNL     1      18.856   4.310  16.154  1.00  0.00    -0.058 N
ATOM     18  H43 UNL     1      19.632   3.748  16.505  1.00  0.00     0.276 HD
ATOM     19  H42 UNL     1      19.327   4.649  15.315  1.00  0.00     0.276 HD
ATOM     20  H41 UNL     1      18.563   5.051  16.791  1.00  0.00     0.276 HD
ENDBRANCH   1  17
BRANCH   1  21
HETATM   21  C10 UNL     1      16.459   4.012  16.624  1.00  0.00     0.065 C
HETATM   22  C11 UNL     1      15.799   2.904  17.427  1.00  0.00     0.011 C
HETATM   23  C12 UNL     1      14.503   2.423  16.803  1.00  0.00     0.001 C
HETATM   24  C13 UNL     1      13.464   3.523  16.782  1.00  0.00     0.002 C
HETATM   25  C14 UNL     1      14.208   4.836  16.857  1.00  0.00     0.032 C
HETATM   26  C15 UNL     1      15.426   4.768  15.885  1.00  0.00     0.133 C
BRANCH  26  27
HETATM   27  O3  UNL     1      15.770   6.032  15.501  1.00  0.00    -0.346 OA
BRANCH  27  28
HETATM   28  C16 UNL     1      15.516   6.407  14.221  1.00  0.00     0.197 C
HETATM   29  C17 UNL     1      16.611   7.077  13.463  1.00  0.00     0.084 C
HETATM   30  C18 UNL     1      14.315   7.368  14.137  1.00  0.00     0.084 C
HETATM   31  F1  UNL     1      15.102   5.323  13.423  1.00  0.00    -0.213 F
ENDBRANCH  27  28
ENDBRANCH  26  27
ENDBRANCH   1  21
TORSDOF 8
ENDMDL