MODEL 1
REMARK VINA RESULT: -7.315805580      0.000      0.000
REMARK  7 active torsions:
REMARK  status: ('A' for Active; 'I' for Inactive)
REMARK    1  A    between atoms: C2_2  and  C3_3
REMARK    2  A    between atoms: C2_2  and  N1_7
REMARK    3  A    between atoms: C3_3  and  C4_4
REMARK    4  A    between atoms: C11_12  and  N2_13
REMARK    5  A    between atoms: C12_17  and  C13_18
REMARK       I    between atoms: C13_18  and  N3_20
REMARK    6  A    between atoms: N3_20  and  C14_22
REMARK    7  A    between atoms: C14_22  and  C15_23
ROOT
HETATM    1  N1  UNL     1      16.487   8.576   8.923  1.00  0.00    -0.386 N
HETATM    2  C7  UNL     1      16.265   8.923  10.274  1.00  0.00     0.125 C
HETATM    3  C8  UNL     1      17.598   8.737  11.015  1.00  0.00     0.054 C
HETATM    4  C9  UNL     1      17.772   7.219  11.142  1.00  0.00     0.064 C
HETATM    5  C10 UNL     1      19.091   6.966  11.788  1.00  0.00     0.067 C
HETATM    6  C11 UNL     1      19.025   6.148  13.054  1.00  0.00     0.200 C
HETATM    7  C12 UNL     1      17.960   6.573  14.006  1.00  0.00     0.125 C
HETATM    8  C18 UNL     1      16.707   7.055  13.303  1.00  0.00     0.131 C
HETATM    9  N4  UNL     1      16.650   6.762  11.919  1.00  0.00    -0.409 N
ATOM     10  H4  UNL     1      15.867   6.261  11.500  1.00  0.00     0.154 HD
HETATM   11  C19 UNL     1      17.669   6.578   9.776  1.00  0.00     0.236 C
HETATM   12  F1  UNL     1      18.855   5.913   9.429  1.00  0.00    -0.241 F
HETATM   13  C20 UNL     1      17.414   7.552   8.664  1.00  0.00     0.098 C
ENDROOT
BRANCH   6  14
HETATM   14  N2  UNL     1      19.018   4.733  12.747  1.00  0.00    -0.074 N
ATOM     15  H23 UNL     1      18.252   4.485  12.120  1.00  0.00     0.274 HD
ATOM     16  H22 UNL     1      19.798   4.472  12.144  1.00  0.00     0.274 HD
ATOM     17  H21 UNL     1      18.999   4.179  13.603  1.00  0.00     0.274 HD
ENDBRANCH   6  14
BRANCH   1  18
HETATM   18  C2  UNL     1      15.444   8.765   7.994  1.00  0.00     0.079 C
HETATM   19  C1  UNL     1      15.577   8.069   6.685  1.00  0.00     0.032 C
BRANCH  18  20
HETATM   20  C3  UNL     1      14.097   8.466   8.634  1.00  0.00     0.029 C
BRANCH  20  21
HETATM   21  C4  UNL     1      12.968   9.064   7.787  1.00  0.00    -0.013 A
HETATM   22  C5  UNL     1      11.971   9.939   8.452  1.00  0.00     0.005 A
HETATM   23  C6  UNL     1      13.039  10.528   7.514  1.00  0.00     0.005 A
ENDBRANCH  20  21
ENDBRANCH  18  20
ENDBRANCH   1  18
BRANCH   7  24
HETATM   24  C13 UNL     1      17.598   5.409  14.865  1.00  0.00     0.225 C
HETATM   25  O1  UNL     1      18.516   4.915  15.602  1.00  0.00    -0.273 OA
HETATM   26  N3  UNL     1      16.315   4.842  14.895  1.00  0.00    -0.360 N
ATOM     27  H3  UNL     1      15.590   5.246  14.304  1.00  0.00     0.162 HD
BRANCH  26  28
HETATM   28  C14 UNL     1      15.979   3.714  15.725  1.00  0.00     0.127 C
BRANCH  28  29
HETATM   29  C15 UNL     1      14.810   4.029  16.600  1.00  0.00     0.003 A
HETATM   30  C16 UNL     1      14.064   2.902  17.219  1.00  0.00     0.007 A
HETATM   31  C17 UNL     1      14.977   3.674  18.073  1.00  0.00     0.007 A
ENDBRANCH  28  29
ENDBRANCH  26  28
ENDBRANCH   7  24
TORSDOF 7
ENDMDL