MODEL 3
REMARK VINA RESULT: -7.509233360      1.018      1.124
REMARK  8 active torsions:
REMARK  status: ('A' for Active; 'I' for Inactive)
REMARK    1  A    between atoms: C2_2  and  C3_3
REMARK    2  A    between atoms: C3_3  and  C5_5
REMARK    3  A    between atoms: C5_5  and  C7_7
REMARK    4  A    between atoms: C7_7  and  C8_8
REMARK    5  A    between atoms: C8_8  and  C9_9
REMARK    6  A    between atoms: C12_12  and  O1_13
REMARK    7  A    between atoms: C16_18  and  C17_19
REMARK    8  A    between atoms: C17_19  and  O2_21
ROOT
HETATM    1  C9  UNL     1     -21.476   0.961  -5.927  1.00  0.00     0.122 C
HETATM    2  C10 UNL     1     -21.303  -0.512  -6.050  1.00  0.00     0.034 C
HETATM    3  C11 UNL     1     -21.776  -1.306  -4.884  1.00  0.00     0.037 C
HETATM    4  C12 UNL     1     -21.463  -0.567  -3.621  1.00  0.00     0.152 C
HETATM    5  C13 UNL     1     -21.989   0.865  -3.695  1.00  0.00     0.087 C
HETATM    6  C14 UNL     1     -21.765   1.481  -2.356  1.00  0.00     0.041 C
HETATM    7  C15 UNL     1     -22.806   2.496  -1.967  1.00  0.00     0.010 C
HETATM    8  C16 UNL     1     -24.205   1.997  -2.094  1.00  0.00     0.014 C
HETATM    9  C19 UNL     1     -24.309   0.730  -2.903  1.00  0.00     0.010 C
HETATM   10  C20 UNL     1     -23.424   0.920  -4.125  1.00  0.00     0.041 C
HETATM   11  O3  UNL     1     -21.201   1.483  -4.692  1.00  0.00    -0.372 OA
ENDROOT
BRANCH   4  12
HETATM   12  O1  UNL     1     -21.834  -1.213  -2.472  1.00  0.00    -0.393 OA
ATOM     13  H1  UNL     1     -22.770  -1.337  -2.371  1.00  0.00     0.210 HD
ENDBRANCH   4  12
BRANCH   1  14
HETATM   14  C8  UNL     1     -20.566   1.631  -6.935  1.00  0.00     0.032 C
BRANCH  14  15
HETATM   15  C7  UNL     1     -20.301   0.753  -8.126  1.00  0.00     0.007 C
BRANCH  15  16
HETATM   16  C5  UNL     1     -21.001   1.174  -9.366  1.00  0.00    -0.015 C
HETATM   17  C6  UNL     1     -21.727   2.477  -9.260  1.00  0.00     0.010 C
BRANCH  16  18
HETATM   18  C3  UNL     1     -21.975   0.133  -9.884  1.00  0.00    -0.015 C
HETATM   19  C4  UNL     1     -23.243   0.139  -9.069  1.00  0.00     0.010 C
BRANCH  18  20
HETATM   20  C2  UNL     1     -21.275  -1.224  -9.731  1.00  0.00    -0.000 C
HETATM   21  C1  UNL     1     -22.257  -2.250  -9.169  1.00  0.00     0.005 C
ENDBRANCH  18  20
ENDBRANCH  16  18
ENDBRANCH  15  16
ENDBRANCH  14  15
ENDBRANCH   1  14
BRANCH   8  22
HETATM   22  C17 UNL     1     -24.913   1.877  -0.763  1.00  0.00     0.118 C
HETATM   23  C18 UNL     1     -26.354   2.307  -0.844  1.00  0.00     0.040 C
BRANCH  22  24
HETATM   24  O2  UNL     1     -24.297   2.673   0.200  1.00  0.00    -0.396 OA
ATOM     25  H2  UNL     1     -24.830   3.433   0.402  1.00  0.00     0.210 HD
ENDBRANCH  22  24
ENDBRANCH   8  22
TORSDOF 8
ENDMDL