MODEL 1
REMARK VINA RESULT: -6.930843971      0.000      0.000
REMARK  8 active torsions:
REMARK  status: ('A' for Active; 'I' for Inactive)
REMARK    1  A    between atoms: C10_10  and  O1_11
REMARK    2  A    between atoms: C10_10  and  C11_13
REMARK    3  A    between atoms: C11_13  and  O2_14
REMARK    4  A    between atoms: C14_17  and  C15_18
REMARK    5  A    between atoms: C15_18  and  C16_19
REMARK    6  A    between atoms: C16_19  and  C17_20
REMARK    7  A    between atoms: C19_22  and  C20_23
REMARK    8  A    between atoms: C20_23  and  O3_24
ROOT
HETATM    1  C1  UNL     1     -23.606  -2.428  -5.276  1.00  0.00     0.015 C
HETATM    2  C2  UNL     1     -22.658  -1.608  -4.946  1.00  0.00    -0.081 C
HETATM    3  C3  UNL     1     -21.962  -0.847  -6.048  1.00  0.00     0.010 C
HETATM    4  C4  UNL     1     -22.516  -1.265  -7.402  1.00  0.00     0.015 C
HETATM    5  C5  UNL     1     -22.336   0.600  -5.828  1.00  0.00     0.009 C
HETATM    6  C6  UNL     1     -21.893   1.027  -4.473  1.00  0.00     0.011 C
HETATM    7  C7  UNL     1     -22.473   0.212  -3.333  1.00  0.00    -0.030 C
HETATM    8  C8  UNL     1     -22.011   0.748  -2.043  1.00  0.00     0.013 C
HETATM    9  C9  UNL     1     -23.257   1.021  -1.191  1.00  0.00     0.041 C
HETATM   10  C10 UNL     1     -24.252   1.425  -2.256  1.00  0.00     0.080 C
HETATM   11  C13 UNL     1     -23.993   0.364  -3.317  1.00  0.00     0.050 C
HETATM   12  C14 UNL     1     -22.165  -1.273  -3.568  1.00  0.00     0.023 C
ENDROOT
BRANCH  12  13
HETATM   13  C15 UNL     1     -20.736  -1.580  -3.449  1.00  0.00     0.014 C
BRANCH  13  14
HETATM   14  C16 UNL     1     -20.240  -2.596  -2.500  1.00  0.00     0.034 C
BRANCH  14  15
HETATM   15  C17 UNL     1     -19.975  -2.171  -1.123  1.00  0.00    -0.086 C
HETATM   16  C18 UNL     1     -21.041  -2.181  -0.091  1.00  0.00     0.043 C
HETATM   17  C19 UNL     1     -18.777  -1.754  -0.664  1.00  0.00     0.001 C
BRANCH  17  18
HETATM   18  C20 UNL     1     -17.589  -1.672  -1.503  1.00  0.00     0.191 C
BRANCH  18  19
HETATM   19  O3  UNL     1     -16.596  -0.970  -0.757  1.00  0.00    -0.397 OA
ATOM     20  H3  UNL     1     -16.943  -0.105  -0.574  1.00  0.00     0.209 HD
ENDBRANCH  18  19
ENDBRANCH  17  18
ENDBRANCH  14  15
ENDBRANCH  13  14
ENDBRANCH  12  13
BRANCH  10  21
HETATM   21  O1  UNL     1     -23.923   2.683  -2.683  1.00  0.00    -0.388 OA
ATOM     22  H1  UNL     1     -24.078   2.724  -3.620  1.00  0.00     0.210 HD
ENDBRANCH  10  21
BRANCH  10  23
HETATM   23  C11 UNL     1     -25.660   1.376  -1.763  1.00  0.00     0.204 C
BRANCH  23  24
HETATM   24  O2  UNL     1     -26.059   2.499  -1.125  1.00  0.00    -0.393 OA
HETATM   25  C12 UNL     1     -26.928   2.448  -0.096  1.00  0.00     0.201 C
ENDBRANCH  23  24
ENDBRANCH  10  23
TORSDOF 8
ENDMDL