MODEL 2
REMARK VINA RESULT: -7.331351641      1.971      3.753
REMARK  6 active torsions:
REMARK  status: ('A' for Active; 'I' for Inactive)
REMARK    1  A    between atoms: S1_2  and  C2_3
REMARK    2  A    between atoms: C2_3  and  C3_4
REMARK    3  A    between atoms: C3_4  and  C4_5
REMARK    4  A    between atoms: C4_5  and  N1_6
REMARK    5  A    between atoms: C4_5  and  C5_10
REMARK       I    between atoms: C5_10  and  N2_12
REMARK    6  A    between atoms: N2_12  and  C6_14
ROOT
HETATM    1  C6  UNL     1     -21.888  -0.484  -4.921  1.00  0.00     0.084 C
HETATM    2  C7  UNL     1     -21.956  -1.602  -3.936  1.00  0.00     0.025 C
HETATM    3  C8  UNL     1     -20.650  -1.948  -3.291  1.00  0.00     0.002 C
HETATM    4  C9  UNL     1     -20.715  -1.952  -1.754  1.00  0.00     0.000 C
HETATM    5  C10 UNL     1     -21.110  -0.564  -1.372  1.00  0.00     0.000 C
HETATM    6  C11 UNL     1     -21.011  -0.181   0.053  1.00  0.00     0.000 C
HETATM    7  C12 UNL     1     -22.326   0.227   0.650  1.00  0.00     0.000 C
HETATM    8  C13 UNL     1     -22.720   1.638   0.481  1.00  0.00     0.000 C
HETATM    9  C14 UNL     1     -22.735   2.214  -0.881  1.00  0.00     0.000 C
HETATM   10  C15 UNL     1     -24.053   1.991  -1.639  1.00  0.00     0.000 C
HETATM   11  C16 UNL     1     -23.880   2.222  -3.116  1.00  0.00     0.000 C
HETATM   12  C17 UNL     1     -23.742   0.917  -3.910  1.00  0.00     0.002 C
HETATM   13  C18 UNL     1     -22.376   0.845  -4.497  1.00  0.00     0.025 C
ENDROOT
BRANCH   1  14
HETATM   14  N2  UNL     1     -22.526  -0.803  -6.192  1.00  0.00    -0.355 N
HETATM   15  C5  UNL     1     -21.782  -1.086  -7.359  1.00  0.00     0.248 C
HETATM   16  O1  UNL     1     -20.528  -1.057  -7.287  1.00  0.00    -0.271 OA
ATOM     17  H2  UNL     1     -23.545  -0.824  -6.240  1.00  0.00     0.162 HD
BRANCH  15  18
HETATM   18  C4  UNL     1     -22.401  -1.412  -8.661  1.00  0.00     0.275 C
BRANCH  18  19
HETATM   19  C3  UNL     1     -22.047  -0.380  -9.719  1.00  0.00     0.053 C
BRANCH  19  20
HETATM   20  C2  UNL     1     -22.879   0.851  -9.450  1.00  0.00     0.076 C
BRANCH  20  21
HETATM   21  S1  UNL     1     -21.819   2.330  -9.410  1.00  0.00    -0.173 SA
HETATM   22  C1  UNL     1     -20.585   2.252  -8.111  1.00  0.00     0.089 C
ENDBRANCH  20  21
ENDBRANCH  19  20
ENDBRANCH  18  19
BRANCH  18  23
HETATM   23  N1  UNL     1     -21.963  -2.706  -9.141  1.00  0.00    -0.066 N
ATOM     24  H13 UNL     1     -20.949  -2.811  -9.127  1.00  0.00     0.275 HD
ATOM     25  H12 UNL     1     -22.187  -3.463  -8.495  1.00  0.00     0.275 HD
ATOM     26  H11 UNL     1     -22.362  -2.846 -10.069  1.00  0.00     0.275 HD
ENDBRANCH  18  23
ENDBRANCH  15  18
ENDBRANCH   1  14
TORSDOF 6
ENDMDL