MODEL 2
REMARK VINA RESULT: -7.774462550      3.275      5.138
REMARK  7 active torsions:
REMARK  status: ('A' for Active; 'I' for Inactive)
REMARK    1  A    between atoms: C5_6  and  C6_7
REMARK    2  A    between atoms: C6_7  and  N2_8
REMARK    3  A    between atoms: C10_12  and  C11_13
REMARK    4  A    between atoms: C12_14  and  C13_15
REMARK    5  A    between atoms: C18_20  and  C19_21
REMARK    6  A    between atoms: C19_21  and  C20_22
REMARK    7  A    between atoms: C20_22  and  O1_23
ROOT
HETATM    1  N2  UNL     1     -20.938  -0.385  -3.696  1.00  0.00     0.098 N
HETATM    2  C7  UNL     1     -21.855  -1.474  -3.902  1.00  0.00     0.273 C
HETATM    3  C8  UNL     1     -23.228  -0.999  -3.487  1.00  0.00     0.031 C
HETATM    4  C9  UNL     1     -23.466   0.405  -3.933  1.00  0.00     0.012 C
HETATM    5  C10 UNL     1     -22.518   0.911  -4.978  1.00  0.00     0.041 C
HETATM    6  C18 UNL     1     -21.077   0.534  -4.757  1.00  0.00     0.233 C
ENDROOT
BRANCH   1   7
HETATM    7  C6  UNL     1     -19.586  -0.837  -3.468  1.00  0.00     0.311 C
BRANCH   7   8
HETATM    8  C5  UNL     1     -19.292  -1.202  -2.062  1.00  0.00    -0.028 A
HETATM    9  C4  UNL     1     -20.217  -0.842  -1.090  1.00  0.00     0.009 A
HETATM   10  C3  UNL     1     -20.007  -1.156   0.234  1.00  0.00     0.002 A
HETATM   11  C2  UNL     1     -18.880  -1.833   0.625  1.00  0.00     0.026 A
HETATM   12  C1  UNL     1     -17.948  -2.200  -0.330  1.00  0.00     0.046 A
HETATM   13  N1  UNL     1     -16.756  -2.913   0.066  1.00  0.00    -0.102 NA
HETATM   14  C21 UNL     1     -18.178  -1.876  -1.642  1.00  0.00     0.035 A
ENDBRANCH   7   8
ENDBRANCH   1   7
BRANCH   6  15
HETATM   15  C19 UNL     1     -20.138   1.696  -4.746  1.00  0.00     0.062 C
BRANCH  15  16
HETATM   16  C20 UNL     1     -19.992   2.476  -5.991  1.00  0.00     0.166 C
BRANCH  16  17
HETATM   17  O1  UNL     1     -19.181   3.577  -5.959  1.00  0.00    -0.401 OA
ATOM     18  H1  UNL     1     -18.270   3.461  -6.200  1.00  0.00     0.209 HD
ENDBRANCH  16  17
ENDBRANCH  15  16
ENDBRANCH   6  15
BRANCH   5  19
HETATM   19  C11 UNL     1     -22.982   0.598  -6.369  1.00  0.00    -0.024 C
HETATM   20  C12 UNL     1     -22.422  -0.279  -7.155  1.00  0.00    -0.026 C
BRANCH  20  21
HETATM   21  C13 UNL     1     -22.973  -0.504  -8.516  1.00  0.00     0.008 C
HETATM   22  C14 UNL     1     -22.118  -1.567  -9.171  1.00  0.00     0.008 C
HETATM   23  C15 UNL     1     -20.981  -0.822  -9.790  1.00  0.00     0.001 C
HETATM   24  C16 UNL     1     -21.324   0.640  -9.752  1.00  0.00     0.001 C
HETATM   25  C17 UNL     1     -22.772   0.742  -9.376  1.00  0.00     0.008 C
ENDBRANCH  20  21
ENDBRANCH   5  19
TORSDOF 7
ENDMDL