MODEL 3
REMARK VINA RESULT: -6.345448762      1.728      3.745
REMARK  8 active torsions:
REMARK  status: ('A' for Active; 'I' for Inactive)
REMARK    1  A    between atoms: C2_2  and  C3_3
REMARK    2  A    between atoms: C8_8  and  C9_9
REMARK    3  A    between atoms: C9_9  and  O1_12
REMARK    4  A    between atoms: C12_14  and  C13_15
REMARK    5  A    between atoms: C14_16  and  C15_17
REMARK    6  A    between atoms: C15_17  and  O2_19
REMARK    7  A    between atoms: C15_17  and  C17_21
REMARK    8  A    between atoms: C17_21  and  C18_22
ROOT
HETATM    1  C3  UNL     1     -22.705   0.924  -2.415  1.00  0.00     0.043 C
HETATM    2  C4  UNL     1     -22.457   1.173  -0.977  1.00  0.00    -0.079 C
HETATM    3  C5  UNL     1     -22.899   2.465  -0.353  1.00  0.00     0.044 C
HETATM    4  C6  UNL     1     -21.842   0.229  -0.280  1.00  0.00    -0.023 C
HETATM    5  C7  UNL     1     -21.476  -0.998  -1.088  1.00  0.00     0.035 C
HETATM    6  C8  UNL     1     -20.591  -0.398  -2.204  1.00  0.00     0.031 C
HETATM    7  C12 UNL     1     -21.463   0.399  -3.109  1.00  0.00     0.027 C
ENDROOT
BRANCH   7   8
HETATM    8  C13 UNL     1     -21.893  -0.288  -4.345  1.00  0.00    -0.022 C
HETATM    9  C14 UNL     1     -21.722   0.244  -5.531  1.00  0.00     0.007 C
BRANCH   9  10
HETATM   10  C15 UNL     1     -22.112  -0.355  -6.813  1.00  0.00     0.076 C
HETATM   11  C16 UNL     1     -22.980   0.596  -7.567  1.00  0.00     0.050 C
BRANCH  10  12
HETATM   12  O2  UNL     1     -22.915  -1.482  -6.505  1.00  0.00    -0.386 OA
ATOM     13  H2  UNL     1     -23.624  -1.491  -7.137  1.00  0.00     0.211 HD
ENDBRANCH  10  12
BRANCH  10  14
HETATM   14  C17 UNL     1     -20.957  -0.881  -7.624  1.00  0.00     0.087 C
BRANCH  14  15
HETATM   15  C18 UNL     1     -21.362  -1.214  -9.016  1.00  0.00    -0.014 C
HETATM   16  C19 UNL     1     -21.246  -0.159 -10.058  1.00  0.00     0.056 C
HETATM   17  S1  UNL     1     -21.857  -2.494  -9.424  1.00  0.00    -0.090 SA
ENDBRANCH  14  15
ENDBRANCH  10  14
ENDBRANCH   9  10
ENDBRANCH   7   8
BRANCH   1  18
HETATM   18  C2  UNL     1     -23.134   2.194  -3.098  1.00  0.00    -0.027 C
HETATM   19  C1  UNL     1     -24.382   2.307  -3.512  1.00  0.00     0.007 C
ENDBRANCH   1  18
BRANCH   6  20
HETATM   20  C9  UNL     1     -19.720  -1.430  -2.814  1.00  0.00     0.055 C
HETATM   21  C10 UNL     1     -18.463  -1.589  -2.038  1.00  0.00     0.045 C
HETATM   22  C11 UNL     1     -20.502  -2.750  -2.713  1.00  0.00     0.045 C
BRANCH  20  23
HETATM   23  O1  UNL     1     -19.510  -1.256  -4.179  1.00  0.00    -0.390 OA
ATOM     24  H1  UNL     1     -20.175  -0.730  -4.606  1.00  0.00     0.210 HD
ENDBRANCH  20  23
ENDBRANCH   6  20
TORSDOF 8
ENDMDL