MODEL 1
REMARK VINA RESULT: -7.331419941      0.000      0.000
REMARK  5 active torsions:
REMARK  status: ('A' for Active; 'I' for Inactive)
REMARK    1  A    between atoms: C4_8  and  S1_9
REMARK    2  A    between atoms: S1_9  and  C5_10
REMARK    3  A    between atoms: C5_10  and  C7_12
REMARK    4  A    between atoms: C8_13  and  C9_14
REMARK    5  A    between atoms: C9_14  and  C10_15
ROOT
HETATM    1  C9  UNL     1     -21.434  -0.212  -3.669  1.00  0.00    -0.016 C
HETATM    2  C15 UNL     1     -21.880  -1.677  -3.441  1.00  0.00     0.041 C
HETATM    3  C16 UNL     1     -20.771  -2.467  -2.773  1.00  0.00     0.233 C
HETATM    4  N3  UNL     1     -20.775  -2.135  -1.384  1.00  0.00    -0.075 N
ATOM      5  H31 UNL     1     -19.929  -2.454  -0.912  1.00  0.00     0.277 HD
ATOM      6  H32 UNL     1     -21.453  -2.688  -0.861  1.00  0.00     0.277 HD
HETATM    7  C17 UNL     1     -20.986  -0.728  -1.218  1.00  0.00     0.233 C
HETATM    8  C18 UNL     1     -20.615   0.074  -2.446  1.00  0.00     0.041 C
ENDROOT
BRANCH   1   9
HETATM    9  C8  UNL     1     -20.679  -0.305  -4.947  1.00  0.00    -0.019 C
HETATM   10  C7  UNL     1     -21.089  -1.068  -6.095  1.00  0.00    -0.015 C
BRANCH  10  11
HETATM   11  C5  UNL     1     -22.322  -0.822  -6.853  1.00  0.00     0.072 C
HETATM   12  C6  UNL     1     -23.281  -2.001  -6.641  1.00  0.00     0.026 C
BRANCH  11  13
HETATM   13  S1  UNL     1     -22.039  -0.770  -8.664  1.00  0.00    -0.102 SA
BRANCH  13  14
HETATM   14  C4  UNL     1     -21.996   0.921  -9.238  1.00  0.00     0.093 A
HETATM   15  C2  UNL     1     -21.142   1.922  -8.838  1.00  0.00     0.040 A
HETATM   16  C1  UNL     1     -20.053   1.838  -7.839  1.00  0.00     0.071 C
HETATM   17  N1  UNL     1     -21.434   3.065  -9.510  1.00  0.00    -0.354 N
HETATM   18  C3  UNL     1     -22.465   2.791 -10.329  1.00  0.00     0.181 A
ATOM     19  H1  UNL     1     -20.960   3.962  -9.413  1.00  0.00     0.166 HD
HETATM   20  N2  UNL     1     -22.808   1.492 -10.166  1.00  0.00    -0.345 N
ATOM     21  H2  UNL     1     -23.560   1.015 -10.664  1.00  0.00     0.167 HD
ENDBRANCH  13  14
ENDBRANCH  11  13
ENDBRANCH  10  11
ENDBRANCH   1   9
BRANCH   1  22
HETATM   22  C10 UNL     1     -22.656   0.628  -3.724  1.00  0.00    -0.002 C
HETATM   23  C11 UNL     1     -23.888  -0.010  -3.139  1.00  0.00     0.005 C
HETATM   24  C12 UNL     1     -24.847   1.134  -2.837  1.00  0.00     0.000 C
HETATM   25  C13 UNL     1     -24.102   2.409  -3.104  1.00  0.00     0.000 C
HETATM   26  C14 UNL     1     -22.644   1.936  -3.030  1.00  0.00     0.005 C
ENDBRANCH   1  22
TORSDOF 5
ENDMDL