MODEL 4
REMARK VINA RESULT: -7.947383129      2.203      6.818
REMARK  8 active torsions:
REMARK  status: ('A' for Active; 'I' for Inactive)
REMARK    1  A    between atoms: N1_1  and  N2_4
REMARK    2  A    between atoms: N2_4  and  N3_5
REMARK    3  A    between atoms: N3_5  and  C1_7
REMARK    4  A    between atoms: C1_7  and  C2_8
REMARK    5  A    between atoms: C2_8  and  C3_9
REMARK    6  A    between atoms: C5_11  and  C6_12
REMARK    7  A    between atoms: N5_21  and  N6_23
REMARK    8  A    between atoms: N6_23  and  C13_25
ROOT
HETATM    1  C3  UNL     1     -21.977  -0.687  -5.055  1.00  0.00    -0.073 C
HETATM    2  C4  UNL     1     -21.067  -1.146  -4.185  1.00  0.00     0.006 C
HETATM    3  C5  UNL     1     -20.340  -0.252  -3.256  1.00  0.00     0.139 C
HETATM    4  N4  UNL     1     -21.157   0.815  -2.751  1.00  0.00    -0.366 N
ATOM      5  H4  UNL     1     -21.002   1.227  -1.831  1.00  0.00     0.161 HD
HETATM    6  C12 UNL     1     -22.193   1.262  -3.613  1.00  0.00     0.096 C
HETATM    7  N5  UNL     1     -23.105   2.028  -3.186  1.00  0.00    -0.288 N
ATOM      8  H5  UNL     1     -23.825   2.319  -3.847  1.00  0.00     0.188 HD
HETATM    9  C19 UNL     1     -22.246   0.811  -5.044  1.00  0.00     0.111 C
ENDROOT
BRANCH   7  10
HETATM   10  N6  UNL     1     -23.198   2.503  -1.882  1.00  0.00    -0.300 N
ATOM     11  H6  UNL     1     -22.428   3.026  -1.466  1.00  0.00     0.187 HD
BRANCH  10  12
HETATM   12  C13 UNL     1     -24.367   2.252  -1.143  1.00  0.00     0.048 A
HETATM   13  C14 UNL     1     -25.444   1.668  -1.770  1.00  0.00     0.031 A
HETATM   14  C15 UNL     1     -26.616   1.394  -1.070  1.00  0.00     0.002 A
HETATM   15  C16 UNL     1     -26.661   1.727   0.272  1.00  0.00     0.000 A
HETATM   16  C17 UNL     1     -25.595   2.315   0.935  1.00  0.00     0.002 A
HETATM   17  C18 UNL     1     -24.452   2.565   0.183  1.00  0.00     0.031 A
ENDBRANCH  10  12
ENDBRANCH   7  10
BRANCH   3  18
HETATM   18  C6  UNL     1     -19.653  -1.036  -2.234  1.00  0.00    -0.032 A
HETATM   19  C7  UNL     1     -20.417  -1.607  -1.235  1.00  0.00     0.009 A
HETATM   20  C8  UNL     1     -19.856  -2.387  -0.253  1.00  0.00     0.001 A
HETATM   21  C9  UNL     1     -18.497  -2.635  -0.225  1.00  0.00     0.000 A
HETATM   22  C10 UNL     1     -17.719  -2.057  -1.236  1.00  0.00     0.001 A
HETATM   23  C11 UNL     1     -18.299  -1.277  -2.210  1.00  0.00     0.009 A
ENDBRANCH   3  18
BRANCH   1  24
HETATM   24  C2  UNL     1     -22.703  -1.562  -5.986  1.00  0.00     0.056 C
BRANCH  24  25
HETATM   25  C1  UNL     1     -22.575  -1.173  -7.424  1.00  0.00     0.160 C
BRANCH  25  26
HETATM   26  N3  UNL     1     -22.850  -2.334  -8.270  1.00  0.00    -0.252 N
ATOM     27  H3  UNL     1     -23.692  -2.894  -8.139  1.00  0.00     0.196 HD
BRANCH  26  28
HETATM   28  N2  UNL     1     -22.027  -2.612  -9.148  1.00  0.00    -0.249 NA
BRANCH  28  29
HETATM   29  N1  UNL     1     -21.491  -3.178 -10.100  1.00  0.00    -0.261 N
ATOM     30  H12 UNL     1     -21.744  -4.126  -9.824  1.00  0.00     0.193 HD
ATOM     31  H11 UNL     1     -20.971  -3.322 -10.966  1.00  0.00     0.193 HD
ENDBRANCH  28  29
ENDBRANCH  26  28
ENDBRANCH  25  26
ENDBRANCH  24  25
ENDBRANCH   1  24
TORSDOF 8
ENDMDL