MODEL 2
REMARK VINA RESULT: -5.919149803      2.115      3.590
REMARK  8 active torsions:
REMARK  status: ('A' for Active; 'I' for Inactive)
REMARK    1  A    between atoms: C5_5  and  C6_6
REMARK    2  A    between atoms: C6_6  and  O1_9
REMARK    3  A    between atoms: C14_16  and  C15_17
REMARK    4  A    between atoms: C15_17  and  C16_19
REMARK    5  A    between atoms: C16_19  and  N1_20
REMARK    6  A    between atoms: N1_20  and  C17_22
REMARK    7  A    between atoms: C17_22  and  C18_23
REMARK    8  A    between atoms: C18_23  and  C19_24
ROOT
HETATM    1  C1  UNL     1     -24.440   0.091  -3.115  1.00  0.00     0.019 C
HETATM    2  C2  UNL     1     -23.224   0.217  -2.683  1.00  0.00    -0.064 C
HETATM    3  C3  UNL     1     -23.007   0.257  -1.211  1.00  0.00     0.038 C
HETATM    4  C4  UNL     1     -21.630   0.729  -0.909  1.00  0.00     0.013 C
HETATM    5  C5  UNL     1     -20.542   0.009  -1.661  1.00  0.00     0.032 C
HETATM    6  C9  UNL     1     -20.742  -0.145  -3.118  1.00  0.00    -0.013 C
HETATM    7  C10 UNL     1     -20.292  -1.481  -3.660  1.00  0.00     0.021 C
HETATM    8  C11 UNL     1     -19.739   0.809  -3.836  1.00  0.00     0.014 C
HETATM    9  C12 UNL     1     -20.308   1.545  -4.971  1.00  0.00     0.002 C
HETATM   10  C13 UNL     1     -21.237   0.819  -5.848  1.00  0.00     0.017 C
HETATM   11  C14 UNL     1     -22.413   0.279  -5.013  1.00  0.00     0.087 C
HETATM   12  C21 UNL     1     -22.076   0.346  -3.580  1.00  0.00    -0.054 C
ENDROOT
BRANCH  11  13
HETATM   13  C15 UNL     1     -22.875  -0.947  -5.646  1.00  0.00     0.152 C
HETATM   14  O2  UNL     1     -23.211  -2.011  -5.249  1.00  0.00    -0.295 OA
BRANCH  13  15
HETATM   15  C16 UNL     1     -22.940  -0.837  -7.184  1.00  0.00     0.197 C
BRANCH  15  16
HETATM   16  N1  UNL     1     -22.973  -2.112  -7.765  1.00  0.00    -0.395 N
ATOM     17  H1  UNL     1     -23.548  -2.855  -7.369  1.00  0.00     0.159 HD
BRANCH  16  18
HETATM   18  C17 UNL     1     -22.191  -2.333  -8.904  1.00  0.00     0.056 C
BRANCH  18  19
HETATM   19  C18 UNL     1     -21.200  -1.391  -9.421  1.00  0.00     0.044 C
BRANCH  19  20
HETATM   20  C19 UNL     1     -21.557  -0.497 -10.562  1.00  0.00     0.001 C
HETATM   21  C20 UNL     1     -21.584   0.940 -10.017  1.00  0.00     0.005 C
ENDBRANCH  19  20
ENDBRANCH  18  19
ENDBRANCH  16  18
ENDBRANCH  15  16
ENDBRANCH  13  15
ENDBRANCH  11  13
BRANCH   5  22
HETATM   22  C6  UNL     1     -20.073  -1.130  -0.823  1.00  0.00     0.055 C
HETATM   23  C7  UNL     1     -20.193  -0.645   0.649  1.00  0.00     0.045 C
HETATM   24  C8  UNL     1     -20.903  -2.368  -0.847  1.00  0.00     0.045 C
BRANCH  22  25
HETATM   25  O1  UNL     1     -18.756  -1.488  -0.938  1.00  0.00    -0.390 OA
ATOM     26  H1  UNL     1     -18.153  -1.129  -0.298  1.00  0.00     0.210 HD
ENDBRANCH  22  25
ENDBRANCH   5  22
TORSDOF 8
ENDMDL