MODEL 2
REMARK VINA RESULT: -7.906649068      2.405      4.423
REMARK  6 active torsions:
REMARK  status: ('A' for Active; 'I' for Inactive)
REMARK    1  A    between atoms: S1_2  and  C2_3
REMARK    2  A    between atoms: C2_3  and  C3_4
REMARK    3  A    between atoms: C3_4  and  C4_5
REMARK    4  A    between atoms: C4_5  and  C18_19
REMARK    5  A    between atoms: C5_6  and  C6_7
REMARK       I    between atoms: C18_19  and  N1_21
REMARK    6  A    between atoms: N1_21  and  C19_23
ROOT
HETATM    1  C4  UNL     1      21.304   0.528 -27.205  1.00  0.00     0.026 C
HETATM    2  C5  UNL     1      21.721   0.660 -25.826  1.00  0.00    -0.000 C
ENDROOT
BRANCH   1   3
HETATM    3  C3  UNL     1      20.058  -0.158 -27.624  1.00  0.00     0.000 C
BRANCH   3   4
HETATM    4  C2  UNL     1      19.653  -0.244 -29.015  1.00  0.00     0.101 C
BRANCH   4   5
HETATM    5  S1  UNL     1      19.445  -1.998 -29.451  1.00  0.00    -0.170 SA
HETATM    6  C1  UNL     1      20.380  -2.348 -30.955  1.00  0.00     0.090 C
ENDBRANCH   4   5
ENDBRANCH   3   4
ENDBRANCH   1   3
BRANCH   1   7
HETATM    7  C18 UNL     1      22.425   0.262 -28.174  1.00  0.00     0.251 C
HETATM    8  O1  UNL     1      22.884  -0.891 -28.199  1.00  0.00    -0.268 OA
HETATM    9  N1  UNL     1      22.960   1.233 -29.028  1.00  0.00    -0.351 N
ATOM     10  H1  UNL     1      22.571   2.176 -28.997  1.00  0.00     0.163 HD
BRANCH   9  11
HETATM   11  C19 UNL     1      24.046   0.957 -29.957  1.00  0.00     0.112 C
HETATM   12  C20 UNL     1      23.600   1.305 -31.337  1.00  0.00     0.054 C
HETATM   13  C21 UNL     1      24.831   1.827 -32.006  1.00  0.00     0.234 C
HETATM   14  N2  UNL     1      25.756   2.225 -30.992  1.00  0.00    -0.073 N
HETATM   15  C22 UNL     1      25.254   1.797 -29.726  1.00  0.00     0.257 C
ATOM     16  H22 UNL     1      26.703   1.889 -31.172  1.00  0.00     0.277 HD
ATOM     17  H21 UNL     1      25.955   3.225 -31.015  1.00  0.00     0.277 HD
ENDBRANCH   9  11
ENDBRANCH   1   7
BRANCH   2  18
HETATM   18  C6  UNL     1      21.955  -0.380 -24.835  1.00  0.00    -0.017 C
HETATM   19  C7  UNL     1      22.825  -1.558 -25.259  1.00  0.00     0.020 C
HETATM   20  C8  UNL     1      22.985   0.274 -23.778  1.00  0.00     0.020 C
HETATM   21  C9  UNL     1      21.792   0.730 -23.064  1.00  0.00     0.003 C
HETATM   22  C10 UNL     1      21.829   0.838 -21.583  1.00  0.00    -0.043 C
HETATM   23  C16 UNL     1      21.100  -0.485 -23.636  1.00  0.00    -0.029 C
HETATM   24  C11 UNL     1      20.705   1.746 -21.130  1.00  0.00     0.015 C
HETATM   25  C12 UNL     1      23.135   1.578 -21.226  1.00  0.00     0.015 C
HETATM   26  C13 UNL     1      21.774  -0.395 -20.784  1.00  0.00     0.009 C
HETATM   27  C14 UNL     1      20.749  -1.356 -21.368  1.00  0.00     0.002 C
HETATM   28  C15 UNL     1      21.283  -1.685 -22.749  1.00  0.00     0.010 C
HETATM   29  C17 UNL     1      19.617  -0.186 -23.723  1.00  0.00     0.016 C
ENDBRANCH   2  18
TORSDOF 6
ENDMDL