MODEL 1
REMARK VINA RESULT: -7.414694769      0.000      0.000
REMARK  10 active torsions:
REMARK  status: ('A' for Active; 'I' for Inactive)
REMARK    1  A    between atoms: C3_3  and  C4_4
REMARK    2  A    between atoms: C4_4  and  C6_6
REMARK    3  A    between atoms: C6_6  and  C7_7
REMARK    4  A    between atoms: C7_7  and  C8_8
REMARK    5  A    between atoms: C8_8  and  O1_9
REMARK    6  A    between atoms: C8_8  and  C9_11
REMARK    7  A    between atoms: C13_15  and  C15_17
REMARK    8  A    between atoms: C15_17  and  C16_18
REMARK    9  A    between atoms: C16_18  and  S1_19
REMARK   10  A    between atoms: S1_19  and  N1_20
ROOT
HETATM    1  C9  UNL     1      21.978  -1.169 -25.761  1.00  0.00    -0.051 C
HETATM    2  C10 UNL     1      20.649  -1.209 -25.771  1.00  0.00    -0.021 C
HETATM    3  C11 UNL     1      19.970  -1.197 -27.084  1.00  0.00     0.033 C
HETATM    4  C12 UNL     1      20.637  -0.352 -28.133  1.00  0.00     0.005 C
HETATM    5  C13 UNL     1      20.102  -0.775 -29.490  1.00  0.00    -0.039 C
HETATM    6  C14 UNL     1      20.474  -2.167 -29.858  1.00  0.00     0.015 C
HETATM    7  C17 UNL     1      20.681   0.277 -30.450  1.00  0.00     0.010 C
HETATM    8  C18 UNL     1      22.135   0.010 -30.569  1.00  0.00     0.002 C
HETATM    9  C19 UNL     1      22.858  -0.305 -29.330  1.00  0.00     0.010 C
HETATM   10  C20 UNL     1      22.089  -0.190 -28.039  1.00  0.00    -0.036 C
HETATM   11  C21 UNL     1      22.410   1.230 -27.533  1.00  0.00     0.016 C
HETATM   12  C22 UNL     1      22.689  -1.130 -27.030  1.00  0.00     0.046 C
ENDROOT
BRANCH   1  13
HETATM   13  C8  UNL     1      22.643  -1.187 -24.396  1.00  0.00     0.170 C
BRANCH  13  14
HETATM   14  C7  UNL     1      22.949   0.204 -24.013  1.00  0.00     0.009 C
BRANCH  14  15
HETATM   15  C6  UNL     1      22.423   0.845 -22.859  1.00  0.00     0.005 C
BRANCH  15  16
HETATM   16  C4  UNL     1      21.443   1.708 -22.697  1.00  0.00    -0.062 C
HETATM   17  C5  UNL     1      21.625   2.947 -21.954  1.00  0.00     0.048 C
BRANCH  16  18
HETATM   18  C3  UNL     1      20.139   1.307 -23.205  1.00  0.00     0.002 C
HETATM   19  C2  UNL     1      19.489   1.574 -24.278  1.00  0.00    -0.030 C
HETATM   20  C1  UNL     1      19.767   2.388 -25.456  1.00  0.00     0.036 C
ENDBRANCH  16  18
ENDBRANCH  15  16
ENDBRANCH  14  15
ENDBRANCH  13  14
BRANCH  13  21
HETATM   21  O1  UNL     1      23.812  -1.968 -24.546  1.00  0.00    -0.387 OA
ATOM     22  H1  UNL     1      24.099  -2.014 -25.450  1.00  0.00     0.210 HD
ENDBRANCH  13  21
ENDBRANCH   1  13
BRANCH   5  23
HETATM   23  C15 UNL     1      18.601  -0.676 -29.496  1.00  0.00     0.024 C
BRANCH  23  24
HETATM   24  C16 UNL     1      17.854  -1.942 -29.674  1.00  0.00     0.132 C
BRANCH  24  25
HETATM   25  S1  UNL     1      16.918  -1.772 -31.232  1.00  0.00     0.107 S
HETATM   26  O2  UNL     1      15.809  -0.741 -31.043  1.00  0.00    -0.236 OA
BRANCH  25  27
HETATM   27  N1  UNL     1      17.953  -1.196 -32.508  1.00  0.00    -0.350 NA
ATOM     28  H12 UNL     1      17.396  -1.162 -33.361  1.00  0.00     0.166 HD
ATOM     29  H11 UNL     1      18.299  -0.260 -32.294  1.00  0.00     0.166 HD
ENDBRANCH  25  27
ENDBRANCH  24  25
ENDBRANCH  23  24
ENDBRANCH   5  23
TORSDOF 10
ENDMDL