MODEL 4
REMARK VINA RESULT: -7.948648554      1.584      2.375
REMARK  8 active torsions:
REMARK  status: ('A' for Active; 'I' for Inactive)
REMARK    1  A    between atoms: C2_2  and  C5_5
REMARK    2  A    between atoms: C8_8  and  C9_9
REMARK    3  A    between atoms: C9_9  and  C10_10
REMARK    4  A    between atoms: C10_10  and  C11_11
REMARK    5  A    between atoms: C11_11  and  C12_12
REMARK    6  A    between atoms: C12_12  and  C13_13
REMARK    7  A    between atoms: C13_13  and  C14_14
REMARK       I    between atoms: C14_14  and  N1_16
REMARK    8  A    between atoms: N1_16  and  S1_18
ROOT
HETATM    1  C5  UNL     1      21.814   1.361 -30.643  1.00  0.00    -0.006 C
HETATM    2  C6  UNL     1      22.871   1.834 -29.671  1.00  0.00     0.006 C
HETATM    3  C7  UNL     1      22.719   1.095 -28.351  1.00  0.00     0.006 C
HETATM    4  C8  UNL     1      21.222   0.767 -28.121  1.00  0.00    -0.006 C
HETATM    5  C15 UNL     1      20.771  -0.279 -29.045  1.00  0.00    -0.036 C
HETATM    6  C16 UNL     1      20.964  -1.706 -28.671  1.00  0.00     0.010 C
HETATM    7  C17 UNL     1      19.934  -2.478 -29.504  1.00  0.00     0.001 C
HETATM    8  C18 UNL     1      18.749  -1.572 -29.545  1.00  0.00     0.001 C
HETATM    9  C19 UNL     1      19.325  -0.184 -29.466  1.00  0.00     0.010 C
HETATM   10  C20 UNL     1      21.584  -0.101 -30.346  1.00  0.00     0.015 C
ENDROOT
BRANCH   4  11
HETATM   11  C9  UNL     1      21.090   0.529 -26.651  1.00  0.00     0.005 C
BRANCH  11  12
HETATM   12  C10 UNL     1      22.334   0.206 -25.918  1.00  0.00     0.000 C
BRANCH  12  13
HETATM   13  C11 UNL     1      22.476  -1.290 -25.753  1.00  0.00     0.000 C
BRANCH  13  14
HETATM   14  C12 UNL     1      23.118  -1.636 -24.443  1.00  0.00     0.009 C
BRANCH  14  15
HETATM   15  C13 UNL     1      22.107  -1.988 -23.396  1.00  0.00     0.104 C
BRANCH  15  16
HETATM   16  C14 UNL     1      21.539  -0.860 -22.649  1.00  0.00     0.233 C
HETATM   17  O1  UNL     1      20.338  -0.734 -22.317  1.00  0.00    -0.273 OA
HETATM   18  N1  UNL     1      22.397   0.227 -22.236  1.00  0.00    -0.235 N
ATOM     19  H1  UNL     1      23.388   0.185 -22.475  1.00  0.00     0.184 HD
BRANCH  18  20
HETATM   20  S1  UNL     1      21.822   1.576 -21.367  1.00  0.00     0.211 S
HETATM   21  O2  UNL     1      20.982   2.466 -22.247  1.00  0.00    -0.578 OA
HETATM   22  O3  UNL     1      22.990   2.417 -20.904  1.00  0.00    -0.578 OA
HETATM   23  O4  UNL     1      20.941   1.031 -20.045  1.00  0.00    -0.578 OA
ENDBRANCH  18  20
ENDBRANCH  15  16
ENDBRANCH  14  15
ENDBRANCH  13  14
ENDBRANCH  12  13
ENDBRANCH  11  12
ENDBRANCH   4  11
BRANCH   1  24
HETATM   24  C2  UNL     1      22.261   1.454 -32.077  1.00  0.00    -0.048 C
HETATM   25  C1  UNL     1      22.429   0.031 -32.586  1.00  0.00     0.015 C
HETATM   26  C3  UNL     1      21.302   2.161 -32.965  1.00  0.00     0.015 C
HETATM   27  C4  UNL     1      23.656   2.087 -32.173  1.00  0.00     0.015 C
ENDBRANCH   1  24
TORSDOF 8
ENDMDL