MODEL 4
REMARK VINA RESULT: -7.352153990      1.323      1.793
REMARK  7 active torsions:
REMARK  status: ('A' for Active; 'I' for Inactive)
REMARK    1  A    between atoms: C2_2  and  C3_3
REMARK    2  A    between atoms: C4_4  and  C5_5
REMARK    3  A    between atoms: C10_10  and  C12_12
REMARK    4  A    between atoms: C14_14  and  C15_15
REMARK    5  A    between atoms: C16_18  and  C18_20
REMARK    6  A    between atoms: C19_23  and  C20_24
REMARK    7  A    between atoms: C20_24  and  C21_25
ROOT
HETATM    1  C5  UNL     1      22.177   0.175 -28.251  1.00  0.00     0.017 C
HETATM    2  C6  UNL     1      21.793   0.172 -29.722  1.00  0.00     0.009 C
HETATM    3  C7  UNL     1      20.810  -0.848 -30.124  1.00  0.00     0.001 C
HETATM    4  C8  UNL     1      20.792  -1.880 -29.021  1.00  0.00     0.001 C
HETATM    5  C9  UNL     1      20.148  -1.176 -27.857  1.00  0.00     0.010 C
HETATM    6  C10 UNL     1      21.034   0.000 -27.332  1.00  0.00    -0.028 C
HETATM    7  C11 UNL     1      20.171   1.256 -27.668  1.00  0.00     0.016 C
ENDROOT
BRANCH   6   8
HETATM    8  C12 UNL     1      21.018  -0.156 -25.898  1.00  0.00    -0.003 A
HETATM    9  C13 UNL     1      19.490  -0.522 -25.607  1.00  0.00     0.018 C
HETATM   10  C14 UNL     1      21.737  -1.087 -24.999  1.00  0.00     0.116 A
HETATM   11  C16 UNL     1      21.699   0.447 -24.810  1.00  0.00     0.068 A
HETATM   12  C17 UNL     1      23.127   0.905 -24.642  1.00  0.00     0.029 C
BRANCH  10  13
HETATM   13  C15 UNL     1      22.925  -1.846 -25.182  1.00  0.00     0.179 C
HETATM   14  O1  UNL     1      23.172  -2.547 -26.158  1.00  0.00    -0.648 OA
HETATM   15  O2  UNL     1      23.941  -1.853 -24.232  1.00  0.00    -0.648 OA
ENDBRANCH  10  13
BRANCH  11  16
HETATM   16  C18 UNL     1      20.951   1.052 -23.682  1.00  0.00     0.183 C
HETATM   17  O3  UNL     1      20.473   2.185 -23.733  1.00  0.00    -0.647 OA
HETATM   18  O4  UNL     1      20.719   0.384 -22.461  1.00  0.00    -0.647 OA
ENDBRANCH  11  16
ENDBRANCH   6   8
BRANCH   1  19
HETATM   19  C4  UNL     1      22.784   1.525 -28.139  1.00  0.00    -0.021 C
HETATM   20  C3  UNL     1      23.619   2.136 -28.871  1.00  0.00     0.003 C
BRANCH  20  21
HETATM   21  C2  UNL     1      24.314   1.813 -30.106  1.00  0.00    -0.066 C
HETATM   22  C1  UNL     1      25.588   1.111 -30.149  1.00  0.00     0.048 C
HETATM   23  C19 UNL     1      23.702   2.109 -31.262  1.00  0.00    -0.018 C
BRANCH  23  24
HETATM   24  C20 UNL     1      24.200   1.796 -32.580  1.00  0.00     0.061 C
BRANCH  24  25
HETATM   25  C21 UNL     1      23.095   1.130 -33.411  1.00  0.00     0.148 A
HETATM   26  C22 UNL     1      23.390   0.387 -34.604  1.00  0.00     0.200 A
HETATM   27  O5  UNL     1      23.202  -0.342 -33.397  1.00  0.00    -0.381 OA
ENDBRANCH  24  25
ENDBRANCH  23  24
ENDBRANCH  20  21
ENDBRANCH   1  19
TORSDOF 7
ENDMDL