MODEL 3
REMARK VINA RESULT: -6.962805231      2.335      6.825
REMARK  8 active torsions:
REMARK  status: ('A' for Active; 'I' for Inactive)
REMARK    1  A    between atoms: C2_2  and  C3_3
REMARK    2  A    between atoms: C3_3  and  C4_4
REMARK    3  A    between atoms: C11_11  and  C12_12
REMARK    4  A    between atoms: C12_12  and  O1_14
REMARK    5  A    between atoms: C12_12  and  C14_16
REMARK    6  A    between atoms: C14_16  and  C15_17
REMARK    7  A    between atoms: C16_18  and  C18_20
REMARK    8  A    between atoms: C22_24  and  C23_25
ROOT
HETATM    1  C4  UNL     1      21.256  -1.384 -28.616  1.00  0.00     0.069 C
HETATM    2  C5  UNL     1      20.935  -2.283 -29.830  1.00  0.00     0.039 C
HETATM    3  C6  UNL     1      20.675  -1.516 -31.069  1.00  0.00     0.008 C
HETATM    4  C7  UNL     1      20.060  -0.202 -30.676  1.00  0.00     0.003 C
HETATM    5  C8  UNL     1      21.175   0.806 -30.587  1.00  0.00     0.037 C
HETATM    6  C9  UNL     1      22.087   0.633 -29.419  1.00  0.00     0.123 C
HETATM    7  C10 UNL     1      21.546   1.504 -28.294  1.00  0.00     0.040 C
HETATM    8  C11 UNL     1      20.413   0.795 -27.612  1.00  0.00     0.030 C
HETATM    9  C21 UNL     1      20.110  -0.555 -28.176  1.00  0.00     0.042 C
HETATM   10  C22 UNL     1      19.251  -0.306 -29.429  1.00  0.00     0.098 C
HETATM   11  O4  UNL     1      22.356  -0.648 -29.034  1.00  0.00    -0.374 OA
ENDROOT
BRANCH   8  12
HETATM   12  C12 UNL     1      20.554   0.950 -26.151  1.00  0.00     0.061 C
HETATM   13  C13 UNL     1      19.816   2.266 -25.799  1.00  0.00     0.046 C
BRANCH  12  14
HETATM   14  O1  UNL     1      21.853   1.197 -25.734  1.00  0.00    -0.390 OA
ATOM     15  H1  UNL     1      22.093   0.746 -24.933  1.00  0.00     0.210 HD
ENDBRANCH  12  14
BRANCH  12  16
HETATM   16  C14 UNL     1      19.870  -0.108 -25.330  1.00  0.00     0.065 C
BRANCH  16  17
HETATM   17  C15 UNL     1      19.958   0.211 -23.877  1.00  0.00    -0.021 C
HETATM   18  C16 UNL     1      20.601  -0.573 -23.014  1.00  0.00    -0.084 C
HETATM   19  C17 UNL     1      21.279  -1.829 -23.440  1.00  0.00     0.043 C
BRANCH  18  20
HETATM   20  C18 UNL     1      20.656  -0.208 -21.573  1.00  0.00     0.005 C
HETATM   21  C19 UNL     1      21.877   0.599 -21.237  1.00  0.00     0.014 C
HETATM   22  C20 UNL     1      20.642  -1.443 -20.706  1.00  0.00     0.014 C
ENDBRANCH  18  20
ENDBRANCH  16  17
ENDBRANCH  12  16
ENDBRANCH   8  12
BRANCH   1  23
HETATM   23  C3  UNL     1      21.696  -2.442 -27.602  1.00  0.00     0.065 C
BRANCH  23  24
HETATM   24  C2  UNL     1      22.816  -1.976 -26.763  1.00  0.00    -0.034 C
HETATM   25  C1  UNL     1      23.578  -2.788 -26.050  1.00  0.00     0.007 C
ENDBRANCH  23  24
ENDBRANCH   1  23
BRANCH  10  26
HETATM   26  C23 UNL     1      18.147  -1.242 -29.580  1.00  0.00     0.177 C
HETATM   27  O2  UNL     1      17.296  -1.086 -30.490  1.00  0.00    -0.648 OA
HETATM   28  O3  UNL     1      17.982  -2.334 -28.738  1.00  0.00    -0.648 OA
ENDBRANCH  10  26
TORSDOF 8
ENDMDL