MODEL 5
REMARK VINA RESULT: -5.938809150      3.577      7.517
REMARK  11 active torsions:
REMARK  status: ('A' for Active; 'I' for Inactive)
REMARK    1  A    between atoms: O1_2  and  C2_3
REMARK    2  A    between atoms: C4_5  and  C5_6
REMARK    3  A    between atoms: C5_6  and  N1_7
REMARK    4  A    between atoms: N1_7  and  C6_8
REMARK    5  A    between atoms: C9_11  and  O2_12
REMARK    6  A    between atoms: C9_11  and  C10_14
REMARK    7  A    between atoms: C10_14  and  C11_15
REMARK    8  A    between atoms: C10_14  and  C17_21
REMARK    9  A    between atoms: C11_15  and  C12_16
REMARK   10  A    between atoms: C12_16  and  C13_17
REMARK   11  A    between atoms: C17_21  and  O3_24
ROOT
HETATM    1  C2  UNL     1      23.508   1.980 -32.631  1.00  0.00     0.132 C
HETATM    2  C3  UNL     1      23.470   1.188 -31.355  1.00  0.00     0.046 C
HETATM    3  C4  UNL     1      22.340   0.290 -31.543  1.00  0.00     0.076 C
HETATM    4  C9  UNL     1      22.214   0.078 -33.067  1.00  0.00     0.083 C
HETATM    5  C20 UNL     1      22.397   1.466 -33.536  1.00  0.00     0.011 C
HETATM    6  C21 UNL     1      23.009   1.550 -34.941  1.00  0.00     0.020 C
HETATM    7  C22 UNL     1      21.319   2.445 -33.437  1.00  0.00     0.020 C
ENDROOT
BRANCH   4   8
HETATM    8  O2  UNL     1      23.423  -0.473 -33.455  1.00  0.00    -0.388 OA
ATOM      9  H2  UNL     1      23.476  -0.318 -34.391  1.00  0.00     0.210 HD
ENDBRANCH   4   8
BRANCH   4  10
HETATM   10  C10 UNL     1      21.119  -0.771 -33.407  1.00  0.00     0.055 C
BRANCH  10  11
HETATM   11  C11 UNL     1      21.231  -2.179 -32.783  1.00  0.00     0.014 C
BRANCH  11  12
HETATM   12  C12 UNL     1      20.472  -2.475 -31.596  1.00  0.00     0.028 C
BRANCH  12  13
HETATM   13  C13 UNL     1      19.013  -2.265 -31.732  1.00  0.00    -0.025 C
HETATM   14  C14 UNL     1      18.060  -1.869 -30.983  1.00  0.00    -0.091 C
HETATM   15  C15 UNL     1      16.660  -1.826 -31.624  1.00  0.00     0.042 C
HETATM   16  C16 UNL     1      18.083  -1.440 -29.592  1.00  0.00     0.042 C
ENDBRANCH  12  13
ENDBRANCH  11  12
ENDBRANCH  10  11
BRANCH  10  17
HETATM   17  C17 UNL     1      20.485  -0.931 -34.720  1.00  0.00     0.057 C
HETATM   18  C18 UNL     1      19.596   0.092 -35.267  1.00  0.00     0.045 C
HETATM   19  C19 UNL     1      19.889  -2.301 -35.024  1.00  0.00     0.045 C
BRANCH  17  20
HETATM   20  O3  UNL     1      21.593  -0.988 -35.639  1.00  0.00    -0.390 OA
ATOM     21  H3  UNL     1      21.618  -1.897 -35.915  1.00  0.00     0.210 HD
ENDBRANCH  17  20
ENDBRANCH  10  17
ENDBRANCH   4  10
BRANCH   3  22
HETATM   22  C5  UNL     1      21.121   0.550 -30.844  1.00  0.00     0.162 C
BRANCH  22  23
HETATM   23  N1  UNL     1      21.154   0.420 -29.591  1.00  0.00    -0.431 NA
BRANCH  23  24
HETATM   24  C6  UNL     1      21.174   0.205 -28.336  1.00  0.00     0.053 C
HETATM   25  C7  UNL     1      22.074  -0.862 -27.953  1.00  0.00     0.079 C
HETATM   26  C8  UNL     1      20.301   1.053 -27.558  1.00  0.00     0.079 C
ENDBRANCH  23  24
ENDBRANCH  22  23
ENDBRANCH   3  22
BRANCH   1  27
HETATM   27  O1  UNL     1      24.773   1.902 -33.195  1.00  0.00    -0.390 OA
HETATM   28  C1  UNL     1      25.787   2.056 -32.252  1.00  0.00     0.202 C
ENDBRANCH   1  27
TORSDOF 11
ENDMDL