MODEL 5
REMARK VINA RESULT: -7.740181444      4.574      9.659
REMARK  9 active torsions:
REMARK  status: ('A' for Active; 'I' for Inactive)
REMARK    1  A    between atoms: C2_2  and  N1_3
REMARK    2  A    between atoms: N1_3  and  C3_5
REMARK    3  A    between atoms: C3_5  and  C4_6
REMARK    4  A    between atoms: C4_6  and  C5_7
REMARK    5  A    between atoms: C5_7  and  C6_8
REMARK       I    between atoms: C6_8  and  N2_10
REMARK    6  A    between atoms: N2_10  and  C7_12
REMARK    7  A    between atoms: C15_20  and  O2_21
REMARK    8  A    between atoms: O2_21  and  C16_22
REMARK    9  A    between atoms: C16_22  and  C17_24
ROOT
HETATM    1  N1  UNL     1      20.845  -0.380 -29.641  1.00  0.00    -0.413 N
ATOM      2  H1  UNL     1      21.033  -0.060 -30.591  1.00  0.00     0.154 HD
ENDROOT
BRANCH   1   3
HETATM    3  C2  UNL     1      21.631   0.067 -28.522  1.00  0.00     0.022 C
HETATM    4  C1  UNL     1      23.114   0.047 -28.911  1.00  0.00     0.038 C
HETATM    5  C13 UNL     1      21.387  -0.949 -27.422  1.00  0.00     0.033 C
HETATM    6  C14 UNL     1      21.646  -0.403 -26.053  1.00  0.00     0.035 C
HETATM    7  C15 UNL     1      21.021   0.923 -25.771  1.00  0.00     0.132 C
HETATM    8  C21 UNL     1      20.234   1.338 -26.988  1.00  0.00     0.035 C
HETATM    9  C22 UNL     1      21.252   1.446 -28.134  1.00  0.00     0.033 C
BRANCH   7  10
HETATM   10  O2  UNL     1      20.300   0.981 -24.581  1.00  0.00    -0.315 OA
BRANCH  10  11
HETATM   11  C16 UNL     1      20.796   1.354 -23.358  1.00  0.00     0.267 C
HETATM   12  O3  UNL     1      20.815   2.571 -23.064  1.00  0.00    -0.264 OA
BRANCH  11  13
HETATM   13  C17 UNL     1      21.305   0.345 -22.389  1.00  0.00     0.037 C
HETATM   14  C18 UNL     1      22.755   0.023 -22.685  1.00  0.00     0.025 C
HETATM   15  C19 UNL     1      20.535  -0.953 -22.482  1.00  0.00     0.025 C
HETATM   16  C20 UNL     1      21.194   0.893 -20.984  1.00  0.00     0.025 C
ENDBRANCH  11  13
ENDBRANCH  10  11
ENDBRANCH   7  10
ENDBRANCH   1   3
BRANCH   1  17
HETATM   17  C3  UNL     1      19.792  -1.292 -29.353  1.00  0.00     0.115 C
BRANCH  17  18
HETATM   18  C4  UNL     1      20.042  -2.533 -30.219  1.00  0.00     0.028 C
BRANCH  18  19
HETATM   19  C5  UNL     1      20.090  -2.256 -31.674  1.00  0.00     0.104 C
BRANCH  19  20
HETATM   20  C6  UNL     1      18.889  -1.650 -32.266  1.00  0.00     0.217 C
HETATM   21  O1  UNL     1      18.891  -0.533 -32.881  1.00  0.00    -0.274 OA
HETATM   22  N2  UNL     1      17.638  -2.326 -32.163  1.00  0.00    -0.356 N
ATOM     23  H2  UNL     1      17.581  -3.223 -31.682  1.00  0.00     0.162 HD
BRANCH  22  24
HETATM   24  C7  UNL     1      16.461  -1.745 -32.735  1.00  0.00     0.084 C
HETATM   25  C8  UNL     1      15.691  -2.795 -33.495  1.00  0.00     0.025 C
HETATM   26  C9  UNL     1      14.223  -2.770 -33.234  1.00  0.00     0.002 C
HETATM   27  C10 UNL     1      13.627  -1.377 -33.244  1.00  0.00     0.000 C
HETATM   28  C11 UNL     1      14.427  -0.438 -32.364  1.00  0.00     0.002 C
HETATM   29  C12 UNL     1      15.550  -1.182 -31.665  1.00  0.00     0.025 C
ENDBRANCH  22  24
ENDBRANCH  19  20
ENDBRANCH  18  19
ENDBRANCH  17  18
ENDBRANCH   1  17
TORSDOF 9
ENDMDL