MODEL 5
REMARK VINA RESULT: -7.788011555      2.009      4.082
REMARK  8 active torsions:
REMARK  status: ('A' for Active; 'I' for Inactive)
REMARK    1  A    between atoms: C4_4  and  C5_5
REMARK    2  A    between atoms: C5_5  and  O1_6
REMARK    3  A    between atoms: O1_6  and  C6_7
REMARK    4  A    between atoms: C8_9  and  N1_10
REMARK    5  A    between atoms: N1_10  and  C9_12
REMARK    6  A    between atoms: C9_12  and  C10_13
REMARK    7  A    between atoms: C18_21  and  N2_22
REMARK       I    between atoms: N2_22  and  C19_24
REMARK    8  A    between atoms: C19_24  and  C20_26
ROOT
HETATM    1  C6  UNL     1      20.405  -0.802 -28.446  1.00  0.00     0.146 C
HETATM    2  C7  UNL     1      20.456  -0.004 -27.124  1.00  0.00     0.058 C
HETATM    3  C8  UNL     1      21.805   0.001 -26.485  1.00  0.00     0.079 C
HETATM    4  C16 UNL     1      22.698  -0.943 -27.270  1.00  0.00     0.027 C
HETATM    5  C17 UNL     1      22.785  -0.434 -28.680  1.00  0.00     0.030 C
HETATM    6  C18 UNL     1      21.420  -0.246 -29.342  1.00  0.00     0.113 C
ENDROOT
BRANCH   3   7
HETATM    7  N1  UNL     1      21.685  -0.381 -25.115  1.00  0.00    -0.417 N
ATOM      8  H1  UNL     1      22.434  -0.900 -24.656  1.00  0.00     0.153 HD
BRANCH   7   9
HETATM    9  C9  UNL     1      20.528  -0.035 -24.411  1.00  0.00     0.118 C
BRANCH   9  10
HETATM   10  C10 UNL     1      20.411  -0.859 -23.123  1.00  0.00     0.003 C
HETATM   11  C11 UNL     1      21.003  -0.133 -21.953  1.00  0.00     0.006 C
HETATM   12  C12 UNL     1      20.581  -0.855 -20.687  1.00  0.00     0.000 C
HETATM   13  C13 UNL     1      20.182  -2.280 -20.983  1.00  0.00     0.000 C
HETATM   14  C14 UNL     1      21.084  -2.931 -21.988  1.00  0.00     0.000 C
HETATM   15  C15 UNL     1      21.232  -2.151 -23.271  1.00  0.00     0.006 C
ENDBRANCH   9  10
ENDBRANCH   7   9
ENDBRANCH   3   7
BRANCH   1  16
HETATM   16  O1  UNL     1      19.107  -0.743 -28.848  1.00  0.00    -0.380 OA
BRANCH  16  17
HETATM   17  C5  UNL     1      18.486  -1.868 -29.274  1.00  0.00     0.196 C
BRANCH  17  18
HETATM   18  C4  UNL     1      17.262  -1.558 -30.044  1.00  0.00     0.001 C
HETATM   19  C2  UNL     1      17.050  -1.778 -31.317  1.00  0.00    -0.089 C
HETATM   20  C1  UNL     1      18.056  -2.394 -32.193  1.00  0.00     0.042 C
HETATM   21  C3  UNL     1      15.733  -1.419 -31.957  1.00  0.00     0.042 C
ENDBRANCH  17  18
ENDBRANCH  16  17
ENDBRANCH   1  16
BRANCH   6  22
HETATM   22  N2  UNL     1      21.514  -0.794 -30.665  1.00  0.00    -0.353 N
HETATM   23  C19 UNL     1      21.460   0.046 -31.846  1.00  0.00     0.225 C
HETATM   24  O2  UNL     1      21.331   1.271 -31.656  1.00  0.00    -0.273 OA
ATOM     25  H2  UNL     1      21.622  -1.802 -30.778  1.00  0.00     0.163 HD
BRANCH  23  26
HETATM   26  C20 UNL     1      21.549  -0.494 -33.196  1.00  0.00     0.030 C
HETATM   27  C21 UNL     1      22.811  -0.010 -33.916  1.00  0.00     0.024 C
HETATM   28  C22 UNL     1      21.506  -1.988 -33.308  1.00  0.00     0.024 C
HETATM   29  C23 UNL     1      20.350   0.030 -34.024  1.00  0.00     0.024 C
ENDBRANCH  23  26
ENDBRANCH   6  22
TORSDOF 8
ENDMDL