MODEL 1
REMARK VINA RESULT: -8.196911133      0.000      0.000
REMARK  8 active torsions:
REMARK  status: ('A' for Active; 'I' for Inactive)
REMARK       I    between atoms: C1_2  and  N1_3
REMARK    1  A    between atoms: C1_2  and  O2_23
REMARK    2  A    between atoms: N1_3  and  C2_5
REMARK    3  A    between atoms: C7_10  and  N2_11
REMARK    4  A    between atoms: N2_11  and  C8_13
REMARK    5  A    between atoms: C8_13  and  C9_14
REMARK    6  A    between atoms: C11_16  and  C12_17
REMARK    7  A    between atoms: O2_23  and  C16_24
REMARK    8  A    between atoms: C16_24  and  C17_25
ROOT
HETATM    1  C2  UNL     1      23.404   1.164 -30.004  1.00  0.00     0.109 C
HETATM    2  C3  UNL     1      24.822   1.731 -29.736  1.00  0.00     0.027 C
HETATM    3  C4  UNL     1      25.433   2.316 -30.967  1.00  0.00     0.002 C
HETATM    4  C5  UNL     1      25.247   1.478 -32.189  1.00  0.00     0.002 C
HETATM    5  C6  UNL     1      23.799   1.204 -32.383  1.00  0.00     0.027 C
HETATM    6  C7  UNL     1      22.940   1.804 -31.249  1.00  0.00     0.099 C
ENDROOT
BRANCH   1   7
HETATM    7  N1  UNL     1      22.679   1.409 -28.808  1.00  0.00    -0.330 N
HETATM    8  C1  UNL     1      22.458   0.364 -27.879  1.00  0.00     0.360 C
HETATM    9  O1  UNL     1      22.894  -0.803 -28.083  1.00  0.00    -0.239 OA
ATOM     10  H1  UNL     1      22.317   2.342 -28.617  1.00  0.00     0.165 HD
BRANCH   8  11
HETATM   11  O2  UNL     1      21.753   0.544 -26.694  1.00  0.00    -0.304 OA
BRANCH  11  12
HETATM   12  C16 UNL     1      21.054  -0.498 -26.057  1.00  0.00     0.185 C
BRANCH  12  13
HETATM   13  C17 UNL     1      21.334  -0.542 -24.568  1.00  0.00     0.010 C
HETATM   14  C18 UNL     1      22.521   0.360 -24.316  1.00  0.00     0.007 C
HETATM   15  C19 UNL     1      23.062   0.212 -22.930  1.00  0.00     0.000 C
HETATM   16  C20 UNL     1      22.034   0.673 -21.932  1.00  0.00     0.000 C
HETATM   17  C21 UNL     1      21.135  -0.498 -21.618  1.00  0.00     0.000 C
HETATM   18  C22 UNL     1      19.929  -0.552 -22.495  1.00  0.00     0.000 C
HETATM   19  C23 UNL     1      20.140   0.041 -23.860  1.00  0.00     0.007 C
ENDBRANCH  12  13
ENDBRANCH  11  12
ENDBRANCH   8  11
ENDBRANCH   1   7
BRANCH   6  20
HETATM   20  N2  UNL     1      21.602   1.638 -31.669  1.00  0.00    -0.415 N
ATOM     21  H2  UNL     1      20.835   2.004 -31.105  1.00  0.00     0.153 HD
BRANCH  20  22
HETATM   22  C8  UNL     1      21.336   0.960 -32.881  1.00  0.00     0.119 C
BRANCH  22  23
HETATM   23  C9  UNL     1      20.570  -0.339 -32.596  1.00  0.00     0.010 A
HETATM   24  C10 UNL     1      21.377  -1.609 -33.006  1.00  0.00     0.014 A
HETATM   25  C11 UNL     1      20.997  -1.300 -31.586  1.00  0.00     0.018 A
BRANCH  25  26
HETATM   26  C12 UNL     1      19.965  -2.253 -30.968  1.00  0.00     0.108 A
HETATM   27  C13 UNL     1      20.161  -2.259 -29.499  1.00  0.00    -0.000 A
HETATM   28  C14 UNL     1      19.056  -1.782 -28.936  1.00  0.00     0.015 A
HETATM   29  C15 UNL     1      18.115  -1.453 -30.003  1.00  0.00     0.083 A
HETATM   30  N3  UNL     1      18.624  -1.717 -31.144  1.00  0.00    -0.391 N
ATOM     31  H3  UNL     1      18.162  -1.574 -32.041  1.00  0.00     0.159 HD
ENDBRANCH  25  26
ENDBRANCH  22  23
ENDBRANCH  20  22
ENDBRANCH   6  20
TORSDOF 8
ENDMDL