MODEL 1
REMARK VINA RESULT: -7.582261254      0.000      0.000
REMARK  9 active torsions:
REMARK  status: ('A' for Active; 'I' for Inactive)
REMARK    1  A    between atoms: C2_2  and  C3_3
REMARK    2  A    between atoms: C3_3  and  C4_4
REMARK    3  A    between atoms: C3_3  and  C6_6
REMARK    4  A    between atoms: C6_6  and  C7_7
REMARK    5  A    between atoms: C6_6  and  C9_11
REMARK    6  A    between atoms: C7_7  and  C8_8
REMARK    7  A    between atoms: C8_8  and  O1_9
REMARK    8  A    between atoms: C22_25  and  C24_27
REMARK    9  A    between atoms: C24_27  and  O3_28
ROOT
HETATM    1  C9  UNL     1      21.900  -0.837 -27.585  1.00  0.00    -0.006 C
HETATM    2  C10 UNL     1      22.844  -1.987 -27.614  1.00  0.00     0.006 C
HETATM    3  C11 UNL     1      22.945  -2.457 -26.143  1.00  0.00     0.006 C
HETATM    4  C12 UNL     1      22.775  -1.111 -25.472  1.00  0.00    -0.005 C
HETATM    5  C13 UNL     1      21.484  -0.656 -26.184  1.00  0.00    -0.006 C
HETATM    6  C14 UNL     1      21.333   0.798 -25.776  1.00  0.00     0.006 C
HETATM    7  C15 UNL     1      21.938   1.185 -24.499  1.00  0.00     0.011 C
HETATM    8  C16 UNL     1      22.183   0.152 -23.445  1.00  0.00    -0.024 C
HETATM    9  C17 UNL     1      23.498   0.678 -22.781  1.00  0.00     0.017 C
HETATM   10  C18 UNL     1      22.584  -1.190 -23.984  1.00  0.00    -0.000 C
HETATM   11  C19 UNL     1      21.698  -2.322 -23.650  1.00  0.00     0.013 C
HETATM   12  C20 UNL     1      21.637  -2.438 -22.126  1.00  0.00     0.079 C
HETATM   13  C21 UNL     1      21.059  -1.185 -21.655  1.00  0.00     0.138 C
HETATM   14  O2  UNL     1      20.380  -1.186 -20.633  1.00  0.00    -0.297 OA
HETATM   15  C22 UNL     1      21.216   0.151 -22.319  1.00  0.00     0.045 C
HETATM   16  C23 UNL     1      21.682   1.049 -21.146  1.00  0.00     0.026 C
ENDROOT
BRANCH   1  17
HETATM   17  C6  UNL     1      20.965  -0.665 -28.691  1.00  0.00    -0.004 C
BRANCH  17  18
HETATM   18  C3  UNL     1      21.443   0.283 -29.775  1.00  0.00    -0.011 C
BRANCH  18  19
HETATM   19  C2  UNL     1      21.652  -0.434 -31.092  1.00  0.00     0.000 C
HETATM   20  C1  UNL     1      21.026   0.397 -32.236  1.00  0.00     0.005 C
ENDBRANCH  18  19
BRANCH  18  21
HETATM   21  C4  UNL     1      22.739   0.915 -29.314  1.00  0.00     0.000 C
HETATM   22  C5  UNL     1      22.720   2.407 -29.346  1.00  0.00     0.005 C
ENDBRANCH  18  21
ENDBRANCH  17  18
BRANCH  17  23
HETATM   23  C7  UNL     1      20.392  -1.847 -29.385  1.00  0.00     0.031 C
BRANCH  23  24
HETATM   24  C8  UNL     1      18.952  -2.184 -29.087  1.00  0.00     0.164 C
BRANCH  24  25
HETATM   25  O1  UNL     1      18.088  -1.436 -29.914  1.00  0.00    -0.401 OA
ATOM     26  H1  UNL     1      17.514  -2.014 -30.404  1.00  0.00     0.209 HD
ENDBRANCH  24  25
ENDBRANCH  23  24
ENDBRANCH  17  23
ENDBRANCH   1  17
BRANCH  15  27
HETATM   27  C24 UNL     1      19.829   0.630 -22.574  1.00  0.00     0.181 C
BRANCH  27  28
HETATM   28  O3  UNL     1      19.025  -0.200 -23.332  1.00  0.00    -0.400 OA
ATOM     29  H3  UNL     1      18.519   0.218 -24.019  1.00  0.00     0.209 HD
ENDBRANCH  27  28
ENDBRANCH  15  27
TORSDOF 9
ENDMDL