MODEL 2
REMARK VINA RESULT: -8.069750886      2.883      4.649
REMARK  6 active torsions:
REMARK  status: ('A' for Active; 'I' for Inactive)
REMARK    1  A    between atoms: O1_1  and  C1_3
REMARK    2  A    between atoms: C1_3  and  C2_4
REMARK    3  A    between atoms: C2_4  and  C3_5
REMARK    4  A    between atoms: C4_6  and  C5_7
REMARK    5  A    between atoms: C5_7  and  C6_8
REMARK    6  A    between atoms: C14_18  and  N2_19
ROOT
HETATM    1  C1  UNL     1       0.356   0.757  -4.210  1.00  0.00     0.078 C
HETATM    2  C11 UNL     1       0.024  -0.420  -3.360  1.00  0.00     0.007 C
HETATM    3  C12 UNL     1      -0.273  -0.563  -2.086  1.00  0.00    -0.026 C
HETATM    4  C13 UNL     1      -0.369   0.484  -1.043  1.00  0.00     0.062 C
HETATM    5  C14 UNL     1      -1.323   1.578  -1.400  1.00  0.00     0.226 C
HETATM    6  C20 UNL     1      -1.667   1.475  -2.891  1.00  0.00     0.039 C
HETATM    7  C21 UNL     1      -0.491   1.907  -3.709  1.00  0.00     0.044 C
ENDROOT
BRANCH   1   8
HETATM    8  O1  UNL     1       1.700   1.008  -3.996  1.00  0.00    -0.386 OA
ATOM      9  H1  UNL     1       1.996   1.845  -4.335  1.00  0.00     0.211 HD
ENDBRANCH   1   8
BRANCH   1  10
HETATM   10  C2  UNL     1       0.021   0.389  -5.634  1.00  0.00     0.069 C
BRANCH  10  11
HETATM   11  C3  UNL     1      -0.704  -0.849  -5.852  1.00  0.00    -0.024 C
HETATM   12  C4  UNL     1      -1.352  -1.294  -7.052  1.00  0.00    -0.006 C
BRANCH  12  13
HETATM   13  C5  UNL     1      -0.743  -1.682  -8.319  1.00  0.00    -0.002 C
BRANCH  13  14
HETATM   14  C6  UNL     1      -0.648  -0.792  -9.486  1.00  0.00     0.103 C
HETATM   15  C7  UNL     1       0.849  -0.655  -9.836  1.00  0.00     0.029 C
HETATM   16  C8  UNL     1       1.443   0.318  -8.866  1.00  0.00     0.007 C
HETATM   17  C9  UNL     1       0.800   1.660  -9.113  1.00  0.00     0.044 C
HETATM   18  C10 UNL     1      -0.691   1.615  -9.057  1.00  0.00     0.056 C
HETATM   19  N1  UNL     1      -1.295   0.434  -9.499  1.00  0.00    -0.394 N
ATOM     20  H1  UNL     1      -2.254   0.476  -9.845  1.00  0.00     0.159 HD
ENDBRANCH  13  14
ENDBRANCH  12  13
ENDBRANCH  10  11
ENDBRANCH   1  10
BRANCH   5  21
HETATM   21  N2  UNL     1      -2.539   1.601  -0.652  1.00  0.00     0.093 N
HETATM   22  C15 UNL     1      -2.532   2.442   0.502  1.00  0.00     0.273 C
HETATM   23  C16 UNL     1      -3.757   2.047   1.338  1.00  0.00     0.030 C
HETATM   24  C17 UNL     1      -4.957   2.461   0.526  1.00  0.00     0.003 C
HETATM   25  C18 UNL     1      -4.988   1.766  -0.793  1.00  0.00     0.030 C
HETATM   26  C19 UNL     1      -3.666   1.751  -1.508  1.00  0.00     0.273 C
ENDBRANCH   5  21
TORSDOF 6
ENDMDL