MODEL 1
REMARK VINA RESULT: -7.418219629      0.000      0.000
REMARK  7 active torsions:
REMARK  status: ('A' for Active; 'I' for Inactive)
REMARK    1  A    between atoms: C2_2  and  O1_3
REMARK    2  A    between atoms: C11_13  and  C13_15
REMARK    3  A    between atoms: C14_16  and  C15_17
REMARK    4  A    between atoms: N1_20  and  C18_21
REMARK    5  A    between atoms: C18_21  and  C19_22
REMARK    6  A    between atoms: C19_22  and  C20_23
REMARK    7  A    between atoms: C20_23  and  N2_24
ROOT
HETATM    1  C1  UNL     1      -2.202   0.374  -8.339  1.00  0.00     0.046 C
HETATM    2  C2  UNL     1      -0.893  -0.352  -8.348  1.00  0.00     0.058 C
HETATM    3  C3  UNL     1       0.171   0.482  -8.982  1.00  0.00     0.038 C
HETATM    4  C4  UNL     1       1.506   0.366  -8.288  1.00  0.00     0.003 C
HETATM    5  C5  UNL     1       1.402   0.802  -6.822  1.00  0.00     0.006 C
HETATM    6  C6  UNL     1       0.030   0.509  -6.278  1.00  0.00     0.004 C
HETATM    7  C7  UNL     1      -0.420  -0.733  -6.956  1.00  0.00     0.025 C
HETATM    8  C8  UNL     1      -1.376  -1.610  -6.239  1.00  0.00     0.008 C
HETATM    9  C9  UNL     1      -0.860  -1.906  -4.880  1.00  0.00     0.002 C
HETATM   10  C10 UNL     1       0.136  -0.939  -4.330  1.00  0.00     0.013 C
HETATM   11  C11 UNL     1      -0.054   0.479  -4.758  1.00  0.00    -0.022 C
HETATM   12  C12 UNL     1       1.076   1.288  -4.155  1.00  0.00     0.020 C
ENDROOT
BRANCH  11  13
HETATM   13  C13 UNL     1      -1.351   1.086  -4.403  1.00  0.00    -0.016 C
HETATM   14  C14 UNL     1      -2.073   0.827  -3.178  1.00  0.00     0.009 C
BRANCH  14  15
HETATM   15  C15 UNL     1      -1.524   1.129  -1.854  1.00  0.00    -0.020 A
HETATM   16  C16 UNL     1      -1.706   2.259  -1.065  1.00  0.00     0.030 A
HETATM   17  C17 UNL     1      -1.008   2.156   0.092  1.00  0.00     0.091 A
HETATM   18  N1  UNL     1      -0.377   0.974   0.064  1.00  0.00    -0.366 N
HETATM   19  C21 UNL     1      -0.659   0.326  -1.087  1.00  0.00     0.101 A
BRANCH  18  20
HETATM   20  C18 UNL     1       0.483   0.503   1.149  1.00  0.00     0.129 C
BRANCH  20  21
HETATM   21  C19 UNL     1       1.284  -0.660   0.613  1.00  0.00     0.047 C
BRANCH  21  22
HETATM   22  C20 UNL     1       1.171  -1.870   1.502  1.00  0.00     0.231 C
BRANCH  22  23
HETATM   23  N2  UNL     1      -0.239  -2.094   1.767  1.00  0.00    -0.079 N
ATOM     24  H23 UNL     1      -0.848  -1.597   1.118  1.00  0.00     0.274 HD
ATOM     25  H22 UNL     1      -0.541  -3.041   1.537  1.00  0.00     0.274 HD
ATOM     26  H21 UNL     1      -0.414  -1.848   2.742  1.00  0.00     0.274 HD
ENDBRANCH  22  23
ENDBRANCH  21  22
ENDBRANCH  20  21
ENDBRANCH  18  20
ENDBRANCH  14  15
ENDBRANCH  11  13
BRANCH   2  27
HETATM   27  O1  UNL     1      -1.098  -1.571  -9.029  1.00  0.00    -0.390 OA
ATOM     28  H1  UNL     1      -1.272  -2.234  -8.371  1.00  0.00     0.210 HD
ENDBRANCH   2  27
TORSDOF 7
ENDMDL