MODEL 4
REMARK VINA RESULT: -7.607157829      3.416      5.276
REMARK  8 active torsions:
REMARK  status: ('A' for Active; 'I' for Inactive)
REMARK    1  A    between atoms: C2_2  and  C4_4
REMARK    2  A    between atoms: C4_4  and  C5_5
REMARK    3  A    between atoms: C7_7  and  O1_8
REMARK    4  A    between atoms: C7_7  and  C8_10
REMARK    5  A    between atoms: C8_10  and  C9_11
REMARK    6  A    between atoms: C10_12  and  C11_13
REMARK    7  A    between atoms: C11_13  and  O2_14
REMARK    8  A    between atoms: C11_13  and  C12_16
ROOT
HETATM    1  C9  UNL     1       1.678   0.619  -4.034  1.00  0.00    -0.025 C
HETATM    2  C10 UNL     1       0.898   1.222  -4.948  1.00  0.00     0.001 C
ENDROOT
BRANCH   1   3
HETATM    3  C8  UNL     1       1.691  -0.822  -3.750  1.00  0.00     0.067 C
BRANCH   3   4
HETATM    4  C7  UNL     1       0.713  -1.240  -2.704  1.00  0.00     0.084 C
HETATM    5  C6  UNL     1       1.239  -2.408  -1.840  1.00  0.00     0.072 C
HETATM    6  C5  UNL     1       1.956  -1.620  -0.805  1.00  0.00     0.124 C
HETATM    7  O3  UNL     1       1.137  -0.534  -0.496  1.00  0.00    -0.383 OA
HETATM    8  C20 UNL     1       0.451  -0.211  -1.658  1.00  0.00     0.206 C
BRANCH   6   9
HETATM    9  C4  UNL     1       2.494  -2.305   0.378  1.00  0.00     0.035 C
BRANCH   9  10
HETATM   10  C2  UNL     1       3.960  -2.530   0.476  1.00  0.00    -0.020 C
HETATM   11  C1  UNL     1       4.484  -1.597   1.602  1.00  0.00     0.009 C
HETATM   12  C3  UNL     1       4.741  -2.066  -0.749  1.00  0.00     0.009 C
ENDBRANCH   9  10
ENDBRANCH   6   9
BRANCH   4  13
HETATM   13  O1  UNL     1      -0.476  -1.627  -3.331  1.00  0.00    -0.387 OA
ATOM     14  H1  UNL     1      -0.272  -2.149  -4.099  1.00  0.00     0.210 HD
ENDBRANCH   4  13
ENDBRANCH   3   4
ENDBRANCH   1   3
BRANCH   2  15
HETATM   15  C11 UNL     1      -0.013   0.400  -5.727  1.00  0.00     0.145 C
BRANCH  15  16
HETATM   16  O2  UNL     1      -1.300   0.488  -5.159  1.00  0.00    -0.391 OA
ATOM     17  H2  UNL     1      -1.493   1.400  -4.977  1.00  0.00     0.210 HD
ENDBRANCH  15  16
BRANCH  15  18
HETATM   18  C12 UNL     1      -0.134   0.661  -7.176  1.00  0.00     0.022 C
HETATM   19  C13 UNL     1      -0.761  -0.431  -8.002  1.00  0.00     0.012 C
HETATM   20  C14 UNL     1      -0.505  -0.002  -9.461  1.00  0.00    -0.014 C
HETATM   21  C15 UNL     1       0.898  -0.453  -9.783  1.00  0.00     0.005 C
HETATM   22  C19 UNL     1      -0.526   1.504  -9.605  1.00  0.00     0.005 C
HETATM   23  C16 UNL     1       1.811  -0.034  -8.645  1.00  0.00     0.005 C
HETATM   24  C17 UNL     1       1.130   1.078  -7.869  1.00  0.00    -0.008 C
HETATM   25  C18 UNL     1       0.719   2.084  -8.973  1.00  0.00     0.005 C
ENDBRANCH  15  18
ENDBRANCH   2  15
TORSDOF 8
ENDMDL