MODEL 1
REMARK VINA RESULT: -6.183560812      0.000      0.000
REMARK  9 active torsions:
REMARK  status: ('A' for Active; 'I' for Inactive)
REMARK    1  A    between atoms: C2_2  and  C3_3
REMARK    2  A    between atoms: C4_4  and  C5_5
REMARK    3  A    between atoms: C5_5  and  O1_7
REMARK    4  A    between atoms: C5_5  and  C7_9
REMARK    5  A    between atoms: C7_9  and  C8_10
REMARK    6  A    between atoms: C8_10  and  O2_12
REMARK    7  A    between atoms: C10_14  and  C11_15
REMARK    8  A    between atoms: C19_23  and  C20_24
REMARK    9  A    between atoms: C20_24  and  O3_25
ROOT
HETATM    1  C3  UNL     1       0.281  -0.092  -1.751  1.00  0.00    -0.047 C
HETATM    2  C4  UNL     1      -0.443   0.341  -2.828  1.00  0.00    -0.035 C
HETATM    3  C10 UNL     1       0.241  -0.125  -4.070  1.00  0.00     0.022 C
HETATM    4  C17 UNL     1       1.713   0.268  -3.810  1.00  0.00     0.010 C
HETATM    5  C18 UNL     1       2.283  -0.881  -3.022  1.00  0.00     0.012 C
HETATM    6  C19 UNL     1       1.405  -1.034  -1.805  1.00  0.00     0.042 C
ENDROOT
BRANCH   2   7
HETATM    7  C5  UNL     1      -1.577   1.233  -2.748  1.00  0.00     0.081 C
HETATM    8  C6  UNL     1      -1.216   2.689  -2.404  1.00  0.00     0.051 C
BRANCH   7   9
HETATM    9  O1  UNL     1      -2.003   1.317  -4.161  1.00  0.00    -0.386 OA
ATOM     10  H1  UNL     1      -1.255   1.738  -4.568  1.00  0.00     0.211 HD
ENDBRANCH   7   9
BRANCH   7  11
HETATM   11  C7  UNL     1      -2.880   0.937  -2.195  1.00  0.00     0.073 C
BRANCH  11  12
HETATM   12  C8  UNL     1      -3.209   2.088  -1.189  1.00  0.00     0.117 C
HETATM   13  C9  UNL     1      -3.092   1.459   0.210  1.00  0.00     0.039 C
BRANCH  12  14
HETATM   14  O2  UNL     1      -4.512   2.498  -1.295  1.00  0.00    -0.396 OA
ATOM     15  H2  UNL     1      -4.575   3.418  -1.525  1.00  0.00     0.210 HD
ENDBRANCH  12  14
ENDBRANCH  11  12
ENDBRANCH   7  11
ENDBRANCH   2   7
BRANCH   1  16
HETATM   16  C2  UNL     1      -0.062   0.359  -0.422  1.00  0.00    -0.002 C
HETATM   17  C1  UNL     1       0.634   0.214   0.669  1.00  0.00     0.012 C
ENDBRANCH   1  16
BRANCH   3  18
HETATM   18  C11 UNL     1      -0.065   0.279  -5.400  1.00  0.00    -0.006 C
HETATM   19  C12 UNL     1      -0.516  -1.006  -6.183  1.00  0.00     0.005 C
HETATM   20  C13 UNL     1      -1.295  -0.591  -7.403  1.00  0.00     0.000 C
HETATM   21  C14 UNL     1      -0.917   0.729  -7.969  1.00  0.00     0.000 C
HETATM   22  C15 UNL     1       0.328   1.375  -7.553  1.00  0.00     0.000 C
HETATM   23  C16 UNL     1       1.014   0.749  -6.335  1.00  0.00     0.005 C
ENDBRANCH   3  18
BRANCH   6  24
HETATM   24  C20 UNL     1       1.041  -2.496  -1.703  1.00  0.00     0.173 C
BRANCH  24  25
HETATM   25  O3  UNL     1       1.047  -3.178  -2.917  1.00  0.00    -0.400 OA
ATOM     26  H3  UNL     1       0.793  -4.092  -2.857  1.00  0.00     0.209 HD
ENDBRANCH  24  25
ENDBRANCH   6  24
TORSDOF 9
ENDMDL