MODEL 2
REMARK VINA RESULT: -6.547759451      3.693      6.594
REMARK  6 active torsions:
REMARK  status: ('A' for Active; 'I' for Inactive)
REMARK    1  A    between atoms: C2_2  and  C3_3
REMARK    2  A    between atoms: C7_7  and  N1_8
REMARK    3  A    between atoms: N1_8  and  C8_11
REMARK    4  A    between atoms: C8_11  and  C9_12
REMARK    5  A    between atoms: C9_12  and  C11_14
REMARK    6  A    between atoms: C9_12  and  S1_20
ROOT
HETATM    1  C8  UNL     1      -0.687  -0.192  -4.889  1.00  0.00     0.261 C
ENDROOT
BRANCH   1   2
HETATM    2  N1  UNL     1      -0.750   0.532  -6.126  1.00  0.00    -0.069 N
ATOM      3  H12 UNL     1      -0.235   1.411  -6.060  1.00  0.00     0.277 HD
ATOM      4  H11 UNL     1      -1.688   0.899  -6.285  1.00  0.00     0.277 HD
BRANCH   2   5
HETATM    5  C7  UNL     1      -0.300  -0.245  -7.263  1.00  0.00     0.186 C
HETATM    6  C6  UNL     1      -1.443  -0.978  -7.933  1.00  0.00     0.033 C
HETATM    7  C5  UNL     1      -0.823  -2.156  -8.667  1.00  0.00     0.003 C
HETATM    8  C4  UNL     1       0.638  -1.912  -8.978  1.00  0.00     0.008 C
HETATM    9  C3  UNL     1       0.917  -0.473  -9.344  1.00  0.00     0.009 C
HETATM   10  C17 UNL     1       0.427   0.517  -8.315  1.00  0.00     0.041 C
BRANCH   9  11
HETATM   11  C2  UNL     1       0.338  -0.247 -10.688  1.00  0.00    -0.032 C
HETATM   12  C1  UNL     1      -0.477   0.754 -10.909  1.00  0.00     0.007 C
ENDBRANCH   9  11
ENDBRANCH   2   5
ENDBRANCH   1   2
BRANCH   1  13
HETATM   13  C9  UNL     1       0.057   0.635  -3.822  1.00  0.00     0.106 C
HETATM   14  C10 UNL     1       0.993   1.601  -4.526  1.00  0.00     0.037 C
BRANCH  13  15
HETATM   15  C11 UNL     1       0.772  -0.272  -2.871  1.00  0.00     0.013 C
HETATM   16  C12 UNL     1       2.243  -0.369  -2.985  1.00  0.00     0.006 C
HETATM   17  C13 UNL     1       2.684  -1.691  -3.656  1.00  0.00     0.000 C
HETATM   18  C14 UNL     1       2.337  -2.883  -2.809  1.00  0.00     0.000 C
HETATM   19  C15 UNL     1       1.163  -2.473  -1.932  1.00  0.00     0.000 C
HETATM   20  C16 UNL     1       0.197  -1.683  -2.829  1.00  0.00     0.006 C
ENDBRANCH  13  15
BRANCH  13  21
HETATM   21  S1  UNL     1      -1.109   1.612  -2.919  1.00  0.00     0.112 S
HETATM   22  O1  UNL     1      -2.525   1.406  -3.424  1.00  0.00    -0.594 OA
HETATM   23  O2  UNL     1      -0.857   3.074  -3.014  1.00  0.00    -0.594 OA
HETATM   24  O3  UNL     1      -1.145   1.184  -1.287  1.00  0.00    -0.594 OA
ENDBRANCH  13  21
ENDBRANCH   1  13
TORSDOF 6
ENDMDL