MODEL 4
REMARK VINA RESULT: -7.529418172      0.760      3.280
REMARK  7 active torsions:
REMARK  status: ('A' for Active; 'I' for Inactive)
REMARK    1  A    between atoms: N1_2  and  C3_4
REMARK    2  A    between atoms: C3_4  and  C4_5
REMARK    3  A    between atoms: C7_8  and  C8_9
REMARK    4  A    between atoms: C8_9  and  N3_13
REMARK    5  A    between atoms: N3_13  and  C9_15
REMARK    6  A    between atoms: C9_15  and  C10_16
REMARK    7  A    between atoms: C9_15  and  C16_22
ROOT
HETATM    1  N3  UNL     1      -0.326  -1.876  -4.393  1.00  0.00    -0.369 N
ATOM      2  H3  UNL     1       0.507  -2.454  -4.504  1.00  0.00     0.161 HD
ENDROOT
BRANCH   1   3
HETATM    3  C8  UNL     1      -1.300  -2.062  -5.375  1.00  0.00     0.129 C
HETATM    4  N2  UNL     1      -2.283  -2.862  -5.244  1.00  0.00    -0.383 N
ATOM      5  H22 UNL     1      -2.995  -2.997  -5.962  1.00  0.00     0.157 HD
ATOM      6  H21 UNL     1      -2.344  -3.380  -4.368  1.00  0.00     0.157 HD
BRANCH   3   7
HETATM    7  C7  UNL     1      -1.211  -1.310  -6.647  1.00  0.00     0.118 A
HETATM    8  C6  UNL     1      -1.786  -1.668  -7.851  1.00  0.00     0.043 A
HETATM    9  C5  UNL     1      -1.455  -0.698  -8.753  1.00  0.00     0.037 A
HETATM   10  C4  UNL     1      -0.689   0.227  -8.083  1.00  0.00     0.082 A
HETATM   11  O1  UNL     1      -0.580  -0.180  -6.863  1.00  0.00    -0.309 OA
BRANCH  10  12
HETATM   12  C3  UNL     1      -0.128   1.443  -8.722  1.00  0.00     0.335 C
BRANCH  12  13
HETATM   13  N1  UNL     1       1.314   1.445  -8.727  1.00  0.00     0.086 N
HETATM   14  C1  UNL     1       1.862   0.095  -8.750  1.00  0.00     0.309 C
HETATM   15  C2  UNL     1       1.733   2.021  -7.444  1.00  0.00     0.309 C
ENDBRANCH  12  13
ENDBRANCH  10  12
ENDBRANCH   3   7
ENDBRANCH   1   3
BRANCH   1  16
HETATM   16  C9  UNL     1      -0.306  -1.014  -3.263  1.00  0.00     0.091 C
BRANCH  16  17
HETATM   17  C10 UNL     1      -0.881   0.352  -3.520  1.00  0.00     0.009 C
HETATM   18  C11 UNL     1      -2.382   0.300  -3.188  1.00  0.00     0.007 C
HETATM   19  C12 UNL     1      -2.875   1.621  -2.637  1.00  0.00     0.000 C
HETATM   20  C13 UNL     1      -2.365   1.861  -1.225  1.00  0.00     0.000 C
HETATM   21  C14 UNL     1      -0.976   1.247  -1.173  1.00  0.00     0.000 C
HETATM   22  C15 UNL     1      -0.325   1.352  -2.548  1.00  0.00     0.007 C
ENDBRANCH  16  17
BRANCH  16  23
HETATM   23  C16 UNL     1       1.027  -1.022  -2.623  1.00  0.00     0.009 C
HETATM   24  C17 UNL     1       1.035  -1.937  -1.385  1.00  0.00     0.007 C
HETATM   25  C18 UNL     1       2.521  -1.867  -1.021  1.00  0.00     0.000 C
HETATM   26  C19 UNL     1       3.259  -1.464  -2.280  1.00  0.00     0.000 C
HETATM   27  C20 UNL     1       2.175  -1.576  -3.375  1.00  0.00     0.007 C
ENDBRANCH  16  23
ENDBRANCH   1  16
TORSDOF 7
ENDMDL