MODEL 3
REMARK VINA RESULT: -6.989346444      1.449      3.436
REMARK  6 active torsions:
REMARK  status: ('A' for Active; 'I' for Inactive)
REMARK       I    between atoms: C1_2  and  N1_3
REMARK       I    between atoms: C1_2  and  N2_13
REMARK    1  A    between atoms: N1_3  and  C2_5
REMARK    2  A    between atoms: C2_5  and  C3_6
REMARK    3  A    between atoms: C3_6  and  C4_7
REMARK    4  A    between atoms: C4_7  and  C5_8
REMARK    5  A    between atoms: N2_13  and  C10_15
REMARK    6  A    between atoms: C14_21  and  N4_22
ROOT
HETATM    1  O1  UNL     1       1.322   2.479  -4.510  1.00  0.00    -0.247 OA
HETATM    2  C1  UNL     1       0.690   1.450  -4.813  1.00  0.00     0.320 C
HETATM    3  N1  UNL     1       0.843   0.986  -6.148  1.00  0.00    -0.343 N
ATOM      4  H1  UNL     1       0.337   0.147  -6.434  1.00  0.00     0.164 HD
HETATM    5  N2  UNL     1      -0.136   0.751  -3.929  1.00  0.00    -0.306 N
ATOM      6  H2  UNL     1      -0.594  -0.073  -4.317  1.00  0.00     0.171 HD
ENDROOT
BRANCH   5   7
HETATM    7  C10 UNL     1      -0.427   1.022  -2.576  1.00  0.00     0.078 A
HETATM    8  C11 UNL     1      -1.163   2.121  -2.136  1.00  0.00     0.119 A
HETATM    9  N3  UNL     1      -1.381   2.359  -0.809  1.00  0.00    -0.373 N
HETATM   10  C12 UNL     1      -0.895   1.544   0.135  1.00  0.00     0.090 A
ATOM     11  H3  UNL     1      -1.925   3.175  -0.532  1.00  0.00     0.164 HD
HETATM   12  C13 UNL     1      -0.159   0.438  -0.225  1.00  0.00     0.048 A
HETATM   13  C14 UNL     1       0.065   0.191  -1.591  1.00  0.00     0.060 A
BRANCH  13  14
HETATM   14  N4  UNL     1       0.786  -0.968  -1.928  1.00  0.00    -0.379 N
HETATM   15  C15 UNL     1       2.035  -1.265  -1.271  1.00  0.00     0.123 C
HETATM   16  C16 UNL     1       3.137  -1.426  -2.324  1.00  0.00     0.020 C
HETATM   17  C17 UNL     1       2.685  -2.253  -3.480  1.00  0.00     0.003 C
HETATM   18  C18 UNL     1       1.336  -2.908  -3.288  1.00  0.00     0.020 C
HETATM   19  C19 UNL     1       0.277  -1.858  -2.941  1.00  0.00     0.123 C
ENDBRANCH  13  14
ENDBRANCH   5   7
BRANCH   3  20
HETATM   20  C2  UNL     1       1.682   1.651  -7.118  1.00  0.00     0.124 C
BRANCH  20  21
HETATM   21  C3  UNL     1       1.628   1.108  -8.488  1.00  0.00     0.020 C
BRANCH  21  22
HETATM   22  C4  UNL     1       0.392   1.178  -9.276  1.00  0.00     0.006 C
BRANCH  22  23
HETATM   23  C5  UNL     1      -0.433  -0.048  -9.334  1.00  0.00    -0.014 C
HETATM   24  C6  UNL     1      -1.556  -0.208  -8.393  1.00  0.00     0.004 C
HETATM   25  C7  UNL     1      -1.740  -1.714  -8.165  1.00  0.00     0.000 C
HETATM   26  C8  UNL     1      -0.649  -2.362  -9.017  1.00  0.00     0.000 C
HETATM   27  C9  UNL     1       0.443  -1.293  -9.044  1.00  0.00     0.004 C
ENDBRANCH  22  23
ENDBRANCH  21  22
ENDBRANCH  20  21
ENDBRANCH   3  20
TORSDOF 6
ENDMDL