MODEL 2
REMARK VINA RESULT: -7.249427711      2.059      4.964
REMARK  7 active torsions:
REMARK  status: ('A' for Active; 'I' for Inactive)
REMARK    1  A    between atoms: N1_2  and  C2_5
REMARK    2  A    between atoms: C2_5  and  C3_6
REMARK    3  A    between atoms: C3_6  and  C4_7
REMARK    4  A    between atoms: C4_7  and  N2_8
REMARK    5  A    between atoms: N2_8  and  C5_10
REMARK    6  A    between atoms: C5_10  and  C6_11
REMARK    7  A    between atoms: C14_20  and  C15_21
ROOT
HETATM    1  C6  UNL     1      -0.707   0.383  -0.678  1.00  0.00     0.024 C
HETATM    2  C7  UNL     1      -0.673   1.847  -0.621  1.00  0.00     0.011 C
HETATM    3  C8  UNL     1      -0.908   2.506  -1.942  1.00  0.00     0.021 C
HETATM    4  C9  UNL     1      -1.467   1.629  -3.025  1.00  0.00     0.101 C
HETATM    5  C10 UNL     1      -2.878   1.395  -2.750  1.00  0.00     0.064 C
HETATM    6  N3  UNL     1      -3.984   1.217  -2.531  1.00  0.00    -0.197 NA
HETATM    7  C11 UNL     1      -0.661   0.372  -3.208  1.00  0.00    -0.024 C
HETATM    8  C12 UNL     1      -1.496  -0.742  -3.736  1.00  0.00     0.011 C
HETATM    9  C13 UNL     1      -0.961  -1.274  -5.070  1.00  0.00     0.006 C
HETATM   10  C14 UNL     1      -1.038  -0.112  -6.034  1.00  0.00    -0.007 C
HETATM   11  C19 UNL     1      -0.040   0.904  -5.598  1.00  0.00     0.006 C
HETATM   12  C20 UNL     1       0.452   0.705  -4.206  1.00  0.00     0.011 C
HETATM   13  C21 UNL     1       0.020  -0.061  -1.959  1.00  0.00     0.020 C
ENDROOT
BRANCH   1  14
HETATM   14  C5  UNL     1       0.007  -0.361   0.411  1.00  0.00     0.060 C
BRANCH  14  15
HETATM   15  N2  UNL     1       1.050   0.226   1.131  1.00  0.00    -0.402 N
ATOM     16  H2  UNL     1       1.027   1.213   1.388  1.00  0.00     0.158 HD
BRANCH  15  17
HETATM   17  C4  UNL     1       2.124  -0.591   1.483  1.00  0.00     0.120 C
BRANCH  17  18
HETATM   18  C3  UNL     1       2.422  -1.654   0.411  1.00  0.00     0.047 C
BRANCH  18  19
HETATM   19  C2  UNL     1       3.240  -2.779   0.960  1.00  0.00     0.233 C
BRANCH  19  20
HETATM   20  N1  UNL     1       4.554  -2.869   0.391  1.00  0.00    -0.079 N
HETATM   21  C1  UNL     1       4.696  -2.101  -0.822  1.00  0.00     0.266 C
ATOM     22  H12 UNL     1       4.819  -3.842   0.239  1.00  0.00     0.276 HD
ATOM     23  H11 UNL     1       5.265  -2.608   1.073  1.00  0.00     0.276 HD
ENDBRANCH  19  20
ENDBRANCH  18  19
ENDBRANCH  17  18
ENDBRANCH  15  17
ENDBRANCH  14  15
ENDBRANCH   1  14
BRANCH  10  24
HETATM   24  C15 UNL     1      -0.868  -0.575  -7.443  1.00  0.00    -0.048 C
HETATM   25  C16 UNL     1      -1.483  -1.920  -7.682  1.00  0.00     0.015 C
HETATM   26  C17 UNL     1      -1.533   0.432  -8.358  1.00  0.00     0.015 C
HETATM   27  C18 UNL     1       0.603  -0.604  -7.790  1.00  0.00     0.015 C
ENDBRANCH  10  24
TORSDOF 7
ENDMDL