MODEL 5
REMARK VINA RESULT: -7.138719901      3.067      5.426
REMARK  6 active torsions:
REMARK  status: ('A' for Active; 'I' for Inactive)
REMARK    1  A    between atoms: N1_2  and  C2_3
REMARK    2  A    between atoms: N1_2  and  C8_9
REMARK    3  A    between atoms: C2_3  and  C3_4
REMARK    4  A    between atoms: C3_4  and  C4_5
REMARK    5  A    between atoms: C8_9  and  C9_10
REMARK    6  A    between atoms: N3_18  and  C15_19
ROOT
HETATM    1  C9  UNL     1       0.660  -0.152  -3.121  1.00  0.00     0.022 A
HETATM    2  C10 UNL     1       1.807  -0.852  -3.384  1.00  0.00     0.104 A
HETATM    3  N2  UNL     1       2.479  -1.423  -2.342  1.00  0.00    -0.350 N
ATOM      4  H2  UNL     1       3.337  -1.949  -2.507  1.00  0.00     0.166 HD
HETATM    5  C11 UNL     1       1.994  -1.283  -1.087  1.00  0.00     0.120 A
HETATM    6  C12 UNL     1       0.859  -0.589  -0.844  1.00  0.00     0.037 A
HETATM    7  C13 UNL     1       0.601  -0.613   0.497  1.00  0.00     0.035 A
HETATM    8  C14 UNL     1       1.626  -1.353   1.101  1.00  0.00     0.094 A
HETATM    9  N3  UNL     1       2.446  -1.739   0.127  1.00  0.00    -0.338 N
HETATM   10  C20 UNL     1       0.094   0.048  -1.911  1.00  0.00     0.053 A
HETATM   11  N4  UNL     1      -0.905   0.611  -1.500  1.00  0.00    -0.398 N
ATOM     12  H41 UNL     1      -1.332   0.761  -0.586  1.00  0.00     0.156 HD
ATOM     13  H42 UNL     1      -1.440   1.055  -2.245  1.00  0.00     0.156 HD
ENDROOT
BRANCH   1  14
HETATM   14  C8  UNL     1      -0.132   0.371  -4.318  1.00  0.00     0.100 C
BRANCH  14  15
HETATM   15  N1  UNL     1      -0.397  -0.677  -5.216  1.00  0.00    -0.393 N
HETATM   16  C1  UNL     1      -1.341  -1.639  -4.876  1.00  0.00     0.148 C
BRANCH  15  17
HETATM   17  C2  UNL     1      -0.295  -0.365  -6.620  1.00  0.00     0.122 C
BRANCH  17  18
HETATM   18  C3  UNL     1       0.744   0.696  -6.800  1.00  0.00     0.024 C
BRANCH  18  19
HETATM   19  C4  UNL     1       1.374   0.721  -8.173  1.00  0.00    -0.013 A
HETATM   20  C5  UNL     1       1.892  -0.640  -8.615  1.00  0.00     0.005 A
HETATM   21  C6  UNL     1       1.006  -0.613  -9.826  1.00  0.00     0.001 A
HETATM   22  C7  UNL     1       0.446   0.691  -9.353  1.00  0.00     0.005 A
ENDBRANCH  18  19
ENDBRANCH  17  18
ENDBRANCH  15  17
ENDBRANCH  14  15
ENDBRANCH   1  14
BRANCH   9  23
HETATM   23  C15 UNL     1       3.635  -2.528   0.241  1.00  0.00     0.091 C
HETATM   24  C16 UNL     1       4.885  -1.685   0.128  1.00  0.00     0.026 C
HETATM   25  C17 UNL     1       5.949  -2.657   0.617  1.00  0.00     0.002 C
HETATM   26  C18 UNL     1       5.303  -3.137   1.923  1.00  0.00     0.002 C
HETATM   27  C19 UNL     1       3.812  -3.119   1.622  1.00  0.00     0.026 C
ENDBRANCH   9  23
TORSDOF 6
ENDMDL