MODEL 5
REMARK VINA RESULT: -7.545162159      5.125      9.278
REMARK  6 active torsions:
REMARK  status: ('A' for Active; 'I' for Inactive)
REMARK       I    between atoms: C1_2  and  N1_3
REMARK    1  A    between atoms: C1_2  and  C10_16
REMARK    2  A    between atoms: N1_3  and  C2_5
REMARK    3  A    between atoms: C2_5  and  C3_6
REMARK    4  A    between atoms: C3_6  and  C4_7
REMARK    5  A    between atoms: C13_19  and  C14_20
REMARK    6  A    between atoms: C14_20  and  C15_21
ROOT
HETATM    1  O1  UNL     1      -1.195   1.112  -1.319  1.00  0.00    -0.265 OA
HETATM    2  C1  UNL     1      -1.878   1.078  -2.357  1.00  0.00     0.275 C
HETATM    3  N1  UNL     1      -3.197   1.595  -2.359  1.00  0.00    -0.355 N
ATOM      4  H1  UNL     1      -3.728   1.543  -3.229  1.00  0.00     0.162 HD
ENDROOT
BRANCH   2   5
HETATM    5  C10 UNL     1      -1.284   0.490  -3.572  1.00  0.00     0.143 A
HETATM    6  C11 UNL     1      -1.410  -0.826  -3.945  1.00  0.00     0.045 A
HETATM    7  C12 UNL     1      -0.697  -0.924  -5.138  1.00  0.00     0.036 A
HETATM    8  C13 UNL     1      -0.181   0.320  -5.430  1.00  0.00     0.054 A
HETATM    9  O2  UNL     1      -0.554   1.126  -4.476  1.00  0.00    -0.309 OA
BRANCH   8  10
HETATM   10  C14 UNL     1       0.643   0.637  -6.624  1.00  0.00     0.069 C
BRANCH  10  11
HETATM   11  C15 UNL     1       0.132  -0.183  -7.768  1.00  0.00    -0.009 C
HETATM   12  C16 UNL     1       1.274  -0.470  -8.712  1.00  0.00     0.005 C
HETATM   13  C17 UNL     1       0.682  -1.109  -9.972  1.00  0.00     0.000 C
HETATM   14  C18 UNL     1      -0.035  -0.007 -10.715  1.00  0.00     0.000 C
HETATM   15  C19 UNL     1      -0.765   0.940  -9.823  1.00  0.00     0.000 C
HETATM   16  C20 UNL     1      -1.058   0.415  -8.458  1.00  0.00     0.005 C
ENDBRANCH  10  11
ENDBRANCH   8  10
ENDBRANCH   2   5
BRANCH   3  17
HETATM   17  C2  UNL     1      -3.836   2.188  -1.215  1.00  0.00     0.125 C
BRANCH  17  18
HETATM   18  C3  UNL     1      -5.043   1.425  -0.834  1.00  0.00     0.052 C
BRANCH  18  19
HETATM   19  C4  UNL     1      -5.486   1.652   0.595  1.00  0.00     0.187 C
HETATM   20  C5  UNL     1      -6.612   0.795   1.027  1.00  0.00     0.033 C
HETATM   21  C6  UNL     1      -7.947   1.468   1.079  1.00  0.00     0.002 C
HETATM   22  C7  UNL     1      -8.020   2.650   1.983  1.00  0.00     0.002 C
HETATM   23  C8  UNL     1      -6.844   2.804   2.904  1.00  0.00     0.027 C
HETATM   24  C9  UNL     1      -5.652   3.422   2.209  1.00  0.00     0.232 C
HETATM   25  N2  UNL     1      -5.674   3.062   0.810  1.00  0.00    -0.071 N
ATOM     26  H22 UNL     1      -4.992   3.606   0.281  1.00  0.00     0.277 HD
ATOM     27  H21 UNL     1      -6.530   3.388   0.361  1.00  0.00     0.277 HD
ENDBRANCH  18  19
ENDBRANCH  17  18
ENDBRANCH   3  17
TORSDOF 6
ENDMDL