MODEL 3
REMARK VINA RESULT: -8.066210117      0.893      2.789
REMARK  8 active torsions:
REMARK  status: ('A' for Active; 'I' for Inactive)
REMARK    1  A    between atoms: C2_2  and  N1_5
REMARK    2  A    between atoms: N1_5  and  C5_6
REMARK    3  A    between atoms: N1_5  and  C11_12
REMARK    4  A    between atoms: C14_15  and  C15_16
REMARK    5  A    between atoms: C14_15  and  C20_23
REMARK    6  A    between atoms: C15_16  and  C16_17
REMARK    7  A    between atoms: C17_18  and  C18_19
REMARK    8  A    between atoms: C18_19  and  C19_20
ROOT
HETATM    1  C11 UNL     1       0.193   0.189   5.695  1.00  0.00    -0.015 C
HETATM    2  C12 UNL     1      -0.882   0.597   6.660  1.00  0.00     0.053 C
HETATM    3  C13 UNL     1      -0.224   0.955   7.968  1.00  0.00     0.026 C
HETATM    4  C14 UNL     1       0.433  -0.226   8.563  1.00  0.00     0.052 C
HETATM    5  C21 UNL     1       1.414  -0.839   7.625  1.00  0.00     0.026 C
HETATM    6  C22 UNL     1       0.929  -1.032   6.213  1.00  0.00     0.053 C
ENDROOT
BRANCH   1   7
HETATM    7  N1  UNL     1       0.008   0.272   4.328  1.00  0.00    -0.374 N
BRANCH   7   8
HETATM    8  C2  UNL     1       0.900   0.857   3.440  1.00  0.00     0.021 C
HETATM    9  C1  UNL     1       1.695   1.925   4.241  1.00  0.00     0.037 C
HETATM   10  C3  UNL     1       2.090  -0.029   3.016  1.00  0.00     0.037 C
HETATM   11  C4  UNL     1       0.435   1.543   2.217  1.00  0.00     0.037 C
ENDBRANCH   7   8
BRANCH   7  12
HETATM   12  C5  UNL     1      -0.979  -0.617   3.784  1.00  0.00     0.085 C
HETATM   13  C6  UNL     1      -2.224   0.049   3.270  1.00  0.00     0.025 C
HETATM   14  C7  UNL     1      -2.980  -0.968   2.388  1.00  0.00     0.002 C
HETATM   15  C8  UNL     1      -2.888  -2.352   2.977  1.00  0.00     0.000 C
HETATM   16  C9  UNL     1      -1.468  -2.821   2.785  1.00  0.00     0.002 C
HETATM   17  C10 UNL     1      -0.504  -1.622   2.792  1.00  0.00     0.025 C
ENDBRANCH   7  12
ENDBRANCH   1   7
BRANCH   4  18
HETATM   18  C15 UNL     1       1.171   0.161   9.875  1.00  0.00     0.047 C
BRANCH  18  19
HETATM   19  C16 UNL     1       0.480   1.157  10.649  1.00  0.00    -0.029 C
HETATM   20  C17 UNL     1      -0.091   0.957  11.798  1.00  0.00    -0.020 C
BRANCH  20  21
HETATM   21  C18 UNL     1      -0.143  -0.319  12.530  1.00  0.00     0.140 C
BRANCH  21  22
HETATM   22  C19 UNL     1      -0.304  -0.112  13.999  1.00  0.00     0.176 C
HETATM   23  O1  UNL     1      -1.412  -0.258  14.554  1.00  0.00    -0.648 OA
HETATM   24  O2  UNL     1       0.785   0.250  14.778  1.00  0.00    -0.648 OA
ENDBRANCH  21  22
ENDBRANCH  20  21
ENDBRANCH  18  19
ENDBRANCH   4  18
BRANCH   4  25
HETATM   25  C20 UNL     1      -0.555  -1.226   9.041  1.00  0.00     0.182 C
HETATM   26  O3  UNL     1      -1.766  -0.991   9.157  1.00  0.00    -0.647 OA
HETATM   27  O4  UNL     1      -0.064  -2.485   9.371  1.00  0.00    -0.647 OA
ENDBRANCH   4  25
TORSDOF 8
ENDMDL