MODEL 4
REMARK VINA RESULT: -7.661872421      3.024      4.074
REMARK  10 active torsions:
REMARK  status: ('A' for Active; 'I' for Inactive)
REMARK    1  A    between atoms: C2_2  and  O1_3
REMARK    2  A    between atoms: O1_3  and  C3_4
REMARK       I    between atoms: C3_4  and  N1_6
REMARK    3  A    between atoms: N1_6  and  C4_8
REMARK    4  A    between atoms: C4_8  and  C5_9
REMARK    5  A    between atoms: C5_9  and  C6_10
REMARK    6  A    between atoms: C6_10  and  C7_11
REMARK    7  A    between atoms: C7_11  and  C8_12
REMARK    8  A    between atoms: C14_18  and  N2_19
REMARK    9  A    between atoms: N2_19  and  C15_21
REMARK   10  A    between atoms: C15_21  and  S2_23
ROOT
HETATM    1  C8  UNL     1      -0.412  -0.140   9.975  1.00  0.00    -0.039 C
HETATM    2  C9  UNL     1       0.004   1.261  10.248  1.00  0.00     0.014 C
HETATM    3  C10 UNL     1       0.313   1.980   8.932  1.00  0.00    -0.013 C
HETATM    4  C11 UNL     1      -1.040   2.015   8.210  1.00  0.00     0.011 C
HETATM    5  C12 UNL     1      -1.434   0.595   7.854  1.00  0.00     0.010 C
HETATM    6  C13 UNL     1      -1.647  -0.214   9.100  1.00  0.00     0.016 C
HETATM    7  C14 UNL     1      -0.359  -0.065   7.046  1.00  0.00     0.091 C
HETATM    8  C17 UNL     1       0.925  -0.098   7.825  1.00  0.00     0.010 C
HETATM    9  C18 UNL     1       1.367   1.316   8.128  1.00  0.00     0.011 C
HETATM   10  C19 UNL     1       0.703  -0.792   9.112  1.00  0.00     0.016 C
ENDROOT
BRANCH   1  11
HETATM   11  C7  UNL     1      -0.500  -0.967  11.190  1.00  0.00     0.010 C
BRANCH  11  12
HETATM   12  C6  UNL     1       0.379  -0.833  12.337  1.00  0.00     0.002 C
BRANCH  12  13
HETATM   13  C5  UNL     1       0.019  -0.004  13.503  1.00  0.00     0.020 C
BRANCH  13  14
HETATM   14  C4  UNL     1       1.296   0.718  14.004  1.00  0.00     0.125 C
BRANCH  14  15
HETATM   15  N1  UNL     1       1.917  -0.071  15.047  1.00  0.00    -0.337 N
HETATM   16  C3  UNL     1       3.133   0.349  15.635  1.00  0.00     0.360 C
HETATM   17  O2  UNL     1       3.733   1.403  15.300  1.00  0.00    -0.239 OA
ATOM     18  H1  UNL     1       1.476  -0.936  15.359  1.00  0.00     0.164 HD
BRANCH  16  19
HETATM   19  O1  UNL     1       3.724  -0.406  16.629  1.00  0.00    -0.304 OA
BRANCH  19  20
HETATM   20  C2  UNL     1       4.996  -0.998  16.431  1.00  0.00     0.176 C
HETATM   21  C1  UNL     1       4.834  -2.150  15.484  1.00  0.00     0.034 C
ENDBRANCH  19  20
ENDBRANCH  16  19
ENDBRANCH  14  15
ENDBRANCH  13  14
ENDBRANCH  12  13
ENDBRANCH  11  12
ENDBRANCH   1  11
BRANCH   7  22
HETATM   22  N2  UNL     1      -0.209   0.608   5.785  1.00  0.00    -0.370 N
ATOM     23  H2  UNL     1      -0.218   1.627   5.750  1.00  0.00     0.161 HD
BRANCH  22  24
HETATM   24  C15 UNL     1      -0.049  -0.137   4.592  1.00  0.00     0.134 C
HETATM   25  S1  UNL     1      -1.228  -1.074   4.003  1.00  0.00    -0.053 SA
BRANCH  24  26
HETATM   26  S2  UNL     1       1.495  -0.113   3.670  1.00  0.00    -0.105 SA
HETATM   27  C16 UNL     1       1.916   1.600   3.325  1.00  0.00     0.098 C
ENDBRANCH  24  26
ENDBRANCH  22  24
ENDBRANCH   7  22
TORSDOF 10
ENDMDL