MODEL 5
REMARK VINA RESULT: -5.912695569      2.432      6.051
REMARK  8 active torsions:
REMARK  status: ('A' for Active; 'I' for Inactive)
REMARK    1  A    between atoms: C2_2  and  C3_3
REMARK    2  A    between atoms: C4_4  and  O1_5
REMARK    3  A    between atoms: C9_11  and  C10_12
REMARK    4  A    between atoms: C10_12  and  C11_13
REMARK    5  A    between atoms: C10_12  and  C13_15
REMARK    6  A    between atoms: C13_15  and  C15_17
REMARK    7  A    between atoms: C15_17  and  C16_19
REMARK    8  A    between atoms: C17_21  and  C19_23
ROOT
HETATM    1  C3  UNL     1       2.678   1.614   0.856  1.00  0.00     0.045 C
HETATM    2  C4  UNL     1       3.937   1.402   1.588  1.00  0.00     0.126 C
HETATM    3  C5  UNL     1       3.770   0.100   2.314  1.00  0.00     0.033 C
HETATM    4  C6  UNL     1       2.676   0.254   3.359  1.00  0.00     0.013 C
HETATM    5  C7  UNL     1       1.518   1.065   3.067  1.00  0.00    -0.031 C
HETATM    6  C8  UNL     1       1.702   2.471   3.711  1.00  0.00     0.016 C
HETATM    7  C9  UNL     1       0.136   0.635   3.599  1.00  0.00     0.011 C
HETATM    8  C17 UNL     1      -0.379  -0.602   2.958  1.00  0.00    -0.022 C
HETATM    9  C18 UNL     1      -0.307  -1.900   3.636  1.00  0.00     0.020 C
HETATM   10  C21 UNL     1       0.414  -0.826   1.624  1.00  0.00     0.014 C
HETATM   11  C22 UNL     1       0.537   0.432   0.884  1.00  0.00     0.012 C
HETATM   12  C23 UNL     1       1.399   1.487   1.582  1.00  0.00    -0.027 C
HETATM   13  C24 UNL     1       0.686   2.798   1.379  1.00  0.00     0.016 C
ENDROOT
BRANCH   7  14
HETATM   14  C10 UNL     1      -0.150   0.980   5.008  1.00  0.00     0.002 C
BRANCH  14  15
HETATM   15  C11 UNL     1      -1.669   1.456   4.883  1.00  0.00     0.001 C
HETATM   16  C12 UNL     1      -2.013   2.749   5.503  1.00  0.00     0.005 C
ENDBRANCH  14  15
BRANCH  14  17
HETATM   17  C13 UNL     1      -0.309   0.091   6.151  1.00  0.00     0.061 C
HETATM   18  C14 UNL     1       0.642  -1.007   6.493  1.00  0.00     0.018 C
BRANCH  17  19
HETATM   19  C15 UNL     1       0.079   0.946   7.376  1.00  0.00     0.166 C
HETATM   20  O2  UNL     1       1.225   1.262   7.471  1.00  0.00    -0.292 OA
BRANCH  19  21
HETATM   21  C16 UNL     1      -0.854   1.370   8.413  1.00  0.00     0.150 C
HETATM   22  N1  UNL     1      -0.527   2.463   9.238  1.00  0.00    -0.111 NA
ENDBRANCH  19  21
ENDBRANCH  17  19
ENDBRANCH  14  17
ENDBRANCH   7  14
BRANCH   8  23
HETATM   23  C19 UNL     1      -1.756  -0.499   2.381  1.00  0.00    -0.027 C
HETATM   24  C20 UNL     1      -2.703  -1.330   2.734  1.00  0.00     0.007 C
ENDBRANCH   8  23
BRANCH   1  25
HETATM   25  C2  UNL     1       2.812   2.830   0.021  1.00  0.00    -0.029 C
HETATM   26  C1  UNL     1       3.201   2.862  -1.233  1.00  0.00     0.007 C
ENDBRANCH   1  25
BRANCH   2  27
HETATM   27  O1  UNL     1       4.952   1.146   0.626  1.00  0.00    -0.395 OA
ATOM     28  H1  UNL     1       4.934   0.215   0.434  1.00  0.00     0.210 HD
ENDBRANCH   2  27
TORSDOF 8
ENDMDL