MODEL 1
REMARK VINA RESULT: -7.808021581      0.000      0.000
REMARK  8 active torsions:
REMARK  status: ('A' for Active; 'I' for Inactive)
REMARK    1  A    between atoms: C2_2  and  C3_3
REMARK    2  A    between atoms: C5_6  and  N1_7
REMARK    3  A    between atoms: N1_7  and  C6_9
REMARK    4  A    between atoms: C6_9  and  C7_10
REMARK    5  A    between atoms: C7_10  and  C8_11
REMARK    6  A    between atoms: C8_11  and  C9_12
REMARK    7  A    between atoms: C9_12  and  C11_14
REMARK    8  A    between atoms: C19_22  and  O2_23
ROOT
HETATM    1  C11 UNL     1       0.087   0.547   4.040  1.00  0.00    -0.006 C
HETATM    2  C12 UNL     1      -1.197   1.081   4.664  1.00  0.00     0.006 C
HETATM    3  C13 UNL     1      -0.835   1.530   6.039  1.00  0.00     0.010 C
HETATM    4  C14 UNL     1       0.219   0.532   6.459  1.00  0.00    -0.032 C
HETATM    5  C15 UNL     1       1.141   1.148   7.494  1.00  0.00     0.016 C
HETATM    6  C16 UNL     1      -0.467  -0.704   7.021  1.00  0.00     0.023 C
HETATM    7  C17 UNL     1      -1.463  -0.400   8.087  1.00  0.00     0.012 C
HETATM    8  C18 UNL     1      -1.587  -1.634   8.984  1.00  0.00     0.033 C
HETATM    9  C19 UNL     1      -0.291  -1.734   9.755  1.00  0.00     0.122 C
HETATM   10  C20 UNL     1       0.804  -2.168   8.804  1.00  0.00     0.065 C
HETATM   11  C21 UNL     1       0.632  -1.619   7.458  1.00  0.00    -0.076 C
HETATM   12  C22 UNL     1       1.501  -1.929   6.506  1.00  0.00    -0.023 C
HETATM   13  C23 UNL     1       1.258  -1.333   5.169  1.00  0.00     0.033 C
HETATM   14  C24 UNL     1       0.944   0.144   5.196  1.00  0.00     0.002 C
ENDROOT
BRANCH   1  15
HETATM   15  C9  UNL     1       0.666   1.599   3.134  1.00  0.00    -0.014 C
HETATM   16  C10 UNL     1       2.168   1.731   3.327  1.00  0.00     0.010 C
BRANCH  15  17
HETATM   17  C8  UNL     1       0.457   1.343   1.669  1.00  0.00     0.006 C
BRANCH  17  18
HETATM   18  C7  UNL     1       0.565  -0.112   1.306  1.00  0.00     0.020 C
BRANCH  18  19
HETATM   19  C6  UNL     1      -0.038  -0.340  -0.091  1.00  0.00     0.116 C
BRANCH  19  20
HETATM   20  N1  UNL     1      -1.457  -0.354   0.098  1.00  0.00    -0.396 N
ATOM     21  H1  UNL     1      -2.061   0.371  -0.291  1.00  0.00     0.155 HD
BRANCH  20  22
HETATM   22  C5  UNL     1      -1.974  -1.427   0.853  1.00  0.00     0.226 C
HETATM   23  C3  UNL     1      -2.811  -1.170   2.059  1.00  0.00     0.080 C
HETATM   24  C4  UNL     1      -3.949  -1.625   1.242  1.00  0.00     0.183 C
HETATM   25  O1  UNL     1      -3.053  -2.048   0.247  1.00  0.00    -0.366 OA
BRANCH  23  26
HETATM   26  C2  UNL     1      -2.455  -2.078   3.177  1.00  0.00    -0.026 C
HETATM   27  C1  UNL     1      -1.346  -2.756   3.281  1.00  0.00     0.007 C
ENDBRANCH  23  26
ENDBRANCH  20  22
ENDBRANCH  19  20
ENDBRANCH  18  19
ENDBRANCH  17  18
ENDBRANCH  15  17
ENDBRANCH   1  15
BRANCH   9  28
HETATM   28  O2  UNL     1      -0.381  -2.570  10.855  1.00  0.00    -0.395 OA
ATOM     29  H2  UNL     1       0.385  -3.120  10.966  1.00  0.00     0.210 HD
ENDBRANCH   9  28
TORSDOF 8
ENDMDL