MODEL 2
REMARK VINA RESULT: -8.196285176      2.771      5.090
REMARK  9 active torsions:
REMARK  status: ('A' for Active; 'I' for Inactive)
REMARK    1  A    between atoms: O1_1  and  C1_3
REMARK    2  A    between atoms: C1_3  and  C2_4
REMARK    3  A    between atoms: C5_7  and  C6_8
REMARK    4  A    between atoms: C6_8  and  C7_9
REMARK    5  A    between atoms: C7_9  and  N1_10
REMARK    6  A    between atoms: C13_16  and  C14_17
REMARK    7  A    between atoms: C15_18  and  C16_19
REMARK    8  A    between atoms: C21_24  and  C22_25
REMARK    9  A    between atoms: C22_25  and  O2_26
ROOT
HETATM    1  N1  UNL     1      -0.907   0.498   3.656  1.00  0.00    -0.367 N
HETATM    2  C8  UNL     1      -2.086   0.004   3.092  1.00  0.00     0.064 C
HETATM    3  C9  UNL     1      -1.908  -1.299   2.338  1.00  0.00     0.049 C
HETATM    4  C10 UNL     1      -0.487  -1.293   1.807  1.00  0.00    -0.003 C
HETATM    5  C11 UNL     1      -0.277  -2.053   0.552  1.00  0.00     0.006 C
HETATM    6  C12 UNL     1       0.377  -1.061  -0.431  1.00  0.00     0.009 C
HETATM    7  C13 UNL     1       0.899   0.050   0.439  1.00  0.00     0.014 C
HETATM    8  C20 UNL     1      -0.218   0.145   1.443  1.00  0.00     0.023 C
HETATM    9  C21 UNL     1       0.105   0.859   2.721  1.00  0.00     0.116 C
ENDROOT
BRANCH   1  10
HETATM   10  C7  UNL     1      -0.829   0.940   4.966  1.00  0.00     0.064 C
BRANCH  10  11
HETATM   11  C6  UNL     1      -0.566  -0.155   5.970  1.00  0.00     0.049 C
BRANCH  11  12
HETATM   12  C5  UNL     1      -0.457   0.339   7.379  1.00  0.00    -0.010 C
HETATM   13  C4  UNL     1       0.981   0.635   7.731  1.00  0.00     0.005 C
HETATM   14  C3  UNL     1       1.147   0.644   9.235  1.00  0.00     0.007 C
HETATM   15  C2  UNL     1      -0.082   1.246   9.848  1.00  0.00     0.009 C
HETATM   16  C24 UNL     1      -0.772   2.217   8.917  1.00  0.00     0.007 C
HETATM   17  C23 UNL     1      -1.298   1.532   7.677  1.00  0.00     0.005 C
BRANCH  15  18
HETATM   18  C1  UNL     1       0.384   2.103  11.034  1.00  0.00     0.168 C
BRANCH  18  19
HETATM   19  O1  UNL     1       0.679   3.394  10.659  1.00  0.00    -0.400 OA
ATOM     20  H1  UNL     1       0.334   4.034  11.270  1.00  0.00     0.209 HD
ENDBRANCH  18  19
ENDBRANCH  15  18
ENDBRANCH  11  12
ENDBRANCH  10  11
ENDBRANCH   1  10
BRANCH   9  21
HETATM   21  C22 UNL     1       1.504   0.765   3.202  1.00  0.00     0.190 C
BRANCH  21  22
HETATM   22  O2  UNL     1       2.141   1.955   3.485  1.00  0.00    -0.399 OA
ATOM     23  H2  UNL     1       1.824   2.438   4.239  1.00  0.00     0.209 HD
ENDBRANCH  21  22
ENDBRANCH   9  21
BRANCH   7  24
HETATM   24  C14 UNL     1       1.117   1.338  -0.241  1.00  0.00    -0.025 C
HETATM   25  C15 UNL     1       2.149   1.963  -0.677  1.00  0.00    -0.026 C
BRANCH  25  26
HETATM   26  C16 UNL     1       3.564   1.606  -0.654  1.00  0.00     0.008 C
HETATM   27  C17 UNL     1       4.175   1.874   0.746  1.00  0.00     0.008 C
HETATM   28  C18 UNL     1       5.355   2.458   0.046  1.00  0.00     0.001 C
HETATM   29  C19 UNL     1       4.425   2.784  -1.114  1.00  0.00     0.008 C
ENDBRANCH  25  26
ENDBRANCH   7  24
TORSDOF 9
ENDMDL