MODEL 2
REMARK VINA RESULT: -7.037826850      2.003      4.535
REMARK  7 active torsions:
REMARK  status: ('A' for Active; 'I' for Inactive)
REMARK    1  A    between atoms: C2_2  and  N1_3
REMARK    2  A    between atoms: N1_3  and  C3_4
REMARK    3  A    between atoms: N1_3  and  C5_6
REMARK    4  A    between atoms: C5_6  and  C6_7
REMARK    5  A    between atoms: C6_7  and  N2_8
REMARK    6  A    between atoms: N2_8  and  C7_10
REMARK    7  A    between atoms: C7_10  and  C8_11
ROOT
HETATM    1  C8  UNL     1       0.454  -0.786   2.291  1.00  0.00     0.247 C
HETATM    2  C9  UNL     1      -0.319  -0.309   1.067  1.00  0.00     0.015 C
HETATM    3  C10 UNL     1       0.055   0.699   0.318  1.00  0.00    -0.070 C
HETATM    4  C11 UNL     1      -0.943   0.879  -0.787  1.00  0.00     0.039 C
HETATM    5  C12 UNL     1      -0.432   0.005  -1.908  1.00  0.00    -0.015 C
HETATM    6  C13 UNL     1      -1.588  -0.458  -2.765  1.00  0.00     0.010 C
HETATM    7  C14 UNL     1       0.607   0.734  -2.658  1.00  0.00     0.005 C
HETATM    8  C15 UNL     1       1.239   1.899  -1.923  1.00  0.00     0.006 C
HETATM    9  C16 UNL     1       2.058   1.503  -0.743  1.00  0.00    -0.000 C
HETATM   10  C17 UNL     1       3.302   2.322  -0.729  1.00  0.00     0.006 C
HETATM   11  C18 UNL     1       4.342   1.506   0.034  1.00  0.00     0.001 C
HETATM   12  C19 UNL     1       4.261   1.995   1.441  1.00  0.00     0.006 C
HETATM   13  C20 UNL     1       3.210   1.361   2.272  1.00  0.00     0.013 C
HETATM   14  C21 UNL     1       2.798   2.325   3.364  1.00  0.00     0.012 C
HETATM   15  C22 UNL     1       2.058   0.759   1.612  1.00  0.00     0.203 C
HETATM   16  N3  UNL     1       1.178   0.325   2.727  1.00  0.00    -0.058 N
ATOM     17  H31 UNL     1       1.691   0.150   3.591  1.00  0.00     0.278 HD
ATOM     18  H32 UNL     1       0.581   1.075   3.074  1.00  0.00     0.278 HD
HETATM   19  C23 UNL     1       1.322   1.496   0.569  1.00  0.00     0.012 C
HETATM   20  C24 UNL     1       0.846   2.860   0.979  1.00  0.00     0.022 C
ENDROOT
BRANCH   1  21
HETATM   21  C7  UNL     1      -0.544  -1.316   3.264  1.00  0.00     0.097 C
BRANCH  21  22
HETATM   22  N2  UNL     1      -0.948  -0.452   4.297  1.00  0.00    -0.378 N
ATOM     23  H2  UNL     1      -1.578   0.313   4.055  1.00  0.00     0.164 HD
BRANCH  22  24
HETATM   24  C6  UNL     1      -0.551  -0.566   5.615  1.00  0.00     0.090 C
BRANCH  24  25
HETATM   25  C5  UNL     1       0.129   0.596   6.293  1.00  0.00     0.316 C
BRANCH  25  26
HETATM   26  N1  UNL     1      -0.181   0.825   7.660  1.00  0.00     0.092 N
BRANCH  26  27
HETATM   27  C2  UNL     1       0.631  -0.057   8.472  1.00  0.00     0.268 C
HETATM   28  C1  UNL     1       2.013   0.325   8.774  1.00  0.00     0.037 C
ENDBRANCH  26  27
BRANCH  26  29
HETATM   29  C3  UNL     1      -1.519   0.809   8.069  1.00  0.00     0.268 C
HETATM   30  C4  UNL     1      -1.982  -0.380   8.883  1.00  0.00     0.037 C
ENDBRANCH  26  29
ENDBRANCH  25  26
ENDBRANCH  24  25
ENDBRANCH  22  24
ENDBRANCH  21  22
ENDBRANCH   1  21
TORSDOF 7
ENDMDL