MODEL 3
REMARK VINA RESULT: -8.011323611      1.885      4.209
REMARK  7 active torsions:
REMARK  status: ('A' for Active; 'I' for Inactive)
REMARK    1  A    between atoms: C2_2  and  C3_3
REMARK    2  A    between atoms: C9_9  and  C10_10
REMARK    3  A    between atoms: C10_10  and  N1_16
REMARK    4  A    between atoms: C11_11  and  C12_12
REMARK    5  A    between atoms: C12_12  and  C13_13
REMARK    6  A    between atoms: C13_13  and  O1_14
REMARK       I    between atoms: N1_16  and  C14_18
REMARK    7  A    between atoms: C14_18  and  C15_20
ROOT
HETATM    1  C10 UNL     1      -0.364   0.591   4.282  1.00  0.00     0.013 C
HETATM    2  C11 UNL     1       0.666   1.382   4.001  1.00  0.00     0.001 C
ENDROOT
BRANCH   1   3
HETATM    3  C9  UNL     1      -1.077  -0.085   3.272  1.00  0.00     0.044 C
HETATM    4  C5  UNL     1      -0.423  -1.207   2.492  1.00  0.00    -0.004 C
HETATM    5  C4  UNL     1      -1.512  -1.380   1.402  1.00  0.00     0.010 C
HETATM    6  C6  UNL     1      -0.610  -2.388   3.383  1.00  0.00     0.006 C
HETATM    7  C3  UNL     1      -2.752  -0.814   1.960  1.00  0.00    -0.010 C
HETATM    8  C8  UNL     1      -2.397  -0.765   3.471  1.00  0.00    -0.000 C
HETATM    9  C7  UNL     1      -2.005  -2.164   3.896  1.00  0.00     0.006 C
BRANCH   7  10
HETATM   10  C2  UNL     1      -4.066  -1.241   1.597  1.00  0.00     0.000 C
HETATM   11  C1  UNL     1      -4.366  -2.257   0.587  1.00  0.00     0.005 C
ENDBRANCH   7  10
ENDBRANCH   1   3
BRANCH   1  12
HETATM   12  N1  UNL     1      -0.542   0.530   5.721  1.00  0.00    -0.330 N
HETATM   13  C14 UNL     1       0.159  -0.326   6.579  1.00  0.00     0.231 C
HETATM   14  O2  UNL     1       1.001  -1.110   6.025  1.00  0.00    -0.272 OA
ATOM     15  H1  UNL     1      -1.230   1.158   6.139  1.00  0.00     0.168 HD
BRANCH  13  16
HETATM   16  C15 UNL     1       0.038  -0.426   8.023  1.00  0.00     0.048 C
HETATM   17  C16 UNL     1       0.438  -1.852   8.429  1.00  0.00     0.026 C
HETATM   18  C17 UNL     1      -1.317  -0.212   8.615  1.00  0.00    -0.001 C
HETATM   19  C18 UNL     1      -2.382  -1.160   8.135  1.00  0.00     0.011 C
HETATM   20  C19 UNL     1      -1.828   1.194   8.444  1.00  0.00     0.005 C
HETATM   21  C20 UNL     1      -0.852   2.235   8.889  1.00  0.00     0.001 C
HETATM   22  C21 UNL     1       0.578   1.958   8.612  1.00  0.00     0.010 C
HETATM   23  C22 UNL     1       0.984   0.508   8.758  1.00  0.00    -0.031 C
HETATM   24  C23 UNL     1       0.944   0.208  10.234  1.00  0.00     0.016 C
HETATM   25  C24 UNL     1       2.392   0.402   8.279  1.00  0.00     0.016 C
ENDBRANCH  13  16
ENDBRANCH   1  12
BRANCH   2  26
HETATM   26  C12 UNL     1       1.249   1.707   2.703  1.00  0.00     0.055 C
BRANCH  26  27
HETATM   27  C13 UNL     1       2.624   1.088   2.510  1.00  0.00     0.168 C
BRANCH  27  28
HETATM   28  O1  UNL     1       3.521   2.060   2.135  1.00  0.00    -0.401 OA
ATOM     29  H1  UNL     1       3.494   2.173   1.193  1.00  0.00     0.209 HD
ENDBRANCH  27  28
ENDBRANCH  26  27
ENDBRANCH   2  26
TORSDOF 7
ENDMDL