MODEL 1
REMARK VINA RESULT: -7.851853639      0.000      0.000
REMARK  8 active torsions:
REMARK  status: ('A' for Active; 'I' for Inactive)
REMARK    1  A    between atoms: C9_12  and  O2_13
REMARK    2  A    between atoms: C11_16  and  C12_17
REMARK    3  A    between atoms: C12_17  and  C13_18
REMARK    4  A    between atoms: C14_19  and  C15_20
REMARK    5  A    between atoms: C15_20  and  C17_22
REMARK    6  A    between atoms: C17_22  and  C18_23
REMARK    7  A    between atoms: C18_23  and  C19_24
REMARK    8  A    between atoms: C19_24  and  C20_25
ROOT
HETATM    1  C1  UNL     1       1.547   1.975   2.499  1.00  0.00     0.027 C
HETATM    2  C2  UNL     1       0.996   1.413   1.453  1.00  0.00     0.029 C
HETATM    3  C3  UNL     1       1.413   1.852   0.129  1.00  0.00     0.249 C
HETATM    4  O1  UNL     1       2.409   2.658   0.112  1.00  0.00    -0.268 OA
HETATM    5  N1  UNL     1       0.866   1.506  -1.143  1.00  0.00    -0.353 N
ATOM      6  H1  UNL     1       1.490   1.579  -1.947  1.00  0.00     0.163 HD
HETATM    7  C4  UNL     1      -0.466   1.069  -1.401  1.00  0.00     0.081 C
HETATM    8  C5  UNL     1      -0.487   0.418  -2.793  1.00  0.00     0.032 C
HETATM    9  C6  UNL     1      -1.092   0.150  -0.427  1.00  0.00     0.032 C
HETATM   10  C7  UNL     1      -0.194  -0.522   0.551  1.00  0.00     0.024 C
HETATM   11  C8  UNL     1      -0.536  -1.920   0.883  1.00  0.00     0.039 C
HETATM   12  C9  UNL     1      -1.724  -2.121   1.765  1.00  0.00     0.121 C
HETATM   13  C10 UNL     1      -1.380  -1.991   3.242  1.00  0.00     0.064 C
HETATM   14  C11 UNL     1      -1.026  -0.568   3.516  1.00  0.00     0.128 C
HETATM   15  O3  UNL     1       0.202  -0.297   2.922  1.00  0.00    -0.375 OA
HETATM   16  C23 UNL     1      -0.012   0.373   1.757  1.00  0.00     0.163 C
ENDROOT
BRANCH  14  17
HETATM   17  C12 UNL     1      -1.011  -0.245   5.000  1.00  0.00     0.059 C
BRANCH  17  18
HETATM   18  C13 UNL     1       0.217   0.386   5.439  1.00  0.00    -0.028 C
HETATM   19  C14 UNL     1       1.100  -0.177   6.226  1.00  0.00    -0.026 C
BRANCH  19  20
HETATM   20  C15 UNL     1       1.017  -1.522   6.801  1.00  0.00     0.004 C
HETATM   21  C16 UNL     1       1.851  -2.439   5.896  1.00  0.00     0.014 C
BRANCH  20  22
HETATM   22  C17 UNL     1       1.720  -1.553   8.144  1.00  0.00     0.008 C
BRANCH  22  23
HETATM   23  C18 UNL     1       1.305  -0.356   8.996  1.00  0.00     0.001 C
BRANCH  23  24
HETATM   24  C19 UNL     1       0.109  -0.783   9.847  1.00  0.00     0.004 C
BRANCH  24  25
HETATM   25  C20 UNL     1      -1.067   0.128   9.624  1.00  0.00    -0.023 C
HETATM   26  C21 UNL     1      -2.010  -0.579   8.671  1.00  0.00     0.009 C
HETATM   27  C22 UNL     1      -0.656   1.425   8.981  1.00  0.00     0.009 C
ENDBRANCH  24  25
ENDBRANCH  23  24
ENDBRANCH  22  23
ENDBRANCH  20  22
ENDBRANCH  19  20
ENDBRANCH  17  18
ENDBRANCH  14  17
BRANCH  12  28
HETATM   28  O2  UNL     1      -2.807  -1.344   1.453  1.00  0.00    -0.395 OA
ATOM     29  H2  UNL     1      -3.589  -1.828   1.213  1.00  0.00     0.210 HD
ENDBRANCH  12  28
TORSDOF 8
ENDMDL