MODEL 3
REMARK VINA RESULT: -8.158258647      0.110      1.389
REMARK  8 active torsions:
REMARK  status: ('A' for Active; 'I' for Inactive)
REMARK    1  A    between atoms: C2_2  and  C3_3
REMARK    2  A    between atoms: C2_2  and  N2_16
REMARK    3  A    between atoms: C3_3  and  C4_4
REMARK    4  A    between atoms: C4_4  and  O1_5
REMARK    5  A    between atoms: C4_4  and  C5_7
REMARK    6  A    between atoms: C5_7  and  N1_8
REMARK    7  A    between atoms: N2_16  and  C13_18
REMARK    8  A    between atoms: C13_18  and  C15_20
ROOT
HETATM    1  C1  UNL     1       0.679  -0.417   4.898  1.00  0.00     0.032 C
HETATM    2  C2  UNL     1       0.252   1.030   4.912  1.00  0.00     0.075 C
ENDROOT
BRANCH   2   3
HETATM    3  C3  UNL     1      -1.201   1.174   5.320  1.00  0.00     0.061 C
BRANCH   3   4
HETATM    4  C4  UNL     1      -1.383   2.152   6.464  1.00  0.00     0.158 C
BRANCH   4   5
HETATM    5  O1  UNL     1      -2.110   3.260   6.097  1.00  0.00    -0.390 OA
ATOM      6  H1  UNL     1      -3.044   3.089   6.073  1.00  0.00     0.210 HD
ENDBRANCH   4   5
BRANCH   4   7
HETATM    7  C5  UNL     1      -1.921   1.478   7.692  1.00  0.00     0.090 C
BRANCH   7   8
HETATM    8  N1  UNL     1      -1.149   1.428   8.840  1.00  0.00    -0.382 N
HETATM    9  C6  UNL     1      -1.059   0.142   9.447  1.00  0.00     0.080 C
HETATM   10  C7  UNL     1      -2.069  -0.819   8.812  1.00  0.00     0.032 C
HETATM   11  C8  UNL     1       0.311  -0.431   9.473  1.00  0.00     0.025 C
HETATM   12  C9  UNL     1       1.293   0.245   8.586  1.00  0.00     0.004 C
HETATM   13  C10 UNL     1       1.209   1.731   8.582  1.00  0.00     0.025 C
HETATM   14  C11 UNL     1      -0.094   2.282   9.137  1.00  0.00     0.080 C
HETATM   15  C12 UNL     1       0.092   2.482  10.653  1.00  0.00     0.032 C
ENDBRANCH   7   8
ENDBRANCH   4   7
ENDBRANCH   3   4
ENDBRANCH   2   3
BRANCH   2  16
HETATM   16  N2  UNL     1       0.496   1.735   3.697  1.00  0.00    -0.413 N
ATOM     17  H2  UNL     1      -0.042   2.562   3.438  1.00  0.00     0.154 HD
BRANCH  16  18
HETATM   18  C13 UNL     1       1.532   1.222   2.863  1.00  0.00     0.081 C
HETATM   19  C14 UNL     1       2.774   2.035   3.135  1.00  0.00     0.032 C
BRANCH  18  20
HETATM   20  C15 UNL     1       1.161   1.131   1.415  1.00  0.00    -0.020 C
HETATM   21  C16 UNL     1       0.279  -0.110   1.214  1.00  0.00     0.016 C
HETATM   22  C17 UNL     1      -0.086  -0.309  -0.220  1.00  0.00    -0.013 C
HETATM   23  C18 UNL     1      -0.832   0.902  -0.712  1.00  0.00     0.009 C
HETATM   24  C22 UNL     1       1.183  -0.564  -0.999  1.00  0.00     0.009 C
HETATM   25  C19 UNL     1       0.076   2.100  -0.556  1.00  0.00    -0.013 C
HETATM   26  C20 UNL     1       1.309   1.875  -1.390  1.00  0.00     0.009 C
HETATM   27  C24 UNL     1       0.367   2.290   0.905  1.00  0.00     0.016 C
HETATM   28  C21 UNL     1       2.054   0.638  -0.874  1.00  0.00    -0.013 C
HETATM   29  C23 UNL     1       2.392   0.971   0.587  1.00  0.00     0.016 C
ENDBRANCH  18  20
ENDBRANCH  16  18
ENDBRANCH   2  16
TORSDOF 8
ENDMDL