MODEL 5
REMARK VINA RESULT: -7.628754498      3.670      5.448
REMARK  8 active torsions:
REMARK  status: ('A' for Active; 'I' for Inactive)
REMARK    1  A    between atoms: C2_2  and  C3_3
REMARK    2  A    between atoms: C3_3  and  C4_4
REMARK    3  A    between atoms: C4_4  and  C5_5
REMARK    4  A    between atoms: C5_5  and  N1_6
REMARK    5  A    between atoms: N1_6  and  C6_9
REMARK    6  A    between atoms: C6_9  and  C7_10
REMARK    7  A    between atoms: C7_10  and  C8_11
REMARK    8  A    between atoms: C8_11  and  N2_12
ROOT
HETATM    1  C1  UNL     1      -0.697  -2.113   2.776  1.00  0.00     0.015 C
HETATM    2  C2  UNL     1      -1.140  -0.698   3.132  1.00  0.00    -0.038 C
HETATM    3  C9  UNL     1      -0.628   0.281   2.190  1.00  0.00     0.019 C
HETATM    4  C10 UNL     1       0.425   1.263   2.557  1.00  0.00     0.075 C
HETATM    5  S1  UNL     1       1.345   0.997   4.058  1.00  0.00    -0.159 SA
HETATM    6  C11 UNL     1       0.592  -0.359   4.997  1.00  0.00     0.013 C
HETATM    7  C12 UNL     1       1.482  -1.535   4.763  1.00  0.00     0.028 C
HETATM    8  C13 UNL     1       0.667  -0.119   6.487  1.00  0.00     0.009 C
HETATM    9  C14 UNL     1       0.556  -1.352   7.315  1.00  0.00     0.007 C
HETATM   10  C15 UNL     1       0.622  -0.916   8.764  1.00  0.00     0.005 C
HETATM   11  C16 UNL     1       1.093   0.497   8.938  1.00  0.00    -0.010 C
HETATM   12  C17 UNL     1       0.479   1.070  10.222  1.00  0.00     0.005 C
HETATM   13  C18 UNL     1      -0.553   1.799   9.389  1.00  0.00     0.006 C
HETATM   14  C19 UNL     1       0.285   1.518   8.188  1.00  0.00    -0.006 C
HETATM   15  C20 UNL     1      -0.384   0.803   7.035  1.00  0.00    -0.005 C
HETATM   16  C21 UNL     1      -0.966   1.695   6.015  1.00  0.00     0.006 C
HETATM   17  C22 UNL     1      -1.562   0.820   4.941  1.00  0.00     0.007 C
HETATM   18  C23 UNL     1      -0.799  -0.412   4.599  1.00  0.00     0.012 C
ENDROOT
BRANCH   2  19
HETATM   19  C3  UNL     1      -2.643  -0.782   3.165  1.00  0.00     0.011 C
BRANCH  19  20
HETATM   20  C4  UNL     1      -3.362  -1.842   2.471  1.00  0.00     0.028 C
BRANCH  20  21
HETATM   21  C5  UNL     1      -4.128  -1.559   1.226  1.00  0.00     0.232 C
BRANCH  21  22
HETATM   22  N1  UNL     1      -3.507  -2.267   0.119  1.00  0.00    -0.075 N
ATOM     23  H12 UNL     1      -3.032  -3.119   0.417  1.00  0.00     0.277 HD
ATOM     24  H11 UNL     1      -4.191  -2.698  -0.502  1.00  0.00     0.277 HD
BRANCH  22  25
HETATM   25  C6  UNL     1      -2.627  -1.358  -0.575  1.00  0.00     0.233 C
BRANCH  25  26
HETATM   26  C7  UNL     1      -1.246  -1.944  -0.790  1.00  0.00     0.055 C
BRANCH  26  27
HETATM   27  C8  UNL     1      -0.362  -0.832  -1.350  1.00  0.00     0.231 C
BRANCH  27  28
HETATM   28  N2  UNL     1       1.041  -1.233  -1.295  1.00  0.00    -0.079 N
ATOM     29  H23 UNL     1       1.634  -0.495  -0.916  1.00  0.00     0.274 HD
ATOM     30  H22 UNL     1       1.208  -1.941  -0.581  1.00  0.00     0.274 HD
ATOM     31  H21 UNL     1       1.353  -1.538  -2.217  1.00  0.00     0.274 HD
ENDBRANCH  27  28
ENDBRANCH  26  27
ENDBRANCH  25  26
ENDBRANCH  22  25
ENDBRANCH  21  22
ENDBRANCH  20  21
ENDBRANCH  19  20
ENDBRANCH   2  19
TORSDOF 8
ENDMDL