MODEL 5
REMARK VINA RESULT: -6.492270935      5.293      7.825
REMARK  9 active torsions:
REMARK  status: ('A' for Active; 'I' for Inactive)
REMARK    1  A    between atoms: O1_2  and  C2_3
REMARK    2  A    between atoms: C4_5  and  O2_6
REMARK    3  A    between atoms: C4_5  and  C5_8
REMARK    4  A    between atoms: C5_8  and  O3_9
REMARK    5  A    between atoms: C6_11  and  O4_12
REMARK    6  A    between atoms: C7_14  and  O5_15
REMARK    7  A    between atoms: C8_17  and  O6_18
REMARK    8  A    between atoms: O6_18  and  N1_19
REMARK       I    between atoms: C9_21  and  N3_23
REMARK    9  A    between atoms: N6_30  and  N7_31
ROOT
HETATM    1  C2  UNL     1     -19.767 -21.066 -18.293  1.00  0.00     0.079 C
HETATM    2  C3  UNL     1     -20.630 -20.780 -19.239  1.00  0.00     0.050 C
HETATM    3  C4  UNL     1     -21.896 -20.069 -18.964  1.00  0.00     0.127 C
HETATM    4  C6  UNL     1     -22.071 -19.607 -17.558  1.00  0.00     0.190 C
HETATM    5  C7  UNL     1     -21.509 -20.690 -16.627  1.00  0.00     0.188 C
HETATM    6  C8  UNL     1     -20.023 -20.692 -16.913  1.00  0.00     0.239 C
ENDROOT
BRANCH   6   7
HETATM    7  O6  UNL     1     -19.288 -21.407 -15.963  1.00  0.00    -0.263 OA
BRANCH   7   8
HETATM    8  N1  UNL     1     -18.423 -20.922 -15.063  1.00  0.00    -0.235 N
HETATM    9  C9  UNL     1     -18.450 -21.305 -13.846  1.00  0.00     0.248 C
HETATM   10  N2  UNL     1     -19.424 -22.266 -13.458  1.00  0.00    -0.059 NA
HETATM   11  N3  UNL     1     -17.576 -20.844 -12.840  1.00  0.00    -0.151 N
HETATM   12  N4  UNL     1     -17.177 -19.520 -12.834  1.00  0.00    -0.226 N
HETATM   13  N6  UNL     1     -17.125 -21.717 -11.865  1.00  0.00    -0.119 NA
HETATM   14  N5  UNL     1     -16.440 -19.012 -11.925  1.00  0.00    -0.319 N
ATOM     15  H4  UNL     1     -17.489 -18.918 -13.596  1.00  0.00     0.210 HD
HETATM   16  C10 UNL     1     -15.970 -19.807 -10.825  1.00  0.00     0.159 C
ATOM     17  H5  UNL     1     -16.181 -18.026 -11.980  1.00  0.00     0.181 HD
HETATM   18  C11 UNL     1     -16.834 -21.018 -10.628  1.00  0.00     0.161 C
ATOM     19  H1  UNL     1     -17.730 -20.233 -15.356  1.00  0.00     0.197 HD
BRANCH  13  20
HETATM   20  N7  UNL     1     -15.965 -22.406 -12.237  1.00  0.00    -0.344 NA
ATOM     21  H72 UNL     1     -15.858 -23.189 -11.593  1.00  0.00     0.172 HD
ATOM     22  H71 UNL     1     -15.133 -21.817 -12.244  1.00  0.00     0.172 HD
ENDBRANCH  13  20
ENDBRANCH   7   8
ENDBRANCH   6   7
BRANCH   1  23
HETATM   23  O1  UNL     1     -18.605 -21.745 -18.696  1.00  0.00    -0.358 OA
HETATM   24  C1  UNL     1     -18.361 -21.963 -20.072  1.00  0.00     0.209 C
ENDBRANCH   1  23
BRANCH   5  25
HETATM   25  O5  UNL     1     -22.099 -21.887 -17.011  1.00  0.00    -0.390 OA
ATOM     26  H5  UNL     1     -22.119 -22.438 -16.238  1.00  0.00     0.210 HD
ENDBRANCH   5  25
BRANCH   4  27
HETATM   27  O4  UNL     1     -21.487 -18.375 -17.324  1.00  0.00    -0.389 OA
ATOM     28  H4  UNL     1     -21.875 -17.919 -16.587  1.00  0.00     0.210 HD
ENDBRANCH   4  27
BRANCH   3  29
HETATM   29  O2  UNL     1     -22.940 -20.984 -19.246  1.00  0.00    -0.381 OA
ATOM     30  H2  UNL     1     -23.239 -21.316 -18.408  1.00  0.00     0.211 HD
ENDBRANCH   3  29
BRANCH   3  31
HETATM   31  C5  UNL     1     -22.042 -18.922 -19.941  1.00  0.00     0.209 C
BRANCH  31  32
HETATM   32  O3  UNL     1     -23.328 -18.928 -20.443  1.00  0.00    -0.397 OA
ATOM     33  H3  UNL     1     -23.633 -18.031 -20.512  1.00  0.00     0.209 HD
ENDBRANCH  31  32
ENDBRANCH   3  31
TORSDOF 9
ENDMDL