MODEL 3
REMARK VINA RESULT: -7.923500321      2.153      5.439
REMARK  7 active torsions:
REMARK  status: ('A' for Active; 'I' for Inactive)
REMARK    1  A    between atoms: N1_1  and  C1_4
REMARK    2  A    between atoms: N4_14  and  O2_16
REMARK    3  A    between atoms: O2_16  and  C6_17
REMARK    4  A    between atoms: C7_21  and  C8_22
REMARK    5  A    between atoms: C8_22  and  O3_23
REMARK    6  A    between atoms: C10_28  and  O5_29
REMARK    7  A    between atoms: C10_28  and  C11_31
ROOT
HETATM    1  C1  UNL     1     -18.529 -20.247 -17.253  1.00  0.00     0.680 A
HETATM    2  N2  UNL     1     -19.080 -19.867 -18.428  1.00  0.00    -0.180 N
ATOM      3  H2  UNL     1     -18.491 -19.441 -19.144  1.00  0.00     0.185 HD
HETATM    4  C2  UNL     1     -20.393 -20.039 -18.668  1.00  0.00     0.120 A
HETATM    5  C3  UNL     1     -21.151 -20.630 -17.653  1.00  0.00     0.098 A
HETATM    6  C4  UNL     1     -20.586 -21.014 -16.461  1.00  0.00     0.275 A
HETATM    7  O1  UNL     1     -21.301 -21.535 -15.580  1.00  0.00    -0.267 OA
HETATM    8  N3  UNL     1     -19.252 -20.814 -16.270  1.00  0.00    -0.155 N
ATOM      9  H3  UNL     1     -18.808 -21.090 -15.394  1.00  0.00     0.187 HD
HETATM   10  C5  UNL     1     -22.536 -20.745 -18.163  1.00  0.00     0.074 C
HETATM   11  N4  UNL     1     -23.612 -20.739 -17.519  1.00  0.00    -0.263 N
ATOM     12  H4  UNL     1     -23.551 -20.644 -16.505  1.00  0.00     0.194 HD
HETATM   13  C9  UNL     1     -22.346 -20.874 -19.632  1.00  0.00     0.180 A
HETATM   14  N6  UNL     1     -21.302 -19.737 -19.731  1.00  0.00    -0.211 NA
HETATM   15  C10 UNL     1     -22.445 -19.841 -20.600  1.00  0.00     0.223 A
ENDROOT
BRANCH  11  16
HETATM   16  O2  UNL     1     -24.866 -20.851 -18.067  1.00  0.00    -0.218 OA
BRANCH  16  17
HETATM   17  C6  UNL     1     -25.718 -21.845 -17.554  1.00  0.00     0.497 C
HETATM   18  N5  UNL     1     -25.796 -21.886 -16.095  1.00  0.00     0.005 N
HETATM   19  C7  UNL     1     -27.173 -22.262 -16.363  1.00  0.00     0.354 C
ATOM     20  H52 UNL     1     -25.167 -22.443 -15.517  1.00  0.00     0.286 HD
ATOM     21  H51 UNL     1     -25.538 -21.099 -15.499  1.00  0.00     0.286 HD
HETATM   22  O4  UNL     1     -27.079 -21.495 -17.537  1.00  0.00    -0.302 OA
BRANCH  19  23
HETATM   23  C8  UNL     1     -28.170 -21.747 -15.359  1.00  0.00     0.225 C
BRANCH  23  24
HETATM   24  O3  UNL     1     -27.998 -20.365 -15.266  1.00  0.00    -0.397 OA
ATOM     25  H3  UNL     1     -28.859 -19.967 -15.308  1.00  0.00     0.209 HD
ENDBRANCH  23  24
ENDBRANCH  19  23
ENDBRANCH  16  17
ENDBRANCH  11  16
BRANCH  15  26
HETATM   26  O5  UNL     1     -23.424 -18.828 -20.507  1.00  0.00    -0.365 OA
ATOM     27  H5  UNL     1     -23.211 -17.913 -20.650  1.00  0.00     0.212 HD
ENDBRANCH  15  26
BRANCH  15  28
HETATM   28  C11 UNL     1     -22.071 -20.161 -22.001  1.00  0.00     0.283 C
HETATM   29  N7  UNL     1     -23.052 -20.665 -22.883  1.00  0.00    -0.058 NA
HETATM   30  O6  UNL     1     -20.880 -19.970 -22.350  1.00  0.00    -0.272 OA
ENDBRANCH  15  28
BRANCH   1  31
HETATM   31  N1  UNL     1     -17.265 -20.049 -17.097  1.00  0.00    -0.234 N
ATOM     32  H12 UNL     1     -16.590 -20.621 -17.605  1.00  0.00     0.174 HD
ATOM     33  H11 UNL     1     -16.980 -19.310 -16.456  1.00  0.00     0.174 HD
ENDBRANCH   1  31
TORSDOF 7
ENDMDL