MODEL 2
REMARK VINA RESULT: -6.237366256      2.637      3.905
REMARK  9 active torsions:
REMARK  status: ('A' for Active; 'I' for Inactive)
REMARK    1  A    between atoms: C2_2  and  C3_4
REMARK    2  A    between atoms: C3_4  and  O2_5
REMARK    3  A    between atoms: C3_4  and  C4_7
REMARK    4  A    between atoms: C4_7  and  O3_8
REMARK    5  A    between atoms: C4_7  and  C5_10
REMARK    6  A    between atoms: C6_12  and  O5_13
REMARK    7  A    between atoms: C7_15  and  O6_16
REMARK    8  A    between atoms: C7_15  and  C8_18
REMARK    9  A    between atoms: N2_23  and  N3_24
ROOT
HETATM    1  C5  UNL     1     -20.180 -18.170 -19.778  1.00  0.00     0.196 C
HETATM    2  O4  UNL     1     -19.749 -19.460 -19.883  1.00  0.00    -0.332 OA
HETATM    3  C6  UNL     1     -20.883 -20.275 -19.857  1.00  0.00     0.306 C
HETATM    4  C7  UNL     1     -22.003 -19.466 -20.499  1.00  0.00     0.218 C
HETATM    5  C9  UNL     1     -21.371 -18.156 -20.715  1.00  0.00     0.194 C
HETATM    6  N1  UNL     1     -22.120 -16.976 -20.515  1.00  0.00    -0.112 NA
HETATM    7  N2  UNL     1     -21.316 -15.880 -20.751  1.00  0.00    -0.049 NA
HETATM    8  N4  UNL     1     -20.010 -16.124 -21.094  1.00  0.00    -0.253 N
ATOM      9  H4  UNL     1     -19.561 -15.564 -21.819  1.00  0.00     0.187 HD
HETATM   10  C10 UNL     1     -19.277 -17.159 -20.438  1.00  0.00     0.274 C
HETATM   11  O9  UNL     1     -18.046 -17.200 -20.426  1.00  0.00    -0.268 OA
ENDROOT
BRANCH   1  12
HETATM   12  C4  UNL     1     -20.449 -17.701 -18.398  1.00  0.00     0.200 C
BRANCH  12  13
HETATM   13  C3  UNL     1     -19.240 -18.101 -17.536  1.00  0.00     0.219 C
BRANCH  13  14
HETATM   14  C2  UNL     1     -18.962 -16.887 -16.694  1.00  0.00     0.154 C
HETATM   15  C1  UNL     1     -17.729 -16.726 -15.910  1.00  0.00     0.093 C
HETATM   16  O1  UNL     1     -19.839 -16.024 -16.701  1.00  0.00    -0.295 OA
ENDBRANCH  13  14
BRANCH  13  17
HETATM   17  O2  UNL     1     -19.678 -19.152 -16.731  1.00  0.00    -0.385 OA
ATOM     18  H2  UNL     1     -19.517 -19.983 -17.163  1.00  0.00     0.210 HD
ENDBRANCH  13  17
ENDBRANCH  12  13
BRANCH  12  19
HETATM   19  O3  UNL     1     -21.542 -18.291 -17.772  1.00  0.00    -0.389 OA
ATOM     20  H3  UNL     1     -21.349 -19.221 -17.771  1.00  0.00     0.210 HD
ENDBRANCH  12  19
ENDBRANCH   1  12
BRANCH   3  21
HETATM   21  O5  UNL     1     -20.588 -21.424 -20.578  1.00  0.00    -0.368 OA
ATOM     22  H5  UNL     1     -19.962 -21.927 -20.071  1.00  0.00     0.212 HD
ENDBRANCH   3  21
BRANCH   4  23
HETATM   23  O6  UNL     1     -23.145 -19.455 -19.732  1.00  0.00    -0.373 OA
ATOM     24  H6  UNL     1     -23.933 -19.424 -20.260  1.00  0.00     0.211 HD
ENDBRANCH   4  23
BRANCH   4  25
HETATM   25  C8  UNL     1     -22.314 -20.127 -21.795  1.00  0.00     0.216 C
HETATM   26  O7  UNL     1     -21.576 -19.894 -22.777  1.00  0.00    -0.646 OA
HETATM   27  O8  UNL     1     -23.388 -20.991 -21.959  1.00  0.00    -0.646 OA
ENDBRANCH   4  25
BRANCH   7  28
HETATM   28  N3  UNL     1     -21.930 -14.979 -21.616  1.00  0.00    -0.330 NA
ATOM     29  H32 UNL     1     -22.298 -14.162 -21.128  1.00  0.00     0.174 HD
ATOM     30  H31 UNL     1     -21.356 -14.809 -22.442  1.00  0.00     0.174 HD
ENDBRANCH   7  28
TORSDOF 9
ENDMDL