MODEL 4
REMARK VINA RESULT: -6.802813536      1.255      1.436
REMARK  7 active torsions:
REMARK  status: ('A' for Active; 'I' for Inactive)
REMARK       I    between atoms: N1_1  and  C1_5
REMARK       I    between atoms: C1_5  and  N2_6
REMARK       I    between atoms: C1_5  and  N3_10
REMARK       I    between atoms: N3_10  and  C2_12
REMARK    1  A    between atoms: C2_12  and  C3_14
REMARK    2  A    between atoms: C3_14  and  N4_15
REMARK    3  A    between atoms: C3_14  and  N5_19
REMARK    4  A    between atoms: C5_23  and  C6_24
REMARK    5  A    between atoms: C8_33  and  C9_34
REMARK    6  A    between atoms: C9_34  and  O4_35
REMARK    7  A    between atoms: C9_34  and  O5_37
ROOT
HETATM    1  N5  UNL     1     -22.886 -21.721 -17.410  1.00  0.00    -0.314 N
HETATM    2  C4  UNL     1     -22.086 -22.042 -16.249  1.00  0.00     0.119 C
HETATM    3  N6  UNL     1     -20.921 -21.696 -15.827  1.00  0.00    -0.323 N
ATOM      4  H6  UNL     1     -20.383 -21.055 -16.411  1.00  0.00     0.169 HD
HETATM    5  C5  UNL     1     -20.329 -22.126 -14.633  1.00  0.00     0.199 C
HETATM    6  N7  UNL     1     -20.955 -22.910 -13.860  1.00  0.00    -0.283 N
ATOM      7  H7  UNL     1     -20.518 -23.226 -12.994  1.00  0.00     0.188 HD
HETATM    8  N8  UNL     1     -22.236 -23.342 -14.184  1.00  0.00    -0.313 N
ATOM      9  H8  UNL     1     -22.788 -23.835 -13.482  1.00  0.00     0.182 HD
HETATM   10  C7  UNL     1     -22.785 -23.118 -15.450  1.00  0.00     0.230 C
HETATM   11  S1  UNL     1     -24.366 -22.249 -15.342  1.00  0.00    -0.104 SA
HETATM   12  C8  UNL     1     -24.285 -21.801 -17.164  1.00  0.00     0.207 C
ENDROOT
BRANCH   1  13
HETATM   13  C3  UNL     1     -22.209 -21.341 -18.615  1.00  0.00     0.379 C
BRANCH  13  14
HETATM   14  C2  UNL     1     -21.908 -19.949 -18.819  1.00  0.00     0.271 C
HETATM   15  N3  UNL     1     -21.925 -19.278 -20.067  1.00  0.00    -0.308 N
HETATM   16  C1  UNL     1     -21.616 -17.875 -20.245  1.00  0.00     0.482 C
ATOM     17  H3  UNL     1     -22.171 -19.819 -20.896  1.00  0.00     0.166 HD
HETATM   18  N1  UNL     1     -20.451 -17.682 -21.106  1.00  0.00    -0.033 N
HETATM   19  N2  UNL     1     -22.759 -17.126 -20.749  1.00  0.00    -0.033 N
ATOM     20  H13 UNL     1     -20.657 -17.915 -22.078  1.00  0.00     0.278 HD
ATOM     21  H12 UNL     1     -20.231 -16.694 -21.229  1.00  0.00     0.278 HD
ATOM     22  H11 UNL     1     -19.651 -18.207 -20.753  1.00  0.00     0.278 HD
ATOM     23  H23 UNL     1     -22.539 -16.138 -20.872  1.00  0.00     0.278 HD
ATOM     24  H22 UNL     1     -22.964 -17.359 -21.721  1.00  0.00     0.278 HD
ATOM     25  H21 UNL     1     -23.572 -17.261 -20.149  1.00  0.00     0.278 HD
HETATM   26  O1  UNL     1     -21.595 -19.210 -17.819  1.00  0.00    -0.269 OA
ENDBRANCH  13  14
BRANCH  13  27
HETATM   27  N4  UNL     1     -22.885 -21.874 -19.805  1.00  0.00    -0.049 N
ATOM     28  H43 UNL     1     -23.291 -22.794 -19.637  1.00  0.00     0.277 HD
ATOM     29  H42 UNL     1     -23.746 -21.371 -20.017  1.00  0.00     0.277 HD
ATOM     30  H41 UNL     1     -22.236 -21.877 -20.591  1.00  0.00     0.277 HD
ENDBRANCH  13  27
ENDBRANCH   1  13
BRANCH  12  31
HETATM   31  C9  UNL     1     -25.094 -22.852 -17.809  1.00  0.00     0.286 C
BRANCH  31  32
HETATM   32  O4  UNL     1     -26.223 -23.270 -17.106  1.00  0.00    -0.369 OA
ATOM     33  H4  UNL     1     -26.701 -22.590 -16.647  1.00  0.00     0.212 HD
ENDBRANCH  31  32
BRANCH  31  34
HETATM   34  O5  UNL     1     -24.471 -23.986 -18.250  1.00  0.00    -0.369 OA
ATOM     35  H5  UNL     1     -24.718 -24.821 -17.871  1.00  0.00     0.212 HD
ENDBRANCH  31  34
ENDBRANCH  12  31
BRANCH   5  36
HETATM   36  C6  UNL     1     -18.983 -21.708 -14.213  1.00  0.00     0.246 C
HETATM   37  O2  UNL     1     -18.307 -21.054 -15.035  1.00  0.00    -0.642 OA
HETATM   38  O3  UNL     1     -18.468 -22.013 -12.967  1.00  0.00    -0.642 OA
ENDBRANCH   5  36
TORSDOF 7
ENDMDL