MODEL 3
REMARK VINA RESULT: -7.537881493      2.232      6.698
REMARK  9 active torsions:
REMARK  status: ('A' for Active; 'I' for Inactive)
REMARK    1  A    between atoms: C1_2  and  C2_4
REMARK    2  A    between atoms: N2_6  and  C4_7
REMARK    3  A    between atoms: C6_9  and  C7_10
REMARK    4  A    between atoms: C7_10  and  O2_11
REMARK    5  A    between atoms: C7_10  and  O3_13
REMARK    6  A    between atoms: C8_15  and  O4_16
REMARK    7  A    between atoms: C9_18  and  O5_19
REMARK    8  A    between atoms: C9_18  and  C10_21
REMARK    9  A    between atoms: C10_21  and  O6_22
ROOT
HETATM    1  C4  UNL     1     -22.030 -20.707 -17.877  1.00  0.00     0.236 C
HETATM    2  C5  UNL     1     -21.827 -21.055 -16.459  1.00  0.00     0.066 C
HETATM    3  C6  UNL     1     -22.510 -22.422 -16.251  1.00  0.00     0.079 C
HETATM    4  C8  UNL     1     -23.964 -22.204 -16.555  1.00  0.00     0.191 C
HETATM    5  C9  UNL     1     -24.142 -21.674 -17.939  1.00  0.00     0.212 C
HETATM    6  O7  UNL     1     -23.369 -20.576 -18.245  1.00  0.00    -0.326 OA
ENDROOT
BRANCH   1   7
HETATM    7  N2  UNL     1     -21.333 -19.596 -18.413  1.00  0.00    -0.281 N
HETATM    8  C3  UNL     1     -21.094 -18.550 -17.566  1.00  0.00     0.120 A
HETATM    9  C2  UNL     1     -20.421 -17.431 -18.011  1.00  0.00     0.113 A
HETATM   10  C12 UNL     1     -19.986 -17.361 -19.319  1.00  0.00     0.266 A
HETATM   11  N3  UNL     1     -20.233 -18.409 -20.144  1.00  0.00    -0.274 N
HETATM   12  O9  UNL     1     -19.375 -16.345 -19.728  1.00  0.00    -0.267 OA
HETATM   13  C11 UNL     1     -20.891 -19.476 -19.663  1.00  0.00     0.331 A
ATOM     14  H3  UNL     1     -19.924 -18.388 -21.116  1.00  0.00     0.173 HD
HETATM   15  O8  UNL     1     -21.110 -20.432 -20.438  1.00  0.00    -0.246 OA
BRANCH   9  16
HETATM   16  C1  UNL     1     -20.171 -16.317 -17.092  1.00  0.00     0.271 C
HETATM   17  N1  UNL     1     -18.860 -16.111 -16.580  1.00  0.00    -0.057 NA
HETATM   18  O1  UNL     1     -21.062 -15.528 -16.732  1.00  0.00    -0.271 OA
ENDBRANCH   9  16
ENDBRANCH   1   7
BRANCH   3  19
HETATM   19  C7  UNL     1     -22.356 -22.746 -14.760  1.00  0.00     0.260 C
BRANCH  19  20
HETATM   20  O2  UNL     1     -21.312 -22.003 -14.212  1.00  0.00    -0.371 OA
ATOM     21  H2  UNL     1     -21.227 -22.193 -13.284  1.00  0.00     0.212 HD
ENDBRANCH  19  20
BRANCH  19  22
HETATM   22  O3  UNL     1     -22.040 -24.078 -14.634  1.00  0.00    -0.371 OA
ATOM     23  H3  UNL     1     -22.088 -24.313 -13.714  1.00  0.00     0.212 HD
ENDBRANCH  19  22
ENDBRANCH   3  19
BRANCH   5  24
HETATM   24  O5  UNL     1     -25.485 -21.237 -18.038  1.00  0.00    -0.362 OA
ATOM     25  H5  UNL     1     -25.756 -21.389 -18.935  1.00  0.00     0.213 HD
ENDBRANCH   5  24
BRANCH   5  26
HETATM   26  C10 UNL     1     -24.016 -22.765 -19.002  1.00  0.00     0.235 C
BRANCH  26  27
HETATM   27  O6  UNL     1     -23.543 -22.213 -20.176  1.00  0.00    -0.395 OA
ATOM     28  H6  UNL     1     -24.147 -21.546 -20.480  1.00  0.00     0.209 HD
ENDBRANCH  26  27
ENDBRANCH   5  26
BRANCH   4  29
HETATM   29  O4  UNL     1     -24.631 -23.389 -16.394  1.00  0.00    -0.389 OA
ATOM     30  H4  UNL     1     -25.301 -23.275 -15.730  1.00  0.00     0.210 HD
ENDBRANCH   4  29
TORSDOF 9
ENDMDL