MODEL 4
REMARK VINA RESULT: -6.889546597      1.657      2.360
REMARK  10 active torsions:
REMARK  status: ('A' for Active; 'I' for Inactive)
REMARK    1  A    between atoms: N1_2  and  C2_4
REMARK    2  A    between atoms: C3_7  and  N3_8
REMARK    3  A    between atoms: N7_19  and  C6_20
REMARK    4  A    between atoms: C6_20  and  C7_21
REMARK    5  A    between atoms: C6_20  and  O1_26
REMARK    6  A    between atoms: C7_21  and  N8_22
REMARK    7  A    between atoms: O1_26  and  C8_27
REMARK    8  A    between atoms: C8_27  and  C9_29
REMARK    9  A    between atoms: C10_33  and  O3_34
REMARK   10  A    between atoms: C11_36  and  O4_37
ROOT
HETATM    1  C2  UNL     1     -19.195 -21.376 -13.806  1.00  0.00     0.148 A
HETATM    2  N2  UNL     1     -20.039 -22.363 -13.463  1.00  0.00    -0.175 N
ATOM      3  H2  UNL     1     -20.032 -22.718 -12.508  1.00  0.00     0.186 HD
HETATM    4  C3  UNL     1     -20.899 -22.895 -14.365  1.00  0.00     0.679 A
HETATM    5  N4  UNL     1     -20.963 -22.476 -15.643  1.00  0.00    -0.173 N
ATOM      6  H4  UNL     1     -21.622 -22.898 -16.297  1.00  0.00     0.186 HD
HETATM    7  C4  UNL     1     -20.139 -21.489 -16.037  1.00  0.00     0.173 A
HETATM    8  C5  UNL     1     -19.246 -20.934 -15.111  1.00  0.00     0.140 A
HETATM    9  N5  UNL     1     -18.584 -20.004 -15.794  1.00  0.00    -0.279 N
ATOM     10  H5  UNL     1     -17.851 -19.404 -15.417  1.00  0.00     0.189 HD
HETATM   11  N6  UNL     1     -19.027 -19.982 -17.039  1.00  0.00    -0.236 N
ATOM     12  H6  UNL     1     -18.679 -19.352 -17.762  1.00  0.00     0.208 HD
HETATM   13  N7  UNL     1     -19.978 -20.877 -17.227  1.00  0.00    -0.227 N
ENDROOT
BRANCH  13  14
HETATM   14  C6  UNL     1     -20.717 -21.161 -18.459  1.00  0.00     0.282 C
BRANCH  14  15
HETATM   15  C7  UNL     1     -20.095 -20.433 -19.636  1.00  0.00     0.285 C
BRANCH  15  16
HETATM   16  N8  UNL     1     -20.655 -20.890 -20.894  1.00  0.00    -0.075 N
ATOM     17  H83 UNL     1     -20.017 -20.720 -21.671  1.00  0.00     0.274 HD
ATOM     18  H82 UNL     1     -20.690 -21.909 -20.940  1.00  0.00     0.274 HD
ATOM     19  H81 UNL     1     -21.572 -20.476 -21.064  1.00  0.00     0.274 HD
ENDBRANCH  15  16
ENDBRANCH  14  15
BRANCH  14  20
HETATM   20  O1  UNL     1     -22.086 -20.902 -18.335  1.00  0.00    -0.290 OA
BRANCH  20  21
HETATM   21  C8  UNL     1     -23.102 -21.787 -18.590  1.00  0.00     0.294 C
HETATM   22  O2  UNL     1     -23.562 -21.836 -19.757  1.00  0.00    -0.263 OA
BRANCH  21  23
HETATM   23  C9  UNL     1     -23.672 -22.687 -17.525  1.00  0.00     0.320 C
HETATM   24  N9  UNL     1     -24.884 -23.344 -17.946  1.00  0.00    -0.030 N
HETATM   25  C10 UNL     1     -25.656 -22.405 -17.166  1.00  0.00     0.351 C
ATOM     26  H92 UNL     1     -25.080 -23.469 -18.939  1.00  0.00     0.281 HD
ATOM     27  H91 UNL     1     -24.999 -24.347 -17.799  1.00  0.00     0.281 HD
HETATM   28  C11 UNL     1     -24.417 -21.980 -16.442  1.00  0.00     0.215 C
BRANCH  25  29
HETATM   29  O3  UNL     1     -26.195 -21.363 -17.926  1.00  0.00    -0.368 OA
ATOM     30  H3  UNL     1     -27.044 -21.069 -17.616  1.00  0.00     0.212 HD
ENDBRANCH  25  29
BRANCH  28  31
HETATM   31  O4  UNL     1     -24.304 -22.655 -15.210  1.00  0.00    -0.389 OA
ATOM     32  H4  UNL     1     -25.144 -22.726 -14.773  1.00  0.00     0.210 HD
ENDBRANCH  28  31
ENDBRANCH  21  23
ENDBRANCH  20  21
ENDBRANCH  14  20
ENDBRANCH  13  14
BRANCH   4  33
HETATM   33  N3  UNL     1     -21.708 -23.852 -14.003  1.00  0.00    -0.234 N
ATOM     34  H32 UNL     1     -21.430 -24.428 -13.208  1.00  0.00     0.174 HD
ATOM     35  H31 UNL     1     -22.579 -23.999 -14.513  1.00  0.00     0.174 HD
ENDBRANCH   4  33
BRANCH   1  36
HETATM   36  N1  UNL     1     -18.383 -20.878 -12.946  1.00  0.00    -0.378 N
HETATM   37  C1  UNL     1     -17.049 -21.324 -12.717  1.00  0.00     0.147 C
ATOM     38  H1  UNL     1     -18.720 -20.101 -12.379  1.00  0.00     0.160 HD
ENDBRANCH   1  36
TORSDOF 10
ENDMDL