MODEL 1
REMARK VINA RESULT: -6.526356645      0.000      0.000
REMARK  10 active torsions:
REMARK  status: ('A' for Active; 'I' for Inactive)
REMARK    1  A    between atoms: C1_4  and  O1_5
REMARK    2  A    between atoms: C1_4  and  C2_7
REMARK    3  A    between atoms: C2_7  and  O2_8
REMARK    4  A    between atoms: C3_10  and  O3_11
REMARK    5  A    between atoms: C4_13  and  N2_14
REMARK    6  A    between atoms: C5_15  and  C6_16
REMARK    7  A    between atoms: C6_16  and  O4_18
REMARK    8  A    between atoms: C10_28  and  O8_29
REMARK    9  A    between atoms: C10_28  and  C11_31
REMARK   10  A    between atoms: C11_31  and  O9_32
ROOT
HETATM    1  C2  UNL     1     -21.925 -19.309 -20.604  1.00  0.00     0.210 C
HETATM    2  C3  UNL     1     -22.292 -19.567 -19.115  1.00  0.00     0.215 C
HETATM    3  C4  UNL     1     -21.820 -20.993 -19.070  1.00  0.00     0.269 C
HETATM    4  O7  UNL     1     -22.482 -21.547 -20.127  1.00  0.00    -0.322 OA
HETATM    5  C10 UNL     1     -22.166 -20.639 -21.176  1.00  0.00     0.228 C
ENDROOT
BRANCH   3   6
HETATM    6  N2  UNL     1     -21.766 -21.646 -17.829  1.00  0.00    -0.266 N
HETATM    7  C5  UNL     1     -22.815 -22.119 -17.168  1.00  0.00     0.094 A
HETATM    8  C7  UNL     1     -22.574 -22.809 -15.934  1.00  0.00     0.108 A
HETATM    9  C8  UNL     1     -21.316 -22.975 -15.451  1.00  0.00     0.251 A
HETATM   10  O5  UNL     1     -21.064 -23.570 -14.379  1.00  0.00    -0.268 OA
HETATM   11  N4  UNL     1     -20.302 -22.473 -16.164  1.00  0.00    -0.275 N
HETATM   12  C9  UNL     1     -20.489 -21.829 -17.313  1.00  0.00     0.332 A
ATOM     13  H4  UNL     1     -19.350 -22.588 -15.813  1.00  0.00     0.173 HD
HETATM   14  O6  UNL     1     -19.503 -21.364 -17.973  1.00  0.00    -0.246 OA
BRANCH   7  15
HETATM   15  C6  UNL     1     -24.180 -21.945 -17.557  1.00  0.00     0.177 C
HETATM   16  N3  UNL     1     -25.176 -21.031 -17.221  1.00  0.00    -0.073 NA
BRANCH  15  17
HETATM   17  O4  UNL     1     -24.590 -22.855 -18.421  1.00  0.00    -0.347 OA
ATOM     18  H4  UNL     1     -24.112 -22.828 -19.242  1.00  0.00     0.219 HD
ENDBRANCH  15  17
ENDBRANCH   7  15
ENDBRANCH   3   6
BRANCH   2  19
HETATM   19  O3  UNL     1     -21.513 -18.758 -18.297  1.00  0.00    -0.387 OA
ATOM     20  H3  UNL     1     -21.924 -18.679 -17.444  1.00  0.00     0.210 HD
ENDBRANCH   2  19
BRANCH   1  21
HETATM   21  C1  UNL     1     -20.619 -18.699 -20.699  1.00  0.00     0.153 C
HETATM   22  N1  UNL     1     -20.389 -17.597 -21.281  1.00  0.00    -0.381 N
ATOM     23  H12 UNL     1     -19.467 -17.166 -21.349  1.00  0.00     0.158 HD
ATOM     24  H11 UNL     1     -21.206 -17.147 -21.694  1.00  0.00     0.158 HD
BRANCH  21  25
HETATM   25  O1  UNL     1     -19.489 -19.322 -20.128  1.00  0.00    -0.347 OA
ATOM     26  H1  UNL     1     -19.422 -20.256 -20.285  1.00  0.00     0.219 HD
ENDBRANCH  21  25
ENDBRANCH   1  21
BRANCH   1  27
HETATM   27  O2  UNL     1     -22.936 -18.403 -21.026  1.00  0.00    -0.374 OA
ATOM     28  H2  UNL     1     -23.798 -18.723 -20.785  1.00  0.00     0.211 HD
ENDBRANCH   1  27
BRANCH   5  29
HETATM   29  O8  UNL     1     -23.293 -20.566 -22.028  1.00  0.00    -0.361 OA
ATOM     30  H8  UNL     1     -23.731 -21.410 -22.024  1.00  0.00     0.213 HD
ENDBRANCH   5  29
BRANCH   5  31
HETATM   31  C11 UNL     1     -21.094 -21.300 -21.964  1.00  0.00     0.236 C
BRANCH  31  32
HETATM   32  O9  UNL     1     -21.219 -20.791 -23.294  1.00  0.00    -0.395 OA
ATOM     33  H9  UNL     1     -20.334 -20.735 -23.634  1.00  0.00     0.209 HD
ENDBRANCH  31  32
ENDBRANCH   5  31
TORSDOF 10
ENDMDL