MODEL 1
REMARK VINA RESULT: -6.891695604      0.000      0.000
REMARK  9 active torsions:
REMARK  status: ('A' for Active; 'I' for Inactive)
REMARK    1  A    between atoms: C1_2  and  C2_4
REMARK    2  A    between atoms: N3_8  and  C4_9
REMARK    3  A    between atoms: C5_11  and  C6_12
REMARK    4  A    between atoms: C7_15  and  O4_16
REMARK    5  A    between atoms: C7_15  and  C8_18
REMARK    6  A    between atoms: C8_18  and  N5_19
REMARK    7  A    between atoms: C8_18  and  O5_23
REMARK    8  A    between atoms: C9_25  and  O6_26
REMARK    9  A    between atoms: C10_28  and  O7_29
ROOT
HETATM    1  C4  UNL     1     -21.561 -20.310 -18.588  1.00  0.00     0.277 C
HETATM    2  O2  UNL     1     -21.593 -18.946 -18.470  1.00  0.00    -0.345 OA
HETATM    3  C5  UNL     1     -21.465 -18.229 -19.621  1.00  0.00     0.254 C
HETATM    4  C7  UNL     1     -20.338 -18.712 -20.515  1.00  0.00     0.171 C
HETATM    5  C9  UNL     1     -20.523 -20.162 -20.881  1.00  0.00     0.193 C
HETATM    6  C10 UNL     1     -21.583 -20.800 -20.016  1.00  0.00     0.200 C
ENDROOT
BRANCH   1   7
HETATM    7  N3  UNL     1     -22.583 -20.981 -17.811  1.00  0.00    -0.254 N
HETATM    8  C3  UNL     1     -22.464 -21.867 -16.816  1.00  0.00     0.205 A
HETATM    9  N2  UNL     1     -23.685 -22.228 -16.386  1.00  0.00    -0.332 N
HETATM   10  C2  UNL     1     -24.581 -21.560 -17.121  1.00  0.00     0.187 A
ATOM     11  H2  UNL     1     -23.891 -22.889 -15.637  1.00  0.00     0.168 HD
HETATM   12  N6  UNL     1     -23.883 -20.808 -17.982  1.00  0.00    -0.276 N
ATOM     13  H6  UNL     1     -24.298 -20.186 -18.676  1.00  0.00     0.189 HD
BRANCH  10  14
HETATM   14  C1  UNL     1     -26.028 -21.648 -16.995  1.00  0.00     0.300 C
HETATM   15  N1  UNL     1     -26.576 -22.249 -15.831  1.00  0.00    -0.054 NA
HETATM   16  O1  UNL     1     -26.822 -21.219 -17.866  1.00  0.00    -0.268 OA
ENDBRANCH  10  14
ENDBRANCH   1   7
BRANCH   6  17
HETATM   17  O7  UNL     1     -22.862 -20.718 -20.588  1.00  0.00    -0.388 OA
ATOM     18  H7  UNL     1     -23.018 -19.878 -21.003  1.00  0.00     0.210 HD
ENDBRANCH   6  17
BRANCH   3  19
HETATM   19  C6  UNL     1     -21.375 -16.799 -19.282  1.00  0.00     0.263 C
HETATM   20  N4  UNL     1     -21.428 -16.286 -17.960  1.00  0.00    -0.060 NA
HETATM   21  O3  UNL     1     -21.242 -15.958 -20.202  1.00  0.00    -0.274 OA
ENDBRANCH   3  19
BRANCH   5  22
HETATM   22  O6  UNL     1     -19.365 -20.911 -20.829  1.00  0.00    -0.390 OA
ATOM     23  H6  UNL     1     -19.504 -21.829 -20.632  1.00  0.00     0.210 HD
ENDBRANCH   5  22
BRANCH   4  24
HETATM   24  O4  UNL     1     -20.290 -17.985 -21.702  1.00  0.00    -0.380 OA
ATOM     25  H4  UNL     1     -20.429 -18.548 -22.455  1.00  0.00     0.211 HD
ENDBRANCH   4  24
BRANCH   4  26
HETATM   26  C8  UNL     1     -18.985 -18.585 -19.857  1.00  0.00     0.356 C
BRANCH  26  27
HETATM   27  N5  UNL     1     -18.939 -17.611 -18.792  1.00  0.00    -0.050 N
ATOM     28  H53 UNL     1     -19.880 -17.297 -18.552  1.00  0.00     0.277 HD
ATOM     29  H52 UNL     1     -18.677 -18.054 -17.912  1.00  0.00     0.277 HD
ATOM     30  H51 UNL     1     -18.334 -16.813 -18.986  1.00  0.00     0.277 HD
ENDBRANCH  26  27
BRANCH  26  31
HETATM   31  O5  UNL     1     -18.129 -18.049 -20.854  1.00  0.00    -0.367 OA
ATOM     32  H5  UNL     1     -17.807 -17.229 -20.497  1.00  0.00     0.212 HD
ENDBRANCH  26  31
ENDBRANCH   4  26
TORSDOF 9
ENDMDL