MODEL 1
REMARK VINA RESULT: -6.857080149      0.000      0.000
REMARK  10 active torsions:
REMARK  status: ('A' for Active; 'I' for Inactive)
REMARK    1  A    between atoms: C3_4  and  C4_5
REMARK    2  A    between atoms: C4_5  and  O1_6
REMARK    3  A    between atoms: C4_5  and  N2_8
REMARK    4  A    between atoms: N2_8  and  O2_9
REMARK    5  A    between atoms: C5_11  and  N3_12
REMARK    6  A    between atoms: N5_19  and  C7_20
REMARK    7  A    between atoms: C9_23  and  O4_24
REMARK    8  A    between atoms: O4_24  and  N7_25
REMARK    9  A    between atoms: C10_28  and  C11_29
REMARK   10  A    between atoms: C11_29  and  O5_30
ROOT
HETATM    1  N1  UNL     1     -19.033 -21.201 -18.263  1.00  0.00    -0.190 NA
HETATM    2  C1  UNL     1     -20.115 -21.403 -17.845  1.00  0.00     0.119 C
HETATM    3  C2  UNL     1     -21.453 -21.627 -17.346  1.00  0.00     0.140 A
HETATM    4  C3  UNL     1     -21.595 -22.406 -16.219  1.00  0.00     0.070 A
HETATM    5  C5  UNL     1     -22.889 -22.598 -15.759  1.00  0.00     0.116 A
HETATM    6  N4  UNL     1     -23.953 -22.048 -16.385  1.00  0.00    -0.294 N
ATOM      7  H4  UNL     1     -24.898 -22.199 -16.033  1.00  0.00     0.172 HD
HETATM    8  C6  UNL     1     -23.741 -21.302 -17.475  1.00  0.00     0.335 A
HETATM    9  O3  UNL     1     -24.768 -20.799 -18.039  1.00  0.00    -0.246 OA
HETATM   10  N5  UNL     1     -22.523 -21.066 -17.987  1.00  0.00    -0.231 N
ENDROOT
BRANCH   4  11
HETATM   11  C4  UNL     1     -20.449 -23.019 -15.510  1.00  0.00     0.278 C
BRANCH  11  12
HETATM   12  O1  UNL     1     -20.808 -24.381 -15.327  1.00  0.00    -0.373 OA
ATOM     13  H1  UNL     1     -20.291 -24.863 -15.962  1.00  0.00     0.212 HD
ENDBRANCH  11  12
BRANCH  11  14
HETATM   14  N2  UNL     1     -20.370 -22.496 -14.146  1.00  0.00    -0.066 NA
BRANCH  14  15
HETATM   15  O2  UNL     1     -19.694 -21.317 -14.130  1.00  0.00    -0.293 OA
ATOM     16  H2  UNL     1     -18.896 -21.386 -14.641  1.00  0.00     0.238 HD
ENDBRANCH  14  15
ENDBRANCH  11  14
ENDBRANCH   4  11
BRANCH  10  17
HETATM   17  C7  UNL     1     -22.315 -20.272 -19.143  1.00  0.00     0.178 C
HETATM   18  C8  UNL     1     -22.514 -20.616 -20.400  1.00  0.00     0.109 C
HETATM   19  N6  UNL     1     -22.996 -21.901 -20.854  1.00  0.00    -0.100 NA
HETATM   20  C9  UNL     1     -22.158 -19.447 -21.233  1.00  0.00     0.234 C
HETATM   21  C10 UNL     1     -21.276 -18.636 -20.349  1.00  0.00     0.191 C
HETATM   22  O6  UNL     1     -21.840 -18.947 -19.061  1.00  0.00    -0.323 OA
BRANCH  20  23
HETATM   23  O4  UNL     1     -21.556 -19.815 -22.430  1.00  0.00    -0.273 OA
BRANCH  23  24
HETATM   24  N7  UNL     1     -20.453 -20.557 -22.261  1.00  0.00    -0.310 N
ATOM     25  H72 UNL     1     -19.520 -20.147 -22.216  1.00  0.00     0.184 HD
ATOM     26  H71 UNL     1     -20.645 -21.555 -22.186  1.00  0.00     0.184 HD
ENDBRANCH  23  24
ENDBRANCH  20  23
BRANCH  21  27
HETATM   27  C11 UNL     1     -21.446 -17.147 -20.534  1.00  0.00     0.199 C
BRANCH  27  28
HETATM   28  O5  UNL     1     -22.817 -16.894 -20.583  1.00  0.00    -0.398 OA
ATOM     29  H5  UNL     1     -23.206 -17.567 -21.129  1.00  0.00     0.209 HD
ENDBRANCH  27  28
ENDBRANCH  21  27
ENDBRANCH  10  17
BRANCH   5  30
HETATM   30  N3  UNL     1     -23.092 -23.297 -14.720  1.00  0.00    -0.385 N
ATOM     31  H32 UNL     1     -23.177 -24.308 -14.823  1.00  0.00     0.157 HD
ATOM     32  H31 UNL     1     -23.173 -22.843 -13.811  1.00  0.00     0.157 HD
ENDBRANCH   5  30
TORSDOF 10
ENDMDL