MODEL 2
REMARK VINA RESULT: -8.491485482      1.940      7.744
REMARK  8 active torsions:
REMARK  status: ('A' for Active; 'I' for Inactive)
REMARK       I    between atoms: C1_4  and  N3_6
REMARK       I    between atoms: N3_6  and  C2_8
REMARK    1  A    between atoms: C2_8  and  C3_10
REMARK    2  A    between atoms: C3_10  and  O2_11
REMARK    3  A    between atoms: C3_10  and  C4_13
REMARK    4  A    between atoms: C4_13  and  O3_14
REMARK    5  A    between atoms: C4_13  and  C5_16
REMARK    6  A    between atoms: C6_20  and  N6_21
REMARK    7  A    between atoms: C9_24  and  N7_25
REMARK    8  A    between atoms: N7_25  and  N8_27
ROOT
HETATM    1  C5  UNL     1     -27.262 -21.832 -16.391  1.00  0.00     0.276 C
HETATM    2  N4  UNL     1     -27.881 -20.862 -15.548  1.00  0.00    -0.102 NA
HETATM    3  N5  UNL     1     -28.781 -21.598 -14.756  1.00  0.00    -0.266 N
ATOM      4  H5  UNL     1     -29.551 -21.187 -14.229  1.00  0.00     0.186 HD
HETATM    5  C6  UNL     1     -28.510 -22.858 -14.778  1.00  0.00     0.247 C
HETATM    6  O5  UNL     1     -27.405 -23.008 -15.597  1.00  0.00    -0.294 OA
ENDROOT
BRANCH   1   7
HETATM    7  C4  UNL     1     -25.850 -21.579 -16.780  1.00  0.00     0.203 C
BRANCH   7   8
HETATM    8  C3  UNL     1     -24.848 -22.582 -16.291  1.00  0.00     0.242 C
BRANCH   8   9
HETATM    9  C2  UNL     1     -23.476 -22.109 -16.141  1.00  0.00     0.255 C
HETATM   10  N3  UNL     1     -22.983 -21.066 -16.955  1.00  0.00    -0.299 N
HETATM   11  C1  UNL     1     -21.651 -20.620 -16.800  1.00  0.00     0.188 C
ATOM     12  H3  UNL     1     -23.587 -20.635 -17.655  1.00  0.00     0.171 HD
HETATM   13  N1  UNL     1     -21.163 -19.662 -17.532  1.00  0.00    -0.373 N
HETATM   14  N2  UNL     1     -20.772 -21.181 -15.845  1.00  0.00    -0.064 NA
ATOM     15  H12 UNL     1     -20.202 -19.340 -17.419  1.00  0.00     0.158 HD
ATOM     16  H11 UNL     1     -21.797 -19.257 -18.219  1.00  0.00     0.158 HD
HETATM   17  O1  UNL     1     -22.672 -22.610 -15.275  1.00  0.00    -0.270 OA
ENDBRANCH   8   9
BRANCH   8  18
HETATM   18  O2  UNL     1     -24.817 -23.632 -17.240  1.00  0.00    -0.383 OA
ATOM     19  H2  UNL     1     -23.901 -23.808 -17.423  1.00  0.00     0.210 HD
ENDBRANCH   8  18
ENDBRANCH   7   8
BRANCH   7  20
HETATM   20  O3  UNL     1     -25.703 -21.338 -18.138  1.00  0.00    -0.388 OA
ATOM     21  H3  UNL     1     -26.300 -21.870 -18.650  1.00  0.00     0.210 HD
ENDBRANCH   7  20
ENDBRANCH   1   7
BRANCH   5  22
HETATM   22  N6  UNL     1     -29.229 -23.893 -14.080  1.00  0.00    -0.238 N
HETATM   23  C7  UNL     1     -28.961 -24.265 -12.827  1.00  0.00     0.109 A
HETATM   24  C8  UNL     1     -29.641 -25.253 -12.150  1.00  0.00     0.068 A
HETATM   25  C9  UNL     1     -30.668 -25.878 -12.855  1.00  0.00     0.124 A
HETATM   26  N9  UNL     1     -30.940 -25.504 -14.115  1.00  0.00    -0.293 N
HETATM   27  C10 UNL     1     -30.225 -24.518 -14.725  1.00  0.00     0.335 A
ATOM     28  H9  UNL     1     -31.693 -25.966 -14.625  1.00  0.00     0.172 HD
HETATM   29  O4  UNL     1     -30.541 -24.226 -15.906  1.00  0.00    -0.246 OA
BRANCH  25  30
HETATM   30  N7  UNL     1     -31.310 -26.800 -12.233  1.00  0.00    -0.292 N
ATOM     31  H7  UNL     1     -31.551 -27.654 -12.737  1.00  0.00     0.188 HD
BRANCH  30  32
HETATM   32  N8  UNL     1     -31.692 -26.681 -10.890  1.00  0.00    -0.344 N
ATOM     33  H82 UNL     1     -32.676 -26.818 -10.664  1.00  0.00     0.176 HD
ATOM     34  H81 UNL     1     -31.028 -26.466 -10.147  1.00  0.00     0.176 HD
ENDBRANCH  30  32
ENDBRANCH  25  30
ENDBRANCH   5  22
TORSDOF 8
ENDMDL