MODEL 4
REMARK VINA RESULT: -7.829513743      2.124      3.022
REMARK  18 active torsions:
REMARK  status: ('A' for Active; 'I' for Inactive)
REMARK    1  A    between atoms: N1_1  and  C1_5
REMARK    2  A    between atoms: C1_5  and  C2_6
REMARK    3  A    between atoms: C2_6  and  C3_7
REMARK    4  A    between atoms: C3_7  and  N2_8
REMARK    5  A    between atoms: N2_8  and  C4_11
REMARK    6  A    between atoms: C4_11  and  C5_12
REMARK    7  A    between atoms: C5_12  and  C6_13
REMARK    8  A    between atoms: C6_13  and  C7_14
REMARK    9  A    between atoms: C7_14  and  C8_15
REMARK   10  A    between atoms: C8_15  and  C9_16
REMARK   11  A    between atoms: C9_16  and  C10_17
REMARK   12  A    between atoms: C10_17  and  C11_18
REMARK   13  A    between atoms: C11_18  and  C12_19
REMARK   14  A    between atoms: C12_19  and  C13_20
REMARK   15  A    between atoms: C13_20  and  C14_21
REMARK   16  A    between atoms: C14_21  and  C15_22
REMARK   17  A    between atoms: C15_22  and  C16_23
REMARK   18  A    between atoms: C16_23  and  C17_24
ROOT
HETATM    1  C8  UNL     1      -6.182   0.789  18.906  1.00  0.00     0.000 C
ENDROOT
BRANCH   1   2
HETATM    2  C7  UNL     1      -5.417   0.429  20.136  1.00  0.00     0.000 C
BRANCH   2   3
HETATM    3  C6  UNL     1      -5.109  -1.038  20.200  1.00  0.00     0.002 C
BRANCH   3   4
HETATM    4  C5  UNL     1      -3.736  -1.285  20.724  1.00  0.00     0.027 C
BRANCH   4   5
HETATM    5  C4  UNL     1      -3.586  -2.671  21.253  1.00  0.00     0.232 C
BRANCH   5   6
HETATM    6  N2  UNL     1      -4.864  -3.286  21.463  1.00  0.00    -0.075 N
ATOM      7  H22 UNL     1      -5.073  -3.970  20.735  1.00  0.00     0.277 HD
ATOM      8  H21 UNL     1      -5.626  -2.632  21.288  1.00  0.00     0.277 HD
BRANCH   6   9
HETATM    9  C3  UNL     1      -4.960  -3.861  22.759  1.00  0.00     0.233 C
BRANCH   9  10
HETATM   10  C2  UNL     1      -5.087  -2.817  23.856  1.00  0.00     0.055 C
BRANCH  10  11
HETATM   11  C1  UNL     1      -6.397  -2.092  23.631  1.00  0.00     0.231 C
BRANCH  11  12
HETATM   12  N1  UNL     1      -6.630  -1.070  24.612  1.00  0.00    -0.079 N
ATOM     13  H13 UNL     1      -6.513  -0.140  24.210  1.00  0.00     0.274 HD
ATOM     14  H12 UNL     1      -7.617  -1.018  24.861  1.00  0.00     0.274 HD
ATOM     15  H11 UNL     1      -6.048  -1.189  25.442  1.00  0.00     0.274 HD
ENDBRANCH  11  12
ENDBRANCH  10  11
ENDBRANCH   9  10
ENDBRANCH   6   9
ENDBRANCH   5   6
ENDBRANCH   4   5
ENDBRANCH   3   4
ENDBRANCH   2   3
ENDBRANCH   1   2
BRANCH   1  16
HETATM   16  C9  UNL     1      -7.544   1.318  19.271  1.00  0.00     0.000 C
BRANCH  16  17
HETATM   17  C10 UNL     1      -8.381   1.534  18.066  1.00  0.00     0.000 C
BRANCH  17  18
HETATM   18  C11 UNL     1      -7.673   1.142  16.771  1.00  0.00     0.000 C
BRANCH  18  19
HETATM   19  C12 UNL     1      -8.644   1.216  15.639  1.00  0.00     0.000 C
BRANCH  19  20
HETATM   20  C13 UNL     1      -9.547   2.434  15.735  1.00  0.00     0.000 C
BRANCH  20  21
HETATM   21  C14 UNL     1      -9.344   3.248  14.460  1.00  0.00     0.000 C
BRANCH  21  22
HETATM   22  C15 UNL     1     -10.458   2.994  13.475  1.00  0.00     0.005 C
BRANCH  22  23
HETATM   23  C16 UNL     1      -9.986   2.320  12.228  1.00  0.00     0.038 C
BRANCH  23  24
HETATM   24  C17 UNL     1     -10.096   0.840  12.282  1.00  0.00    -0.058 A
HETATM   25  C18 UNL     1      -9.326   0.026  11.485  1.00  0.00     0.007 A
HETATM   26  C19 UNL     1      -9.459  -1.331  11.570  1.00  0.00     0.001 A
HETATM   27  C20 UNL     1     -10.360  -1.905  12.449  1.00  0.00     0.000 A
HETATM   28  C21 UNL     1     -11.131  -1.085  13.248  1.00  0.00     0.001 A
HETATM   29  C22 UNL     1     -10.990   0.284  13.155  1.00  0.00     0.007 A
ENDBRANCH  23  24
ENDBRANCH  22  23
ENDBRANCH  21  22
ENDBRANCH  20  21
ENDBRANCH  19  20
ENDBRANCH  18  19
ENDBRANCH  17  18
ENDBRANCH  16  17
ENDBRANCH   1  16
TORSDOF 18
ENDMDL