MODEL 4
REMARK VINA RESULT: -7.419952672      4.465     10.144
REMARK  16 active torsions:
REMARK  status: ('A' for Active; 'I' for Inactive)
REMARK    1  A    between atoms: C1_2  and  C2_3
REMARK    2  A    between atoms: C2_3  and  C3_4
REMARK    3  A    between atoms: C3_4  and  C4_5
REMARK    4  A    between atoms: C4_5  and  C5_6
REMARK    5  A    between atoms: C5_6  and  C6_7
REMARK    6  A    between atoms: C6_7  and  C7_8
REMARK    7  A    between atoms: C7_8  and  C8_9
REMARK    8  A    between atoms: C8_9  and  C9_10
REMARK    9  A    between atoms: C9_10  and  C10_11
REMARK   10  A    between atoms: C10_11  and  C11_12
REMARK   11  A    between atoms: C11_12  and  C12_13
REMARK   12  A    between atoms: C12_13  and  N1_14
REMARK   13  A    between atoms: N1_14  and  C13_17
REMARK   14  A    between atoms: C13_17  and  C14_18
REMARK   15  A    between atoms: C14_18  and  C15_19
REMARK   16  A    between atoms: C15_19  and  C16_20
ROOT
HETATM    1  C12 UNL     1      -9.466   1.773  17.837  1.00  0.00     0.232 C
ENDROOT
BRANCH   1   2
HETATM    2  C11 UNL     1      -8.031   1.391  17.693  1.00  0.00     0.027 C
BRANCH   2   3
HETATM    3  C10 UNL     1      -7.330   1.283  19.041  1.00  0.00     0.002 C
BRANCH   3   4
HETATM    4  C9  UNL     1      -6.050   0.529  18.952  1.00  0.00     0.000 C
BRANCH   4   5
HETATM    5  C8  UNL     1      -5.434   0.464  20.356  1.00  0.00     0.000 C
BRANCH   5   6
HETATM    6  C7  UNL     1      -4.696  -0.812  20.553  1.00  0.00     0.000 C
BRANCH   6   7
HETATM    7  C6  UNL     1      -3.236  -0.500  20.952  1.00  0.00     0.000 C
BRANCH   7   8
HETATM    8  C5  UNL     1      -3.036   0.910  21.363  1.00  0.00     0.000 C
BRANCH   8   9
HETATM    9  C4  UNL     1      -1.694   1.490  21.291  1.00  0.00     0.000 C
BRANCH   9  10
HETATM   10  C3  UNL     1      -0.458   0.719  21.350  1.00  0.00     0.001 C
BRANCH  10  11
HETATM   11  C2  UNL     1       0.638   1.099  22.259  1.00  0.00     0.011 C
BRANCH  11  12
HETATM   12  C1  UNL     1       1.025  -0.178  23.043  1.00  0.00     0.086 C
HETATM   13  S1  UNL     1      -0.339  -0.731  24.084  1.00  0.00    -0.098 SA
ENDBRANCH  11  12
ENDBRANCH  10  11
ENDBRANCH   9  10
ENDBRANCH   8   9
ENDBRANCH   7   8
ENDBRANCH   6   7
ENDBRANCH   5   6
ENDBRANCH   4   5
ENDBRANCH   3   4
ENDBRANCH   2   3
ENDBRANCH   1   2
BRANCH   1  14
HETATM   14  N1  UNL     1     -10.084   1.947  16.548  1.00  0.00    -0.075 N
ATOM     15  H12 UNL     1     -10.677   1.155  16.297  1.00  0.00     0.277 HD
ATOM     16  H11 UNL     1     -10.802   2.671  16.562  1.00  0.00     0.277 HD
BRANCH  14  17
HETATM   17  C13 UNL     1      -9.086   2.201  15.563  1.00  0.00     0.232 C
BRANCH  17  18
HETATM   18  C14 UNL     1      -9.683   2.832  14.298  1.00  0.00     0.032 C
BRANCH  18  19
HETATM   19  C15 UNL     1     -10.865   1.965  13.932  1.00  0.00     0.041 C
BRANCH  19  20
HETATM   20  C16 UNL     1     -10.522   0.797  13.123  1.00  0.00    -0.043 A
HETATM   21  C17 UNL     1      -9.683   0.876  12.037  1.00  0.00     0.010 A
HETATM   22  C18 UNL     1      -9.367  -0.250  11.277  1.00  0.00     0.018 A
HETATM   23  C19 UNL     1      -9.921  -1.473  11.639  1.00  0.00     0.087 A
HETATM   24  N2  UNL     1     -10.740  -1.544  12.702  1.00  0.00    -0.375 N
HETATM   25  C20 UNL     1     -11.040  -0.436  13.436  1.00  0.00     0.094 A
ATOM     26  H2  UNL     1     -11.144  -2.443  12.964  1.00  0.00     0.164 HD
ENDBRANCH  19  20
ENDBRANCH  18  19
ENDBRANCH  17  18
ENDBRANCH  14  17
ENDBRANCH   1  14
TORSDOF 16
ENDMDL