MODEL 5
REMARK VINA RESULT: -7.685194375      1.384      2.336
REMARK  17 active torsions:
REMARK  status: ('A' for Active; 'I' for Inactive)
REMARK    1  A    between atoms: N1_1  and  C1_5
REMARK    2  A    between atoms: C1_5  and  C2_6
REMARK    3  A    between atoms: C2_6  and  C3_7
REMARK    4  A    between atoms: C3_7  and  C4_8
REMARK    5  A    between atoms: C4_8  and  C5_9
REMARK    6  A    between atoms: C5_9  and  C6_10
REMARK    7  A    between atoms: C6_10  and  C7_11
REMARK    8  A    between atoms: C7_11  and  C8_12
REMARK    9  A    between atoms: C8_12  and  C9_13
REMARK   10  A    between atoms: C9_13  and  C10_14
REMARK   11  A    between atoms: C10_14  and  C11_15
REMARK   12  A    between atoms: C12_16  and  C13_17
REMARK   13  A    between atoms: C13_17  and  C14_18
REMARK   14  A    between atoms: C14_18  and  C15_19
REMARK   15  A    between atoms: C15_19  and  C16_20
REMARK   16  A    between atoms: C16_20  and  N2_21
REMARK   17  A    between atoms: N2_21  and  C17_23
ROOT
HETATM    1  C11 UNL     1      -8.084   1.181  17.369  1.00  0.00    -0.031 C
HETATM    2  C12 UNL     1      -6.834   1.238  18.091  1.00  0.00    -0.031 C
ENDROOT
BRANCH   1   3
HETATM    3  C10 UNL     1      -9.286   1.932  17.714  1.00  0.00     0.027 C
BRANCH   3   4
HETATM    4  C9  UNL     1     -10.404   1.929  16.746  1.00  0.00     0.004 C
BRANCH   4   5
HETATM    5  C8  UNL     1      -9.938   1.674  15.342  1.00  0.00     0.000 C
BRANCH   5   6
HETATM    6  C7  UNL     1      -9.491   2.927  14.648  1.00  0.00     0.000 C
BRANCH   6   7
HETATM    7  C6  UNL     1     -10.238   3.060  13.318  1.00  0.00     0.000 C
BRANCH   7   8
HETATM    8  C5  UNL     1     -10.589   1.709  12.824  1.00  0.00     0.000 C
BRANCH   8   9
HETATM    9  C4  UNL     1      -9.541   1.161  11.829  1.00  0.00     0.000 C
BRANCH   9  10
HETATM   10  C3  UNL     1      -9.867  -0.249  11.469  1.00  0.00     0.002 C
BRANCH  10  11
HETATM   11  C2  UNL     1      -9.457  -1.251  12.499  1.00  0.00     0.027 C
BRANCH  11  12
HETATM   12  C1  UNL     1      -9.738  -2.681  12.215  1.00  0.00     0.229 C
BRANCH  12  13
HETATM   13  N1  UNL     1      -9.013  -3.654  12.952  1.00  0.00    -0.079 N
ATOM     14  H13 UNL     1      -8.681  -4.379  12.315  1.00  0.00     0.274 HD
ATOM     15  H12 UNL     1      -8.129  -3.250  13.262  1.00  0.00     0.274 HD
ATOM     16  H11 UNL     1      -9.480  -4.092  13.746  1.00  0.00     0.274 HD
ENDBRANCH  12  13
ENDBRANCH  11  12
ENDBRANCH  10  11
ENDBRANCH   9  10
ENDBRANCH   8   9
ENDBRANCH   7   8
ENDBRANCH   6   7
ENDBRANCH   5   6
ENDBRANCH   4   5
ENDBRANCH   3   4
ENDBRANCH   1   3
BRANCH   2  17
HETATM   17  C13 UNL     1      -6.697   0.818  19.508  1.00  0.00     0.027 C
BRANCH  17  18
HETATM   18  C14 UNL     1      -5.329   0.454  19.928  1.00  0.00     0.005 C
BRANCH  18  19
HETATM   19  C15 UNL     1      -5.276  -0.585  21.029  1.00  0.00     0.020 C
BRANCH  19  20
HETATM   20  C16 UNL     1      -5.166   0.118  22.351  1.00  0.00     0.121 C
BRANCH  20  21
HETATM   21  N2  UNL     1      -4.242   1.207  22.340  1.00  0.00    -0.376 N
ATOM     22  H2  UNL     1      -4.595   2.164  22.344  1.00  0.00     0.161 HD
BRANCH  21  23
HETATM   23  C17 UNL     1      -2.980   1.001  22.326  1.00  0.00     0.100 A
HETATM   24  C18 UNL     1      -2.194   1.519  21.339  1.00  0.00     0.048 A
HETATM   25  C19 UNL     1      -0.827   1.250  21.394  1.00  0.00     0.005 A
HETATM   26  C20 UNL     1      -0.299   0.489  22.411  1.00  0.00     0.017 A
HETATM   27  C21 UNL     1      -1.164   0.005  23.367  1.00  0.00     0.089 A
HETATM   28  N3  UNL     1      -2.481   0.250  23.335  1.00  0.00    -0.353 N
ATOM     29  H3  UNL     1      -3.097  -0.122  24.058  1.00  0.00     0.166 HD
ENDBRANCH  21  23
ENDBRANCH  20  21
ENDBRANCH  19  20
ENDBRANCH  18  19
ENDBRANCH  17  18
ENDBRANCH   2  17
TORSDOF 17
ENDMDL