MODEL 3
REMARK VINA RESULT: -7.688316303      2.150      2.984
REMARK  17 active torsions:
REMARK  status: ('A' for Active; 'I' for Inactive)
REMARK    1  A    between atoms: C2_3  and  C3_4
REMARK    2  A    between atoms: C3_4  and  C4_5
REMARK    3  A    between atoms: C4_5  and  C5_6
REMARK    4  A    between atoms: C5_6  and  C6_7
REMARK    5  A    between atoms: C6_7  and  C7_8
REMARK    6  A    between atoms: C7_8  and  C8_9
REMARK    7  A    between atoms: C8_9  and  C9_10
REMARK    8  A    between atoms: C9_10  and  C10_11
REMARK    9  A    between atoms: C10_11  and  C11_12
REMARK   10  A    between atoms: C11_12  and  C12_13
REMARK   11  A    between atoms: C12_13  and  C13_14
REMARK   12  A    between atoms: C13_14  and  C14_15
REMARK   13  A    between atoms: C14_15  and  C15_16
REMARK   14  A    between atoms: C15_16  and  C16_17
REMARK   15  A    between atoms: C16_17  and  C17_18
REMARK   16  A    between atoms: C17_18  and  N2_19
REMARK   17  A    between atoms: N2_19  and  C18_21
ROOT
HETATM    1  N1  UNL     1      -9.079  -3.365  12.616  1.00  0.00    -0.197 NA
HETATM    2  C1  UNL     1      -9.548  -2.295  12.618  1.00  0.00     0.059 C
HETATM    3  C2  UNL     1     -10.144  -0.965  12.636  1.00  0.00     0.124 C
ENDROOT
BRANCH   3   4
HETATM    4  C3  UNL     1      -9.511  -0.202  11.421  1.00  0.00     0.014 C
BRANCH   4   5
HETATM    5  C4  UNL     1      -9.565   1.228  11.765  1.00  0.00     0.001 C
BRANCH   5   6
HETATM    6  C5  UNL     1     -10.581   1.802  12.631  1.00  0.00     0.000 C
BRANCH   6   7
HETATM    7  C6  UNL     1     -10.282   3.054  13.339  1.00  0.00     0.000 C
BRANCH   7   8
HETATM    8  C7  UNL     1      -9.512   3.029  14.589  1.00  0.00     0.000 C
BRANCH   8   9
HETATM    9  C8  UNL     1      -9.875   1.777  15.400  1.00  0.00     0.000 C
BRANCH   9  10
HETATM   10  C9  UNL     1     -10.251   2.170  16.776  1.00  0.00     0.000 C
BRANCH  10  11
HETATM   11  C10 UNL     1      -9.123   1.866  17.750  1.00  0.00     0.000 C
BRANCH  11  12
HETATM   12  C11 UNL     1      -7.973   1.168  17.155  1.00  0.00     0.000 C
BRANCH  12  13
HETATM   13  C12 UNL     1      -6.813   0.820  17.972  1.00  0.00     0.000 C
BRANCH  13  14
HETATM   14  C13 UNL     1      -6.766   1.108  19.404  1.00  0.00     0.000 C
BRANCH  14  15
HETATM   15  C14 UNL     1      -5.735   0.469  20.250  1.00  0.00     0.000 C
BRANCH  15  16
HETATM   16  C15 UNL     1      -5.318  -0.912  19.818  1.00  0.00     0.002 C
BRANCH  16  17
HETATM   17  C16 UNL     1      -4.946  -1.733  21.011  1.00  0.00     0.020 C
BRANCH  17  18
HETATM   18  C17 UNL     1      -3.441  -2.021  20.907  1.00  0.00     0.138 C
BRANCH  18  19
HETATM   19  N2  UNL     1      -2.768  -1.361  21.979  1.00  0.00    -0.226 N
ATOM     20  H2  UNL     1      -2.412  -1.937  22.743  1.00  0.00     0.177 HD
BRANCH  19  21
HETATM   21  C18 UNL     1      -2.579  -0.096  22.047  1.00  0.00     0.677 A
HETATM   22  N3  UNL     1      -3.056   0.709  23.004  1.00  0.00    -0.201 N
HETATM   23  C19 UNL     1      -2.644   1.981  22.731  1.00  0.00     0.123 A
ATOM     24  H3  UNL     1      -3.629   0.423  23.798  1.00  0.00     0.183 HD
HETATM   25  C20 UNL     1      -1.900   1.899  21.572  1.00  0.00     0.123 A
HETATM   26  N4  UNL     1      -1.871   0.617  21.166  1.00  0.00    -0.201 N
ATOM     27  H4  UNL     1      -1.395   0.256  20.339  1.00  0.00     0.183 HD
ENDBRANCH  19  21
ENDBRANCH  18  19
ENDBRANCH  17  18
ENDBRANCH  16  17
ENDBRANCH  15  16
ENDBRANCH  14  15
ENDBRANCH  13  14
ENDBRANCH  12  13
ENDBRANCH  11  12
ENDBRANCH  10  11
ENDBRANCH   9  10
ENDBRANCH   8   9
ENDBRANCH   7   8
ENDBRANCH   6   7
ENDBRANCH   5   6
ENDBRANCH   4   5
ENDBRANCH   3   4
TORSDOF 17
ENDMDL