MODEL 3
REMARK VINA RESULT: -7.623228901      2.531      3.477
REMARK  16 active torsions:
REMARK  status: ('A' for Active; 'I' for Inactive)
REMARK    1  A    between atoms: C3_3  and  C4_4
REMARK    2  A    between atoms: C4_4  and  C5_5
REMARK    3  A    between atoms: C5_5  and  C6_6
REMARK    4  A    between atoms: C6_6  and  C7_7
REMARK    5  A    between atoms: C7_7  and  C8_8
REMARK    6  A    between atoms: C8_8  and  C9_9
REMARK    7  A    between atoms: C9_9  and  C10_10
REMARK    8  A    between atoms: C10_10  and  C11_11
REMARK    9  A    between atoms: C11_11  and  C12_12
REMARK   10  A    between atoms: C12_12  and  C13_13
REMARK   11  A    between atoms: C13_13  and  C14_14
REMARK   12  A    between atoms: C14_14  and  C15_15
REMARK   13  A    between atoms: C15_15  and  C16_16
REMARK   14  A    between atoms: C16_16  and  C17_17
REMARK   15  A    between atoms: C17_17  and  C18_18
REMARK   16  A    between atoms: C18_18  and  C19_19
ROOT
HETATM    1  C1  UNL     1      -8.629  -3.333  12.978  1.00  0.00     0.012 C
HETATM    2  C2  UNL     1      -9.484  -2.574  12.597  1.00  0.00    -0.117 C
HETATM    3  C3  UNL     1     -10.523  -1.619  12.130  1.00  0.00     0.093 C
ENDROOT
BRANCH   3   4
HETATM    4  C4  UNL     1      -9.775  -0.493  11.460  1.00  0.00     0.012 C
BRANCH   4   5
HETATM    5  C5  UNL     1      -9.894   0.810  12.213  1.00  0.00     0.001 C
BRANCH   5   6
HETATM    6  C6  UNL     1     -10.865   0.643  13.332  1.00  0.00     0.000 C
BRANCH   6   7
HETATM    7  C7  UNL     1     -11.023   1.881  14.196  1.00  0.00     0.000 C
BRANCH   7   8
HETATM    8  C8  UNL     1     -10.678   1.590  15.616  1.00  0.00     0.000 C
BRANCH   8   9
HETATM    9  C9  UNL     1      -9.342   2.165  16.022  1.00  0.00     0.000 C
BRANCH   9  10
HETATM   10  C10 UNL     1      -8.275   1.120  15.874  1.00  0.00     0.000 C
BRANCH  10  11
HETATM   11  C11 UNL     1      -7.356   1.151  17.088  1.00  0.00     0.000 C
BRANCH  11  12
HETATM   12  C12 UNL     1      -8.069   1.390  18.373  1.00  0.00     0.000 C
BRANCH  12  13
HETATM   13  C13 UNL     1      -7.119   1.175  19.546  1.00  0.00     0.000 C
BRANCH  13  14
HETATM   14  C14 UNL     1      -5.885   0.456  19.118  1.00  0.00     0.000 C
BRANCH  14  15
HETATM   15  C15 UNL     1      -5.307  -0.408  20.224  1.00  0.00     0.000 C
BRANCH  15  16
HETATM   16  C16 UNL     1      -4.578   0.451  21.218  1.00  0.00     0.000 C
BRANCH  16  17
HETATM   17  C17 UNL     1      -3.095   0.239  21.120  1.00  0.00     0.006 C
BRANCH  17  18
HETATM   18  C18 UNL     1      -2.334   1.522  21.351  1.00  0.00     0.061 C
BRANCH  18  19
HETATM   19  C19 UNL     1      -2.230   1.722  22.849  1.00  0.00     0.051 A
HETATM   20  N1  UNL     1      -3.060   2.406  23.646  1.00  0.00    -0.353 N
HETATM   21  C20 UNL     1      -2.582   2.320  24.904  1.00  0.00     0.182 A
ATOM     22  H1  UNL     1      -3.902   2.903  23.354  1.00  0.00     0.166 HD
HETATM   23  N2  UNL     1      -1.463   1.598  24.943  1.00  0.00    -0.339 N
HETATM   24  C21 UNL     1      -1.225   1.216  23.673  1.00  0.00     0.140 A
ATOM     25  H2  UNL     1      -0.901   1.379  25.766  1.00  0.00     0.167 HD
HETATM   26  N3  UNL     1      -0.126   0.418  23.229  1.00  0.00    -0.081 NA
ENDBRANCH  18  19
ENDBRANCH  17  18
ENDBRANCH  16  17
ENDBRANCH  15  16
ENDBRANCH  14  15
ENDBRANCH  13  14
ENDBRANCH  12  13
ENDBRANCH  11  12
ENDBRANCH  10  11
ENDBRANCH   9  10
ENDBRANCH   8   9
ENDBRANCH   7   8
ENDBRANCH   6   7
ENDBRANCH   5   6
ENDBRANCH   4   5
ENDBRANCH   3   4
TORSDOF 16
ENDMDL