MODEL 3
REMARK VINA RESULT: -7.370216552      2.506      2.798
REMARK  18 active torsions:
REMARK  status: ('A' for Active; 'I' for Inactive)
REMARK    1  A    between atoms: N1_1  and  C1_5
REMARK    2  A    between atoms: C1_5  and  C2_6
REMARK    3  A    between atoms: C2_6  and  C3_7
REMARK    4  A    between atoms: C3_7  and  C4_8
REMARK    5  A    between atoms: C4_8  and  C5_9
REMARK    6  A    between atoms: C5_9  and  C6_10
REMARK    7  A    between atoms: C6_10  and  C7_11
REMARK    8  A    between atoms: C7_11  and  C8_12
REMARK    9  A    between atoms: C8_12  and  C9_13
REMARK   10  A    between atoms: C9_13  and  C10_14
REMARK   11  A    between atoms: C10_14  and  C11_15
REMARK   12  A    between atoms: C11_15  and  C12_16
REMARK   13  A    between atoms: C12_16  and  C13_17
REMARK   14  A    between atoms: C13_17  and  C14_18
REMARK   15  A    between atoms: C14_18  and  C15_19
REMARK   16  A    between atoms: C15_19  and  C16_20
REMARK   17  A    between atoms: C16_20  and  N2_21
REMARK   18  A    between atoms: N2_21  and  C17_23
ROOT
HETATM    1  C10 UNL     1      -8.583   0.862  15.598  1.00  0.00     0.000 C
ENDROOT
BRANCH   1   2
HETATM    2  C9  UNL     1      -9.795   1.737  15.434  1.00  0.00     0.000 C
BRANCH   2   3
HETATM    3  C8  UNL     1      -9.345   3.134  15.081  1.00  0.00     0.000 C
BRANCH   3   4
HETATM    4  C7  UNL     1      -9.675   3.484  13.670  1.00  0.00     0.000 C
BRANCH   4   5
HETATM    5  C6  UNL     1     -10.802   2.635  13.119  1.00  0.00     0.000 C
BRANCH   5   6
HETATM    6  C5  UNL     1     -10.532   2.115  11.738  1.00  0.00     0.000 C
BRANCH   6   7
HETATM    7  C4  UNL     1      -9.426   1.083  11.798  1.00  0.00     0.000 C
BRANCH   7   8
HETATM    8  C3  UNL     1      -9.922  -0.301  11.495  1.00  0.00     0.002 C
BRANCH   8   9
HETATM    9  C2  UNL     1      -9.424  -1.325  12.484  1.00  0.00     0.027 C
BRANCH   9  10
HETATM   10  C1  UNL     1      -9.666  -2.739  12.014  1.00  0.00     0.229 C
BRANCH  10  11
HETATM   11  N1  UNL     1      -9.064  -3.636  12.985  1.00  0.00    -0.079 N
ATOM     12  H13 UNL     1      -8.958  -3.209  13.906  1.00  0.00     0.274 HD
ATOM     13  H12 UNL     1      -9.684  -4.397  13.259  1.00  0.00     0.274 HD
ATOM     14  H11 UNL     1      -8.180  -3.965  12.597  1.00  0.00     0.274 HD
ENDBRANCH  10  11
ENDBRANCH   9  10
ENDBRANCH   8   9
ENDBRANCH   7   8
ENDBRANCH   6   7
ENDBRANCH   5   6
ENDBRANCH   4   5
ENDBRANCH   3   4
ENDBRANCH   2   3
ENDBRANCH   1   2
BRANCH   1  15
HETATM   15  C11 UNL     1      -7.729   1.165  16.765  1.00  0.00     0.000 C
BRANCH  15  16
HETATM   16  C12 UNL     1      -8.247   1.457  18.083  1.00  0.00     0.000 C
BRANCH  16  17
HETATM   17  C13 UNL     1      -7.401   1.303  19.290  1.00  0.00     0.000 C
BRANCH  17  18
HETATM   18  C14 UNL     1      -6.080   0.697  19.058  1.00  0.00     0.002 C
BRANCH  18  19
HETATM   19  C15 UNL     1      -5.241   0.397  20.263  1.00  0.00     0.020 C
BRANCH  19  20
HETATM   20  C16 UNL     1      -6.016   0.052  21.476  1.00  0.00     0.121 C
BRANCH  20  21
HETATM   21  N2  UNL     1      -5.503   0.681  22.650  1.00  0.00    -0.370 N
ATOM     22  H2  UNL     1      -6.144   1.107  23.321  1.00  0.00     0.161 HD
BRANCH  21  23
HETATM   23  C17 UNL     1      -4.206   0.714  22.870  1.00  0.00     0.144 A
HETATM   24  N3  UNL     1      -3.444   1.762  23.176  1.00  0.00    -0.346 N
HETATM   25  C18 UNL     1      -2.168   1.581  23.357  1.00  0.00     0.097 A
ATOM     26  H3  UNL     1      -3.854   2.692  23.266  1.00  0.00     0.167 HD
HETATM   27  C19 UNL     1      -1.675   0.310  23.221  1.00  0.00     0.070 A
HETATM   28  S1  UNL     1      -3.081  -0.575  22.838  1.00  0.00    -0.065 SA
ENDBRANCH  21  23
ENDBRANCH  20  21
ENDBRANCH  19  20
ENDBRANCH  18  19
ENDBRANCH  17  18
ENDBRANCH  16  17
ENDBRANCH  15  16
ENDBRANCH   1  15
TORSDOF 18
ENDMDL