MODEL 1
REMARK VINA RESULT: -7.976649520      0.000      0.000
REMARK  18 active torsions:
REMARK  status: ('A' for Active; 'I' for Inactive)
REMARK    1  A    between atoms: N1_1  and  C1_5
REMARK    2  A    between atoms: C1_5  and  C2_6
REMARK    3  A    between atoms: C2_6  and  C3_7
REMARK    4  A    between atoms: C3_7  and  C4_8
REMARK    5  A    between atoms: C4_8  and  C5_9
REMARK    6  A    between atoms: C5_9  and  C6_10
REMARK    7  A    between atoms: C6_10  and  C7_11
REMARK    8  A    between atoms: C7_11  and  C8_12
REMARK    9  A    between atoms: C8_12  and  C9_13
REMARK   10  A    between atoms: C9_13  and  C10_14
REMARK   11  A    between atoms: C10_14  and  C11_15
REMARK   12  A    between atoms: C11_15  and  C12_16
REMARK   13  A    between atoms: C12_16  and  C13_17
REMARK   14  A    between atoms: C13_17  and  C14_18
REMARK   15  A    between atoms: C14_18  and  C15_19
REMARK   16  A    between atoms: C15_19  and  C16_20
REMARK   17  A    between atoms: C16_20  and  N2_21
REMARK   18  A    between atoms: N2_21  and  C17_23
ROOT
HETATM    1  C11 UNL     1      -7.673   1.520  19.173  1.00  0.00     0.000 C
ENDROOT
BRANCH   1   2
HETATM    2  C10 UNL     1      -8.589   1.513  17.986  1.00  0.00     0.000 C
BRANCH   2   3
HETATM    3  C9  UNL     1      -7.895   1.169  16.697  1.00  0.00     0.004 C
BRANCH   3   4
HETATM    4  C8  UNL     1      -8.792   1.295  15.495  1.00  0.00     0.027 C
BRANCH   4   5
HETATM    5  C7  UNL     1      -9.518   2.559  15.352  1.00  0.00    -0.031 C
BRANCH   5   6
HETATM    6  C6  UNL     1      -9.569   3.313  14.101  1.00  0.00    -0.031 C
BRANCH   6   7
HETATM    7  C5  UNL     1     -10.420   2.910  12.966  1.00  0.00     0.027 C
BRANCH   7   8
HETATM    8  C4  UNL     1      -9.879   1.965  11.979  1.00  0.00     0.004 C
BRANCH   8   9
HETATM    9  C3  UNL     1     -10.356   0.530  12.230  1.00  0.00     0.002 C
BRANCH   9  10
HETATM   10  C2  UNL     1      -9.399  -0.491  11.709  1.00  0.00     0.027 C
BRANCH  10  11
HETATM   11  C1  UNL     1      -9.858  -1.842  12.260  1.00  0.00     0.229 C
BRANCH  11  12
HETATM   12  N1  UNL     1     -11.173  -1.739  12.853  1.00  0.00    -0.079 N
ATOM     13  H13 UNL     1     -11.146  -1.241  13.743  1.00  0.00     0.274 HD
ATOM     14  H12 UNL     1     -11.771  -1.098  12.333  1.00  0.00     0.274 HD
ATOM     15  H11 UNL     1     -11.603  -2.659  12.950  1.00  0.00     0.274 HD
ENDBRANCH  11  12
ENDBRANCH  10  11
ENDBRANCH   9  10
ENDBRANCH   8   9
ENDBRANCH   7   8
ENDBRANCH   6   7
ENDBRANCH   5   6
ENDBRANCH   4   5
ENDBRANCH   3   4
ENDBRANCH   2   3
ENDBRANCH   1   2
BRANCH   1  16
HETATM   16  C12 UNL     1      -6.398   0.780  18.735  1.00  0.00     0.000 C
BRANCH  16  17
HETATM   17  C13 UNL     1      -5.591   0.353  19.916  1.00  0.00     0.000 C
BRANCH  17  18
HETATM   18  C14 UNL     1      -5.271  -1.101  19.847  1.00  0.00     0.002 C
BRANCH  18  19
HETATM   19  C15 UNL     1      -5.314  -1.759  21.185  1.00  0.00     0.020 C
BRANCH  19  20
HETATM   20  C16 UNL     1      -5.893  -0.803  22.210  1.00  0.00     0.121 C
BRANCH  20  21
HETATM   21  N2  UNL     1      -4.948  -0.502  23.257  1.00  0.00    -0.380 N
ATOM     22  H2  UNL     1      -5.123  -0.839  24.204  1.00  0.00     0.160 HD
BRANCH  21  23
HETATM   23  C17 UNL     1      -3.777   0.257  22.989  1.00  0.00     0.072 C
HETATM   24  N3  UNL     1      -3.807   1.556  23.063  1.00  0.00    -0.380 N
HETATM   25  C18 UNL     1      -2.600   2.273  22.784  1.00  0.00     0.121 C
ATOM     26  H3  UNL     1      -4.665   2.049  23.312  1.00  0.00     0.160 HD
HETATM   27  C19 UNL     1      -1.913   1.831  21.533  1.00  0.00     0.020 C
HETATM   28  C20 UNL     1      -1.807   0.336  21.484  1.00  0.00     0.009 C
HETATM   29  C21 UNL     1      -2.484  -0.362  22.619  1.00  0.00     0.076 C
ENDBRANCH  21  23
ENDBRANCH  20  21
ENDBRANCH  19  20
ENDBRANCH  18  19
ENDBRANCH  17  18
ENDBRANCH  16  17
ENDBRANCH   1  16
TORSDOF 18
ENDMDL