MODEL 2
REMARK VINA RESULT: -7.547429881      0.979      2.005
REMARK  17 active torsions:
REMARK  status: ('A' for Active; 'I' for Inactive)
REMARK    1  A    between atoms: C3_3  and  C4_4
REMARK    2  A    between atoms: C4_4  and  C5_5
REMARK    3  A    between atoms: C5_5  and  C6_6
REMARK    4  A    between atoms: C6_6  and  C7_7
REMARK    5  A    between atoms: C7_7  and  C8_8
REMARK    6  A    between atoms: C8_8  and  C9_9
REMARK    7  A    between atoms: C9_9  and  C10_10
REMARK    8  A    between atoms: C10_10  and  C11_11
REMARK    9  A    between atoms: C11_11  and  C12_12
REMARK   10  A    between atoms: C12_12  and  C13_13
REMARK   11  A    between atoms: C13_13  and  C14_14
REMARK   12  A    between atoms: C14_14  and  C15_15
REMARK   13  A    between atoms: C15_15  and  C16_16
REMARK   14  A    between atoms: C16_16  and  C17_17
REMARK   15  A    between atoms: C17_17  and  C18_18
REMARK   16  A    between atoms: C18_18  and  N1_19
REMARK   17  A    between atoms: N1_19  and  C19_21
ROOT
HETATM    1  C1  UNL     1      -9.075  -3.316  12.558  1.00  0.00     0.012 C
HETATM    2  C2  UNL     1      -9.628  -2.245  12.604  1.00  0.00    -0.117 C
HETATM    3  C3  UNL     1     -10.301  -0.923  12.637  1.00  0.00     0.093 C
ENDROOT
BRANCH   3   4
HETATM    4  C4  UNL     1      -9.755  -0.124  11.474  1.00  0.00     0.012 C
BRANCH   4   5
HETATM    5  C5  UNL     1      -9.503   1.315  11.820  1.00  0.00     0.001 C
BRANCH   5   6
HETATM    6  C6  UNL     1     -10.771   2.137  11.826  1.00  0.00     0.000 C
BRANCH   6   7
HETATM    7  C7  UNL     1     -10.864   2.942  13.104  1.00  0.00     0.000 C
BRANCH   7   8
HETATM    8  C8  UNL     1      -9.492   3.344  13.607  1.00  0.00     0.000 C
BRANCH   8   9
HETATM    9  C9  UNL     1      -9.524   3.228  15.094  1.00  0.00     0.000 C
BRANCH   9  10
HETATM   10  C10 UNL     1     -10.147   2.006  15.637  1.00  0.00     0.000 C
BRANCH  10  11
HETATM   11  C11 UNL     1     -10.376   1.955  17.099  1.00  0.00     0.000 C
BRANCH  11  12
HETATM   12  C12 UNL     1      -9.127   1.706  17.900  1.00  0.00     0.000 C
BRANCH  12  13
HETATM   13  C13 UNL     1      -8.021   1.090  17.097  1.00  0.00     0.000 C
BRANCH  13  14
HETATM   14  C14 UNL     1      -6.690   1.133  17.801  1.00  0.00     0.000 C
BRANCH  14  15
HETATM   15  C15 UNL     1      -6.804   0.911  19.284  1.00  0.00     0.000 C
BRANCH  15  16
HETATM   16  C16 UNL     1      -5.426   0.712  19.907  1.00  0.00     0.002 C
BRANCH  16  17
HETATM   17  C17 UNL     1      -5.396  -0.462  20.828  1.00  0.00     0.020 C
BRANCH  17  18
HETATM   18  C18 UNL     1      -5.280  -0.165  22.271  1.00  0.00     0.121 C
BRANCH  18  19
HETATM   19  N1  UNL     1      -4.013  -0.269  22.892  1.00  0.00    -0.380 N
ATOM     20  H1  UNL     1      -3.931  -0.851  23.726  1.00  0.00     0.160 HD
BRANCH  19  21
HETATM   21  C19 UNL     1      -2.844   0.396  22.415  1.00  0.00     0.072 C
HETATM   22  N2  UNL     1      -1.746  -0.206  22.133  1.00  0.00    -0.380 N
HETATM   23  C20 UNL     1      -0.716   0.706  21.667  1.00  0.00     0.121 C
ATOM     24  H2  UNL     1      -1.611  -1.213  22.226  1.00  0.00     0.160 HD
HETATM   25  C21 UNL     1      -1.563   1.870  21.102  1.00  0.00     0.027 C
HETATM   26  C22 UNL     1      -2.683   1.833  22.144  1.00  0.00     0.077 C
ENDBRANCH  19  21
ENDBRANCH  18  19
ENDBRANCH  17  18
ENDBRANCH  16  17
ENDBRANCH  15  16
ENDBRANCH  14  15
ENDBRANCH  13  14
ENDBRANCH  12  13
ENDBRANCH  11  12
ENDBRANCH  10  11
ENDBRANCH   9  10
ENDBRANCH   8   9
ENDBRANCH   7   8
ENDBRANCH   6   7
ENDBRANCH   5   6
ENDBRANCH   4   5
ENDBRANCH   3   4
TORSDOF 17
ENDMDL