MODEL 2
REMARK VINA RESULT: -8.377388937      0.592      1.946
REMARK  12 active torsions:
REMARK  status: ('A' for Active; 'I' for Inactive)
REMARK    1  A    between atoms: C2_2  and  C3_3
REMARK    2  A    between atoms: C3_3  and  N1_4
REMARK    3  A    between atoms: N1_4  and  C4_5
REMARK    4  A    between atoms: N1_4  and  C6_7
REMARK    5  A    between atoms: C6_7  and  C7_11
REMARK    6  A    between atoms: C7_11  and  C8_12
REMARK    7  A    between atoms: C8_12  and  C9_13
REMARK    8  A    between atoms: C9_13  and  C10_14
REMARK    9  A    between atoms: C10_14  and  C11_15
REMARK   10  A    between atoms: C11_15  and  C12_17
REMARK   11  A    between atoms: C12_17  and  O2_19
REMARK   12  A    between atoms: O2_19  and  C14_20
ROOT
HETATM    1  C9  UNL     1      -6.759   0.676  18.435  1.00  0.00     0.008 C
ENDROOT
BRANCH   1   2
HETATM    2  C8  UNL     1      -6.314   0.975  19.853  1.00  0.00     0.008 C
BRANCH   2   3
HETATM    3  C7  UNL     1      -5.610  -0.207  20.463  1.00  0.00     0.076 C
BRANCH   3   4
HETATM    4  C6  UNL     1      -4.968   0.072  21.768  1.00  0.00     0.072 C
HETATM    5  N2  UNL     1      -5.519   0.927  22.588  1.00  0.00    -0.389 N
ATOM      6  H22 UNL     1      -5.076   1.118  23.486  1.00  0.00     0.157 HD
ATOM      7  H21 UNL     1      -6.385   1.393  22.318  1.00  0.00     0.157 HD
BRANCH   4   8
HETATM    8  N1  UNL     1      -3.749  -0.584  22.149  1.00  0.00    -0.368 N
BRANCH   8   9
HETATM    9  C3  UNL     1      -2.586   0.220  22.402  1.00  0.00     0.150 C
BRANCH   9  10
HETATM   10  C2  UNL     1      -2.033   0.923  21.250  1.00  0.00    -0.017 C
HETATM   11  C1  UNL     1      -2.246   2.203  20.966  1.00  0.00     0.008 C
ENDBRANCH   9  10
ENDBRANCH   8   9
BRANCH   8  12
HETATM   12  C4  UNL     1      -3.691  -2.006  22.314  1.00  0.00     0.120 C
HETATM   13  C5  UNL     1      -3.300  -2.805  21.122  1.00  0.00     0.026 C
ENDBRANCH   8  12
ENDBRANCH   4   8
ENDBRANCH   3   4
ENDBRANCH   2   3
ENDBRANCH   1   2
BRANCH   1  14
HETATM   14  C10 UNL     1      -8.181   1.108  18.249  1.00  0.00     0.081 C
BRANCH  14  15
HETATM   15  C11 UNL     1      -8.516   1.463  16.868  1.00  0.00     0.155 C
HETATM   16  O1  UNL     1      -7.583   1.411  16.057  1.00  0.00    -0.295 OA
BRANCH  15  17
HETATM   17  C12 UNL     1      -9.811   1.868  16.339  1.00  0.00     0.187 C
HETATM   18  C13 UNL     1     -10.849   2.179  17.400  1.00  0.00     0.048 C
BRANCH  17  19
HETATM   19  O2  UNL     1     -10.383   0.940  15.490  1.00  0.00    -0.373 OA
BRANCH  19  20
HETATM   20  C14 UNL     1     -10.942   1.427  14.332  1.00  0.00     0.122 C
HETATM   21  C15 UNL     1     -10.065   2.452  13.645  1.00  0.00     0.032 C
HETATM   22  C16 UNL     1     -10.239   2.292  12.152  1.00  0.00     0.002 C
HETATM   23  C17 UNL     1      -9.528   1.032  11.691  1.00  0.00     0.000 C
HETATM   24  C18 UNL     1      -9.719  -0.028  12.725  1.00  0.00     0.002 C
HETATM   25  C19 UNL     1     -11.079   0.259  13.385  1.00  0.00     0.032 C
ENDBRANCH  19  20
ENDBRANCH  17  19
ENDBRANCH  15  17
ENDBRANCH  14  15
ENDBRANCH   1  14
TORSDOF 12
ENDMDL