MODEL 1
REMARK VINA RESULT: -9.425345982      0.000      0.000
REMARK  12 active torsions:
REMARK  status: ('A' for Active; 'I' for Inactive)
REMARK    1  A    between atoms: C2_2  and  C3_3
REMARK    2  A    between atoms: C3_3  and  C4_4
REMARK    3  A    between atoms: C4_4  and  C5_5
REMARK    4  A    between atoms: C5_5  and  N1_6
REMARK    5  A    between atoms: N1_6  and  C6_9
REMARK    6  A    between atoms: C6_9  and  C7_10
REMARK    7  A    between atoms: C7_10  and  C8_11
REMARK    8  A    between atoms: C11_14  and  O1_15
REMARK    9  A    between atoms: O1_15  and  C12_16
REMARK   10  A    between atoms: C12_16  and  C13_17
REMARK   11  A    between atoms: C13_17  and  C14_18
REMARK   12  A    between atoms: C14_18  and  C15_19
ROOT
HETATM    1  C8  UNL     1     -10.195   1.446  15.435  1.00  0.00    -0.056 A
HETATM    2  C9  UNL     1      -8.893   1.009  15.351  1.00  0.00     0.010 A
HETATM    3  C10 UNL     1      -8.043   0.930  16.452  1.00  0.00     0.037 A
HETATM    4  C11 UNL     1      -8.484   1.297  17.701  1.00  0.00     0.068 A
HETATM    5  C21 UNL     1      -9.820   1.748  17.794  1.00  0.00     0.037 A
HETATM    6  C22 UNL     1     -10.625   1.812  16.693  1.00  0.00     0.010 A
ENDROOT
BRANCH   1   7
HETATM    7  C7  UNL     1     -11.091   1.526  14.252  1.00  0.00     0.066 C
BRANCH   7   8
HETATM    8  C6  UNL     1     -10.488   2.535  13.280  1.00  0.00     0.237 C
BRANCH   8   9
HETATM    9  N1  UNL     1     -10.451   2.002  11.923  1.00  0.00    -0.075 N
ATOM     10  H12 UNL     1     -10.515   2.753  11.235  1.00  0.00     0.277 HD
ATOM     11  H11 UNL     1     -11.313   1.501  11.705  1.00  0.00     0.277 HD
BRANCH   9  12
HETATM   12  C5  UNL     1      -9.324   1.191  11.677  1.00  0.00     0.236 C
BRANCH  12  13
HETATM   13  C4  UNL     1      -9.632  -0.226  11.328  1.00  0.00     0.054 C
BRANCH  13  14
HETATM   14  C3  UNL     1      -9.750  -1.199  12.425  1.00  0.00    -0.026 C
BRANCH  14  15
HETATM   15  C2  UNL     1      -9.761  -2.621  12.201  1.00  0.00    -0.014 C
HETATM   16  C1  UNL     1      -9.043  -3.584  12.721  1.00  0.00     0.011 C
ENDBRANCH  14  15
ENDBRANCH  13  14
ENDBRANCH  12  13
ENDBRANCH   9  12
ENDBRANCH   8   9
ENDBRANCH   7   8
ENDBRANCH   1   7
BRANCH   4  17
HETATM   17  O1  UNL     1      -7.730   1.251  18.850  1.00  0.00    -0.351 OA
BRANCH  17  18
HETATM   18  C12 UNL     1      -6.534   0.585  18.981  1.00  0.00     0.176 C
BRANCH  18  19
HETATM   19  C13 UNL     1      -6.048   0.561  20.384  1.00  0.00     0.031 C
BRANCH  19  20
HETATM   20  C14 UNL     1      -4.995  -0.479  20.671  1.00  0.00     0.041 C
BRANCH  20  21
HETATM   21  C15 UNL     1      -3.692   0.184  20.888  1.00  0.00    -0.058 A
HETATM   22  C16 UNL     1      -3.515   1.549  20.801  1.00  0.00     0.007 A
HETATM   23  C17 UNL     1      -2.310   2.182  20.997  1.00  0.00     0.001 A
HETATM   24  C18 UNL     1      -1.191   1.438  21.301  1.00  0.00     0.000 A
HETATM   25  C19 UNL     1      -1.333   0.070  21.395  1.00  0.00     0.001 A
HETATM   26  C20 UNL     1      -2.544  -0.556  21.197  1.00  0.00     0.007 A
ENDBRANCH  20  21
ENDBRANCH  19  20
ENDBRANCH  18  19
ENDBRANCH  17  18
ENDBRANCH   4  17
TORSDOF 12
ENDMDL