MODEL 2
REMARK VINA RESULT: -8.816202806      0.709      2.770
REMARK  12 active torsions:
REMARK  status: ('A' for Active; 'I' for Inactive)
REMARK    1  A    between atoms: C6_6  and  C7_7
REMARK    2  A    between atoms: C7_7  and  C8_8
REMARK    3  A    between atoms: C8_8  and  C9_9
REMARK    4  A    between atoms: C9_9  and  N1_10
REMARK    5  A    between atoms: N1_10  and  C10_12
REMARK    6  A    between atoms: C10_12  and  C11_13
REMARK    7  A    between atoms: C11_13  and  C12_14
REMARK    8  A    between atoms: C12_14  and  N2_15
REMARK    9  A    between atoms: N2_15  and  C13_16
REMARK   10  A    between atoms: N2_15  and  C17_20
REMARK   11  A    between atoms: C13_16  and  C14_17
REMARK   12  A    between atoms: C17_20  and  C18_21
ROOT
HETATM    1  N1  UNL     1      -8.154   1.528  18.852  1.00  0.00    -0.421 N
ATOM      2  H1  UNL     1      -8.158   2.066  19.719  1.00  0.00     0.153 HD
ENDROOT
BRANCH   1   3
HETATM    3  C9  UNL     1      -9.271   1.493  17.980  1.00  0.00     0.114 C
BRANCH   3   4
HETATM    4  C8  UNL     1      -8.925   1.424  16.510  1.00  0.00     0.024 C
BRANCH   4   5
HETATM    5  C7  UNL     1      -9.625   2.517  15.732  1.00  0.00     0.040 C
BRANCH   5   6
HETATM    6  C6  UNL     1      -9.784   2.057  14.336  1.00  0.00    -0.058 A
HETATM    7  C5  UNL     1      -9.991   2.880  13.264  1.00  0.00     0.007 A
HETATM    8  C4  UNL     1     -10.120   2.418  11.972  1.00  0.00     0.001 A
HETATM    9  C3  UNL     1     -10.039   1.062  11.740  1.00  0.00     0.007 A
HETATM   10  C2  UNL     1      -9.830   0.201  12.800  1.00  0.00    -0.061 A
HETATM   11  C1  UNL     1      -9.740  -1.260  12.558  1.00  0.00     0.048 C
HETATM   12  C21 UNL     1      -9.702   0.682  14.088  1.00  0.00     0.013 A
ENDBRANCH   5   6
ENDBRANCH   4   5
ENDBRANCH   3   4
ENDBRANCH   1   3
BRANCH   1  13
HETATM   13  C10 UNL     1      -7.024   0.762  18.439  1.00  0.00     0.115 C
BRANCH  13  14
HETATM   14  C11 UNL     1      -5.884   0.833  19.457  1.00  0.00     0.049 C
BRANCH  14  15
HETATM   15  C12 UNL     1      -5.487  -0.530  19.890  1.00  0.00     0.274 C
BRANCH  15  16
HETATM   16  N2  UNL     1      -4.299  -0.575  20.765  1.00  0.00     0.089 N
BRANCH  16  17
HETATM   17  C13 UNL     1      -4.444  -1.557  21.757  1.00  0.00     0.276 C
BRANCH  17  18
HETATM   18  C14 UNL     1      -4.633  -2.961  21.177  1.00  0.00     0.006 C
HETATM   19  C15 UNL     1      -3.432  -3.486  20.474  1.00  0.00     0.011 C
HETATM   20  C16 UNL     1      -4.969  -3.864  22.373  1.00  0.00     0.011 C
ENDBRANCH  17  18
ENDBRANCH  16  17
BRANCH  16  21
HETATM   21  C17 UNL     1      -4.025   0.730  21.173  1.00  0.00     0.276 C
BRANCH  21  22
HETATM   22  C18 UNL     1      -2.760   1.100  21.852  1.00  0.00     0.006 C
HETATM   23  C19 UNL     1      -2.166   2.238  20.948  1.00  0.00     0.011 C
HETATM   24  C20 UNL     1      -2.862   1.750  23.196  1.00  0.00     0.011 C
ENDBRANCH  21  22
ENDBRANCH  16  21
ENDBRANCH  15  16
ENDBRANCH  14  15
ENDBRANCH  13  14
ENDBRANCH   1  13
TORSDOF 12
ENDMDL