MODEL 5
REMARK VINA RESULT: -8.346466173      1.212      1.609
REMARK  12 active torsions:
REMARK  status: ('A' for Active; 'I' for Inactive)
REMARK    1  A    between atoms: C2_2  and  C3_3
REMARK    2  A    between atoms: C2_2  and  C16_20
REMARK    3  A    between atoms: C3_3  and  O1_4
REMARK    4  A    between atoms: O1_4  and  C4_5
REMARK    5  A    between atoms: C4_5  and  C5_6
REMARK    6  A    between atoms: C5_6  and  C6_7
REMARK    7  A    between atoms: C6_7  and  C7_8
REMARK    8  A    between atoms: C7_8  and  C8_9
REMARK    9  A    between atoms: C8_9  and  N1_10
REMARK   10  A    between atoms: N1_10  and  C9_13
REMARK   11  A    between atoms: C9_13  and  C10_14
REMARK   12  A    between atoms: C16_20  and  C17_21
ROOT
HETATM    1  C5  UNL     1      -6.862   0.982  19.579  1.00  0.00     0.026 C
ENDROOT
BRANCH   1   2
HETATM    2  C4  UNL     1      -6.840   0.584  18.097  1.00  0.00     0.167 C
BRANCH   2   3
HETATM    3  O1  UNL     1      -7.716   1.328  17.367  1.00  0.00    -0.391 OA
BRANCH   3   4
HETATM    4  C3  UNL     1      -8.974   1.328  17.903  1.00  0.00     0.172 C
BRANCH   4   5
HETATM    5  C2  UNL     1     -10.002   1.691  16.867  1.00  0.00     0.010 C
HETATM    6  C1  UNL     1     -11.168   2.404  17.542  1.00  0.00     0.012 C
BRANCH   5   7
HETATM    7  C16 UNL     1      -9.377   2.530  15.805  1.00  0.00     0.045 C
BRANCH   7   8
HETATM    8  C17 UNL     1      -9.651   2.015  14.436  1.00  0.00    -0.058 A
HETATM    9  C18 UNL     1      -9.647   0.659  14.190  1.00  0.00     0.007 A
HETATM   10  C19 UNL     1      -9.899   0.193  12.910  1.00  0.00     0.001 A
HETATM   11  C20 UNL     1     -10.149   1.104  11.902  1.00  0.00     0.000 A
HETATM   12  C21 UNL     1     -10.154   2.465  12.149  1.00  0.00     0.001 A
HETATM   13  C22 UNL     1      -9.902   2.936  13.429  1.00  0.00     0.007 A
ENDBRANCH   7   8
ENDBRANCH   5   7
ENDBRANCH   4   5
ENDBRANCH   3   4
ENDBRANCH   2   3
ENDBRANCH   1   2
BRANCH   1  14
HETATM   14  C6  UNL     1      -5.676   0.318  20.226  1.00  0.00     0.004 C
BRANCH  14  15
HETATM   15  C7  UNL     1      -5.507  -1.087  19.755  1.00  0.00     0.027 C
BRANCH  15  16
HETATM   16  C8  UNL     1      -5.211  -2.000  20.912  1.00  0.00     0.232 C
BRANCH  16  17
HETATM   17  N1  UNL     1      -3.832  -2.464  20.898  1.00  0.00    -0.071 N
ATOM     18  H12 UNL     1      -3.777  -3.478  20.812  1.00  0.00     0.277 HD
ATOM     19  H11 UNL     1      -3.359  -2.208  20.032  1.00  0.00     0.277 HD
BRANCH  17  20
HETATM   20  C9  UNL     1      -3.126  -1.994  22.043  1.00  0.00     0.270 C
BRANCH  20  21
HETATM   21  C10 UNL     1      -2.846  -0.556  22.041  1.00  0.00    -0.033 A
HETATM   22  C11 UNL     1      -2.070   0.069  21.086  1.00  0.00     0.009 A
HETATM   23  C12 UNL     1      -1.826   1.425  21.123  1.00  0.00     0.001 A
HETATM   24  C13 UNL     1      -2.381   2.154  22.150  1.00  0.00     0.000 A
HETATM   25  C14 UNL     1      -3.150   1.572  23.107  1.00  0.00     0.001 A
HETATM   26  C15 UNL     1      -3.379   0.219  23.050  1.00  0.00     0.009 A
ENDBRANCH  20  21
ENDBRANCH  17  20
ENDBRANCH  16  17
ENDBRANCH  15  16
ENDBRANCH  14  15
ENDBRANCH   1  14
TORSDOF 12
ENDMDL