MODEL 5
REMARK VINA RESULT: -8.842079929      0.663      1.292
REMARK  12 active torsions:
REMARK  status: ('A' for Active; 'I' for Inactive)
REMARK    1  A    between atoms: C2_2  and  C3_3
REMARK    2  A    between atoms: C3_3  and  N1_4
REMARK    3  A    between atoms: N1_4  and  C4_7
REMARK    4  A    between atoms: C4_7  and  C5_8
REMARK    5  A    between atoms: C5_8  and  O1_9
REMARK    6  A    between atoms: O1_9  and  C6_10
REMARK    7  A    between atoms: C10_14  and  C11_15
REMARK    8  A    between atoms: C11_15  and  C12_16
REMARK    9  A    between atoms: C12_16  and  C13_17
REMARK   10  A    between atoms: C13_17  and  C14_18
REMARK   11  A    between atoms: C14_18  and  C15_19
REMARK   12  A    between atoms: C15_19  and  C16_20
ROOT
HETATM    1  C6  UNL     1      -4.206  -1.826  21.034  1.00  0.00     0.069 A
HETATM    2  C7  UNL     1      -3.092  -1.172  21.528  1.00  0.00     0.037 A
HETATM    3  C8  UNL     1      -3.009   0.202  21.470  1.00  0.00     0.003 A
HETATM    4  C9  UNL     1      -4.045   0.944  20.912  1.00  0.00     0.007 A
HETATM    5  C10 UNL     1      -5.185   0.316  20.403  1.00  0.00    -0.056 A
HETATM    6  C22 UNL     1      -5.225  -1.055  20.482  1.00  0.00     0.044 A
ENDROOT
BRANCH   5   7
HETATM    7  C11 UNL     1      -6.279   1.124  19.814  1.00  0.00     0.038 C
BRANCH   7   8
HETATM    8  C12 UNL     1      -6.721   0.641  18.456  1.00  0.00     0.005 C
BRANCH   8   9
HETATM    9  C13 UNL     1      -8.092   1.123  18.094  1.00  0.00     0.001 C
BRANCH   9  10
HETATM   10  C14 UNL     1      -8.430   0.961  16.653  1.00  0.00     0.005 C
BRANCH  10  11
HETATM   11  C15 UNL     1      -9.649   1.674  16.185  1.00  0.00     0.038 C
BRANCH  11  12
HETATM   12  C16 UNL     1      -9.825   1.668  14.706  1.00  0.00    -0.058 A
HETATM   13  C17 UNL     1      -9.953   0.538  13.940  1.00  0.00     0.007 A
HETATM   14  C18 UNL     1     -10.107   0.605  12.551  1.00  0.00     0.001 A
HETATM   15  C19 UNL     1     -10.137   1.809  11.885  1.00  0.00     0.000 A
HETATM   16  C20 UNL     1     -10.009   2.949  12.650  1.00  0.00     0.001 A
HETATM   17  C21 UNL     1      -9.857   2.890  14.017  1.00  0.00     0.007 A
ENDBRANCH  11  12
ENDBRANCH  10  11
ENDBRANCH   9  10
ENDBRANCH   8   9
ENDBRANCH   7   8
ENDBRANCH   5   7
BRANCH   1  18
HETATM   18  O1  UNL     1      -4.322  -3.200  21.077  1.00  0.00    -0.349 OA
BRANCH  18  19
HETATM   19  C5  UNL     1      -3.232  -3.977  20.564  1.00  0.00     0.203 C
BRANCH  19  20
HETATM   20  C4  UNL     1      -3.199  -5.332  21.254  1.00  0.00     0.259 C
BRANCH  20  21
HETATM   21  N1  UNL     1      -2.738  -5.167  22.608  1.00  0.00    -0.070 N
ATOM     22  H12 UNL     1      -3.412  -5.545  23.274  1.00  0.00     0.277 HD
ATOM     23  H11 UNL     1      -2.764  -4.185  22.887  1.00  0.00     0.277 HD
BRANCH  21  24
HETATM   24  C3  UNL     1      -1.421  -5.734  22.821  1.00  0.00     0.259 C
BRANCH  24  25
HETATM   25  C2  UNL     1      -0.767  -5.013  23.942  1.00  0.00    -0.010 C
HETATM   26  C1  UNL     1      -0.837  -3.700  24.010  1.00  0.00     0.008 C
ENDBRANCH  24  25
ENDBRANCH  21  24
ENDBRANCH  20  21
ENDBRANCH  19  20
ENDBRANCH  18  19
ENDBRANCH   1  18
TORSDOF 12
ENDMDL