MODEL 4
REMARK VINA RESULT: -6.870228262      4.139      7.040
REMARK  12 active torsions:
REMARK  status: ('A' for Active; 'I' for Inactive)
REMARK    1  A    between atoms: C2_2  and  C3_3
REMARK    2  A    between atoms: C3_3  and  C4_4
REMARK    3  A    between atoms: C4_4  and  C5_5
REMARK    4  A    between atoms: C4_4  and  N1_10
REMARK    5  A    between atoms: C5_5  and  C6_6
REMARK    6  A    between atoms: C6_6  and  C7_7
REMARK    7  A    between atoms: C7_7  and  S1_8
REMARK    8  A    between atoms: N1_10  and  C9_12
REMARK    9  A    between atoms: C9_12  and  C10_13
REMARK   10  A    between atoms: C10_13  and  C11_14
REMARK   11  A    between atoms: C10_13  and  C15_18
REMARK   12  A    between atoms: C11_14  and  C12_15
ROOT
HETATM    1  C9  UNL     1      -2.913   0.409  21.237  1.00  0.00     0.123 C
ENDROOT
BRANCH   1   2
HETATM    2  N1  UNL     1      -3.590  -0.809  21.164  1.00  0.00    -0.416 N
ATOM      3  H1  UNL     1      -3.254  -1.606  21.703  1.00  0.00     0.153 HD
BRANCH   2   4
HETATM    4  C4  UNL     1      -4.756  -0.950  20.336  1.00  0.00     0.080 C
BRANCH   4   5
HETATM    5  C3  UNL     1      -5.794  -0.048  20.951  1.00  0.00     0.051 C
BRANCH   5   6
HETATM    6  C2  UNL     1      -6.352   0.935  19.978  1.00  0.00    -0.035 C
HETATM    7  C1  UNL     1      -6.662   0.606  18.737  1.00  0.00     0.007 C
ENDBRANCH   5   6
ENDBRANCH   4   5
BRANCH   4   8
HETATM    8  C5  UNL     1      -5.065  -2.435  20.468  1.00  0.00     0.026 C
BRANCH   8   9
HETATM    9  C6  UNL     1      -3.937  -3.358  20.538  1.00  0.00     0.012 C
BRANCH   9  10
HETATM   10  C7  UNL     1      -3.918  -4.383  21.611  1.00  0.00     0.073 C
BRANCH  10  11
HETATM   11  S1  UNL     1      -5.079  -4.085  22.968  1.00  0.00    -0.173 SA
HETATM   12  C8  UNL     1      -4.249  -2.936  24.126  1.00  0.00     0.089 C
ENDBRANCH  10  11
ENDBRANCH   9  10
ENDBRANCH   8   9
ENDBRANCH   4   8
ENDBRANCH   2   4
ENDBRANCH   1   2
BRANCH   1  13
HETATM   13  C10 UNL     1      -2.526   0.513  22.759  1.00  0.00     0.036 C
BRANCH  13  14
HETATM   14  C11 UNL     1      -2.907   1.854  23.274  1.00  0.00     0.015 C
BRANCH  14  15
HETATM   15  C12 UNL     1      -2.832   1.882  24.771  1.00  0.00    -0.014 A
HETATM   16  C13 UNL     1      -2.805   3.246  25.432  1.00  0.00     0.005 A
HETATM   17  C14 UNL     1      -1.626   2.323  25.478  1.00  0.00     0.005 A
ENDBRANCH  14  15
ENDBRANCH  13  14
BRANCH  13  18
HETATM   18  C15 UNL     1      -1.153   0.082  22.907  1.00  0.00    -0.052 A
HETATM   19  C16 UNL     1      -0.797  -0.918  23.794  1.00  0.00     0.007 A
HETATM   20  C17 UNL     1       0.542  -1.297  23.961  1.00  0.00     0.001 A
HETATM   21  C18 UNL     1       1.553  -0.674  23.234  1.00  0.00     0.000 A
HETATM   22  C19 UNL     1       1.185   0.316  22.358  1.00  0.00     0.001 A
HETATM   23  C20 UNL     1      -0.113   0.682  22.196  1.00  0.00     0.007 A
ENDBRANCH  13  18
ENDBRANCH   1  13
TORSDOF 12
ENDMDL