MODEL 4
REMARK VINA RESULT: -8.155839120      1.046      1.388
REMARK  12 active torsions:
REMARK  status: ('A' for Active; 'I' for Inactive)
REMARK    1  A    between atoms: C2_2  and  N1_3
REMARK    2  A    between atoms: N1_3  and  C3_5
REMARK    3  A    between atoms: C3_5  and  C4_6
REMARK    4  A    between atoms: C4_6  and  N2_7
REMARK    5  A    between atoms: N2_7  and  C5_8
REMARK    6  A    between atoms: N2_7  and  C15_18
REMARK    7  A    between atoms: C5_8  and  C6_9
REMARK    8  A    between atoms: C7_10  and  C9_12
REMARK    9  A    between atoms: C9_12  and  C10_13
REMARK   10  A    between atoms: C10_13  and  C11_14
REMARK   11  A    between atoms: C11_14  and  C12_15
REMARK   12  A    between atoms: C15_18  and  C16_19
ROOT
HETATM    1  N2  UNL     1      -5.699   0.226  20.160  1.00  0.00    -0.364 N
ENDROOT
BRANCH   1   2
HETATM    2  C4  UNL     1      -5.269  -1.097  19.947  1.00  0.00     0.083 C
BRANCH   2   3
HETATM    3  C3  UNL     1      -5.606  -2.135  20.946  1.00  0.00     0.163 C
BRANCH   3   4
HETATM    4  N1  UNL     1      -4.561  -3.071  21.154  1.00  0.00    -0.398 N
ATOM      5  H1  UNL     1      -4.722  -4.045  20.896  1.00  0.00     0.158 HD
BRANCH   4   6
HETATM    6  C2  UNL     1      -3.331  -2.725  21.690  1.00  0.00     0.051 C
HETATM    7  C1  UNL     1      -3.121  -2.706  23.161  1.00  0.00     0.054 C
ENDBRANCH   4   6
ENDBRANCH   3   4
ENDBRANCH   2   3
ENDBRANCH   1   2
BRANCH   1   8
HETATM    8  C5  UNL     1      -6.857   0.728  19.554  1.00  0.00     0.090 C
BRANCH   8   9
HETATM    9  C6  UNL     1      -7.027   0.673  18.113  1.00  0.00     0.020 C
HETATM   10  C7  UNL     1      -8.116   1.091  17.511  1.00  0.00    -0.083 C
HETATM   11  C8  UNL     1      -9.238   1.652  18.291  1.00  0.00     0.043 C
BRANCH  10  12
HETATM   12  C9  UNL     1      -8.232   0.941  16.037  1.00  0.00     0.034 C
BRANCH  12  13
HETATM   13  C10 UNL     1      -9.645   1.255  15.573  1.00  0.00     0.005 C
BRANCH  13  14
HETATM   14  C11 UNL     1      -9.662   2.186  14.421  1.00  0.00     0.004 C
BRANCH  14  15
HETATM   15  C12 UNL     1     -10.530   1.691  13.302  1.00  0.00    -0.023 C
HETATM   16  C13 UNL     1     -10.061   0.396  12.726  1.00  0.00     0.009 C
HETATM   17  C14 UNL     1     -10.432   2.783  12.212  1.00  0.00     0.009 C
ENDBRANCH  14  15
ENDBRANCH  13  14
ENDBRANCH  12  13
ENDBRANCH  10  12
ENDBRANCH   8   9
ENDBRANCH   1   8
BRANCH   1  18
HETATM   18  C15 UNL     1      -4.614   1.151  20.144  1.00  0.00     0.165 C
BRANCH  18  19
HETATM   19  C16 UNL     1      -3.742   1.065  21.321  1.00  0.00    -0.040 A
HETATM   20  C17 UNL     1      -2.359   0.966  21.205  1.00  0.00     0.009 A
HETATM   21  C18 UNL     1      -1.530   0.884  22.295  1.00  0.00     0.001 A
HETATM   22  C19 UNL     1      -2.043   0.893  23.574  1.00  0.00     0.000 A
HETATM   23  C20 UNL     1      -3.416   0.992  23.715  1.00  0.00     0.001 A
HETATM   24  C21 UNL     1      -4.242   1.076  22.598  1.00  0.00     0.009 A
ENDBRANCH  18  19
ENDBRANCH   1  18
TORSDOF 12
ENDMDL