MODEL 3
REMARK VINA RESULT: -8.644174436      1.021      1.755
REMARK  12 active torsions:
REMARK  status: ('A' for Active; 'I' for Inactive)
REMARK    1  A    between atoms: C2_2  and  C3_3
REMARK    2  A    between atoms: C4_4  and  C5_5
REMARK    3  A    between atoms: C5_5  and  N1_6
REMARK    4  A    between atoms: N1_6  and  C6_9
REMARK    5  A    between atoms: C6_9  and  C7_10
REMARK    6  A    between atoms: C9_12  and  C10_13
REMARK    7  A    between atoms: C10_13  and  C11_14
REMARK    8  A    between atoms: C11_14  and  C12_15
REMARK    9  A    between atoms: C14_17  and  C15_18
REMARK   10  A    between atoms: C15_18  and  O1_19
REMARK   11  A    between atoms: O1_19  and  C16_20
REMARK   12  A    between atoms: C16_20  and  C17_21
ROOT
HETATM    1  C10 UNL     1      -7.902   1.046  18.529  1.00  0.00     0.031 C
ENDROOT
BRANCH   1   2
HETATM    2  C9  UNL     1      -8.466   1.071  17.170  1.00  0.00    -0.022 C
HETATM    3  C7  UNL     1      -9.555   1.786  16.923  1.00  0.00    -0.062 C
HETATM    4  C8  UNL     1     -10.189   2.546  18.011  1.00  0.00     0.044 C
BRANCH   3   5
HETATM    5  C6  UNL     1     -10.113   1.799  15.540  1.00  0.00     0.266 C
BRANCH   5   6
HETATM    6  N1  UNL     1      -9.593   0.742  14.719  1.00  0.00    -0.069 N
ATOM      7  H12 UNL     1      -9.138   0.029  15.289  1.00  0.00     0.277 HD
ATOM      8  H11 UNL     1      -8.790   1.062  14.178  1.00  0.00     0.277 HD
BRANCH   6   9
HETATM    9  C5  UNL     1     -10.599   0.146  13.848  1.00  0.00     0.260 C
BRANCH   9  10
HETATM   10  C4  UNL     1     -10.025   0.038  12.493  1.00  0.00     0.000 C
HETATM   11  C3  UNL     1      -9.731   1.019  11.683  1.00  0.00    -0.003 C
BRANCH  11  12
HETATM   12  C2  UNL     1      -9.923   2.416  11.988  1.00  0.00    -0.011 C
HETATM   13  C1  UNL     1     -11.072   3.021  12.022  1.00  0.00     0.011 C
ENDBRANCH  11  12
ENDBRANCH   9  10
ENDBRANCH   6   9
ENDBRANCH   5   6
ENDBRANCH   3   5
ENDBRANCH   1   2
BRANCH   1  14
HETATM   14  C11 UNL     1      -6.434   0.647  18.531  1.00  0.00     0.037 C
BRANCH  14  15
HETATM   15  C12 UNL     1      -6.150   0.013  19.833  1.00  0.00    -0.085 C
HETATM   16  C13 UNL     1      -5.296  -1.187  19.883  1.00  0.00     0.043 C
HETATM   17  C14 UNL     1      -6.655   0.516  20.935  1.00  0.00     0.001 C
BRANCH  17  18
HETATM   18  C15 UNL     1      -6.354  -0.142  22.254  1.00  0.00     0.195 C
BRANCH  18  19
HETATM   19  O1  UNL     1      -5.480   0.583  23.021  1.00  0.00    -0.383 OA
BRANCH  19  20
HETATM   20  C16 UNL     1      -4.320  -0.093  23.369  1.00  0.00     0.206 C
BRANCH  20  21
HETATM   21  C17 UNL     1      -3.214   0.446  22.536  1.00  0.00    -0.035 A
HETATM   22  C18 UNL     1      -2.027  -0.268  22.531  1.00  0.00     0.009 A
HETATM   23  C19 UNL     1      -0.969   0.195  21.770  1.00  0.00     0.001 A
HETATM   24  C20 UNL     1      -1.085   1.355  21.018  1.00  0.00     0.000 A
HETATM   25  C21 UNL     1      -2.261   2.072  21.016  1.00  0.00     0.001 A
HETATM   26  C22 UNL     1      -3.301   1.593  21.782  1.00  0.00     0.009 A
ENDBRANCH  20  21
ENDBRANCH  19  20
ENDBRANCH  18  19
ENDBRANCH  17  18
ENDBRANCH  14  15
ENDBRANCH   1  14
TORSDOF 12
ENDMDL