MODEL 5
REMARK VINA RESULT: -6.874535024      1.781      4.688
REMARK  17 active torsions:
REMARK  status: ('A' for Active; 'I' for Inactive)
REMARK    1  A    between atoms: C2_2  and  O1_3
REMARK    2  A    between atoms: O1_3  and  C3_4
REMARK    3  A    between atoms: C3_4  and  C4_6
REMARK    4  A    between atoms: C4_6  and  C5_7
REMARK    5  A    between atoms: C5_7  and  C6_8
REMARK    6  A    between atoms: C5_7  and  C15_27
REMARK    7  A    between atoms: C6_8  and  O3_9
REMARK    8  A    between atoms: C6_8  and  C7_11
REMARK    9  A    between atoms: C8_13  and  O5_14
REMARK   10  A    between atoms: C9_16  and  C10_17
REMARK   11  A    between atoms: C10_17  and  O7_19
REMARK   12  A    between atoms: C12_21  and  O8_22
REMARK   13  A    between atoms: O8_22  and  C13_23
REMARK   14  A    between atoms: C15_27  and  O11_28
REMARK   15  A    between atoms: C15_27  and  C18_32
REMARK   16  A    between atoms: O11_28  and  C16_29
REMARK   17  A    between atoms: C18_32  and  C20_34
ROOT
HETATM    1  C6  UNL     1      -3.164   3.892  10.764  1.00  0.00     0.180 C
ENDROOT
BRANCH   1   2
HETATM    2  C5  UNL     1      -2.963   5.086  11.576  1.00  0.00     0.058 C
BRANCH   2   3
HETATM    3  C4  UNL     1      -1.875   5.015  12.582  1.00  0.00     0.121 C
BRANCH   3   4
HETATM    4  C3  UNL     1      -0.782   5.980  12.573  1.00  0.00     0.259 C
HETATM    5  O2  UNL     1       0.292   5.732  11.977  1.00  0.00    -0.265 OA
BRANCH   4   6
HETATM    6  O1  UNL     1      -0.900   7.205  13.224  1.00  0.00    -0.322 OA
BRANCH   6   7
HETATM    7  C2  UNL     1      -1.735   7.486  14.309  1.00  0.00     0.174 C
HETATM    8  C1  UNL     1      -2.081   8.948  14.324  1.00  0.00     0.034 C
ENDBRANCH   6   7
ENDBRANCH   4   6
ENDBRANCH   3   4
ENDBRANCH   2   3
BRANCH   2   9
HETATM    9  C15 UNL     1      -4.237   5.655  12.189  1.00  0.00     0.142 C
BRANCH   9  10
HETATM   10  O11 UNL     1      -4.443   5.303  13.506  1.00  0.00    -0.315 OA
BRANCH  10  11
HETATM   11  C16 UNL     1      -5.609   5.342  14.184  1.00  0.00     0.255 C
HETATM   12  C17 UNL     1      -5.936   6.334  15.267  1.00  0.00     0.126 C
HETATM   13  O12 UNL     1      -6.482   4.499  13.898  1.00  0.00    -0.266 OA
ENDBRANCH  10  11
ENDBRANCH   9  10
BRANCH   9  14
HETATM   14  C18 UNL     1      -4.613   7.025  11.765  1.00  0.00     0.011 C
HETATM   15  C19 UNL     1      -3.617   7.848  11.042  1.00  0.00     0.012 C
BRANCH  14  16
HETATM   16  C20 UNL     1      -5.914   7.082  10.945  1.00  0.00     0.002 C
HETATM   17  C21 UNL     1      -6.994   7.868  11.592  1.00  0.00     0.005 C
ENDBRANCH  14  16
ENDBRANCH   9  14
ENDBRANCH   2   9
ENDBRANCH   1   2
BRANCH   1  18
HETATM   18  O3  UNL     1      -2.530   3.972   9.490  1.00  0.00    -0.390 OA
ATOM     19  H3  UNL     1      -1.585   4.051   9.550  1.00  0.00     0.210 HD
ENDBRANCH   1  18
BRANCH   1  20
HETATM   20  C7  UNL     1      -2.857   2.519  11.229  1.00  0.00     0.295 C
HETATM   21  O4  UNL     1      -3.003   1.643  10.159  1.00  0.00    -0.328 OA
HETATM   22  C8  UNL     1      -2.839   0.317  10.494  1.00  0.00     0.278 C
HETATM   23  C9  UNL     1      -3.933  -0.011  11.505  1.00  0.00     0.196 C
HETATM   24  C12 UNL     1      -3.717   0.924  12.666  1.00  0.00     0.291 C
HETATM   25  O10 UNL     1      -3.863   2.231  12.202  1.00  0.00    -0.327 OA
BRANCH  22  26
HETATM   26  O5  UNL     1      -3.045  -0.440   9.348  1.00  0.00    -0.370 OA
ATOM     27  H5  UNL     1      -3.853  -0.928   9.462  1.00  0.00     0.212 HD
ENDBRANCH  22  26
BRANCH  23  28
HETATM   28  C10 UNL     1      -3.969  -1.430  11.842  1.00  0.00     0.272 C
HETATM   29  O6  UNL     1      -4.894  -2.072  12.360  1.00  0.00    -0.265 OA
BRANCH  28  30
HETATM   30  O7  UNL     1      -2.804  -2.161  11.539  1.00  0.00    -0.326 OA
HETATM   31  C11 UNL     1      -2.848  -3.497  11.131  1.00  0.00     0.213 C
ENDBRANCH  28  30
ENDBRANCH  23  28
BRANCH  24  32
HETATM   32  O8  UNL     1      -4.780   0.725  13.576  1.00  0.00    -0.289 OA
BRANCH  32  33
HETATM   33  C13 UNL     1      -4.606   0.613  14.933  1.00  0.00     0.257 C
HETATM   34  C14 UNL     1      -4.231   1.830  15.704  1.00  0.00     0.126 C
HETATM   35  O9  UNL     1      -4.762  -0.492  15.479  1.00  0.00    -0.266 OA
ENDBRANCH  32  33
ENDBRANCH  24  32
ENDBRANCH   1  20
TORSDOF 17
ENDMDL