MODEL 1
REMARK VINA RESULT: -6.597943021      0.000      0.000
REMARK  13 active torsions:
REMARK  status: ('A' for Active; 'I' for Inactive)
REMARK    1  A    between atoms: C2_2  and  C3_3
REMARK    2  A    between atoms: C3_3  and  C4_4
REMARK    3  A    between atoms: C4_4  and  C5_5
REMARK    4  A    between atoms: C5_5  and  O1_6
REMARK    5  A    between atoms: C5_5  and  C19_29
REMARK    6  A    between atoms: O1_6  and  C6_7
REMARK    7  A    between atoms: C7_8  and  O2_9
REMARK    8  A    between atoms: O2_9  and  C8_10
REMARK    9  A    between atoms: C8_10  and  O3_11
REMARK   10  A    between atoms: C10_13  and  C11_14
REMARK   11  A    between atoms: C11_14  and  O5_16
REMARK   12  A    between atoms: C19_29  and  O11_30
REMARK   13  A    between atoms: C19_29  and  C20_32
ROOT
HETATM    1  C6  UNL     1      -3.796   4.919  11.161  1.00  0.00     0.248 C
HETATM    2  C7  UNL     1      -4.304   6.155  11.871  1.00  0.00     0.211 C
HETATM    3  C10 UNL     1      -4.763   7.239  10.966  1.00  0.00     0.229 C
HETATM    4  O6  UNL     1      -4.632   8.520  11.465  1.00  0.00    -0.327 OA
HETATM    5  C13 UNL     1      -4.201   9.343  10.408  1.00  0.00     0.162 C
HETATM    6  C14 UNL     1      -2.829   9.874  10.734  1.00  0.00     0.078 C
HETATM    7  C15 UNL     1      -5.132  10.477  10.136  1.00  0.00     0.078 C
HETATM    8  O7  UNL     1      -4.109   8.506   9.269  1.00  0.00    -0.322 OA
HETATM    9  C16 UNL     1      -3.717   7.329   9.837  1.00  0.00     0.317 C
HETATM   10  O8  UNL     1      -3.890   6.188   9.090  1.00  0.00    -0.296 OA
HETATM   11  C17 UNL     1      -3.216   5.177   9.818  1.00  0.00     0.318 C
HETATM   12  O9  UNL     1      -2.922   4.054   9.100  1.00  0.00    -0.305 OA
HETATM   13  C18 UNL     1      -1.564   4.273   9.287  1.00  0.00     0.350 C
HETATM   14  O10 UNL     1      -1.846   5.525   9.822  1.00  0.00    -0.305 OA
ENDROOT
BRANCH   1  15
HETATM   15  O1  UNL     1      -4.746   3.906  11.143  1.00  0.00    -0.367 OA
BRANCH  15  16
HETATM   16  C5  UNL     1      -4.465   2.825  11.937  1.00  0.00     0.161 C
BRANCH  16  17
HETATM   17  C4  UNL     1      -3.896   3.130  13.278  1.00  0.00     0.035 C
BRANCH  17  18
HETATM   18  C3  UNL     1      -4.819   2.957  14.439  1.00  0.00     0.002 C
BRANCH  18  19
HETATM   19  C2  UNL     1      -4.500   1.577  15.039  1.00  0.00    -0.004 C
HETATM   20  C1  UNL     1      -5.288   1.336  16.292  1.00  0.00     0.005 C
ENDBRANCH  18  19
ENDBRANCH  17  18
ENDBRANCH  16  17
BRANCH  16  21
HETATM   21  C19 UNL     1      -3.617   1.781  11.251  1.00  0.00     0.247 C
BRANCH  21  22
HETATM   22  O11 UNL     1      -2.480   1.423  11.923  1.00  0.00    -0.382 OA
ATOM     23  H11 UNL     1      -2.509   0.568  12.336  1.00  0.00     0.210 HD
ENDBRANCH  21  22
BRANCH  21  24
HETATM   24  C20 UNL     1      -4.490   0.568  11.058  1.00  0.00     0.205 C
HETATM   25  O12 UNL     1      -4.582  -0.284  11.976  1.00  0.00    -0.646 OA
HETATM   26  O13 UNL     1      -5.201   0.355   9.899  1.00  0.00    -0.646 OA
ENDBRANCH  21  24
ENDBRANCH  16  21
ENDBRANCH  15  16
ENDBRANCH   1  15
BRANCH   2  27
HETATM   27  O2  UNL     1      -3.416   6.671  12.792  1.00  0.00    -0.355 OA
BRANCH  27  28
HETATM   28  C8  UNL     1      -3.898   6.639  14.093  1.00  0.00     0.337 C
BRANCH  28  29
HETATM   29  O3  UNL     1      -3.382   7.732  14.780  1.00  0.00    -0.372 OA
HETATM   30  C9  UNL     1      -2.225   8.143  14.123  1.00  0.00     0.204 C
ENDBRANCH  28  29
ENDBRANCH  27  28
ENDBRANCH   2  27
BRANCH   3  31
HETATM   31  C11 UNL     1      -6.107   7.047  10.423  1.00  0.00     0.301 C
HETATM   32  O4  UNL     1      -7.068   7.704  10.887  1.00  0.00    -0.261 OA
BRANCH  31  33
HETATM   33  O5  UNL     1      -6.382   6.156   9.399  1.00  0.00    -0.324 OA
HETATM   34  C12 UNL     1      -7.239   6.531   8.333  1.00  0.00     0.213 C
ENDBRANCH  31  33
ENDBRANCH   3  31
TORSDOF 13
ENDMDL