MODEL 5
REMARK VINA RESULT: -6.736901273      2.442      3.800
REMARK  17 active torsions:
REMARK  status: ('A' for Active; 'I' for Inactive)
REMARK    1  A    between atoms: C2_2  and  O2_4
REMARK    2  A    between atoms: O2_4  and  C3_5
REMARK    3  A    between atoms: C3_5  and  C4_6
REMARK    4  A    between atoms: C5_8  and  O4_9
REMARK    5  A    between atoms: O4_9  and  C6_10
REMARK    6  A    between atoms: C6_10  and  C7_11
REMARK    7  A    between atoms: C7_11  and  O5_12
REMARK    8  A    between atoms: C7_11  and  C8_14
REMARK    9  A    between atoms: C8_14  and  O6_15
REMARK   10  A    between atoms: C8_14  and  C9_17
REMARK   11  A    between atoms: C9_17  and  C10_18
REMARK   12  A    between atoms: C13_21  and  O7_22
REMARK   13  A    between atoms: O7_22  and  C14_23
REMARK   14  A    between atoms: C16_26  and  O9_27
REMARK   15  A    between atoms: O9_27  and  C17_28
REMARK   16  A    between atoms: C19_31  and  O11_32
REMARK   17  A    between atoms: O11_32  and  C20_33
ROOT
HETATM    1  C4  UNL     1      -4.559   2.571  11.452  1.00  0.00     0.181 C
HETATM    2  O3  UNL     1      -3.830   3.077  10.419  1.00  0.00    -0.348 OA
HETATM    3  C5  UNL     1      -2.654   3.718  10.738  1.00  0.00     0.292 C
HETATM    4  C13 UNL     1      -2.793   4.771  11.796  1.00  0.00     0.219 C
HETATM    5  C16 UNL     1      -3.892   4.460  12.786  1.00  0.00     0.198 C
HETATM    6  C19 UNL     1      -4.063   2.956  12.832  1.00  0.00     0.195 C
ENDROOT
BRANCH   3   7
HETATM    7  O4  UNL     1      -2.186   4.329   9.577  1.00  0.00    -0.356 OA
BRANCH   7   8
HETATM    8  C6  UNL     1      -2.715   5.608   9.421  1.00  0.00     0.205 C
BRANCH   8   9
HETATM    9  C7  UNL     1      -3.631   5.674   8.205  1.00  0.00     0.170 C
BRANCH   9  10
HETATM   10  O5  UNL     1      -3.711   4.486   7.542  1.00  0.00    -0.391 OA
ATOM     11  H5  UNL     1      -2.857   4.116   7.351  1.00  0.00     0.210 HD
ENDBRANCH   9  10
BRANCH   9  12
HETATM   12  C8  UNL     1      -4.972   6.209   8.621  1.00  0.00     0.149 C
BRANCH  12  13
HETATM   13  O6  UNL     1      -5.537   5.324   9.595  1.00  0.00    -0.393 OA
ATOM     14  H6  UNL     1      -5.891   4.564   9.147  1.00  0.00     0.210 HD
ENDBRANCH  12  13
BRANCH  12  15
HETATM   15  C9  UNL     1      -4.966   7.561   9.247  1.00  0.00     0.038 C
BRANCH  15  16
HETATM   16  C10 UNL     1      -5.276   7.632  10.702  1.00  0.00    -0.020 C
HETATM   17  C11 UNL     1      -6.539   8.510  10.875  1.00  0.00     0.009 C
HETATM   18  C12 UNL     1      -4.186   8.292  11.517  1.00  0.00     0.009 C
ENDBRANCH  15  16
ENDBRANCH  12  15
ENDBRANCH   9  12
ENDBRANCH   8   9
ENDBRANCH   7   8
ENDBRANCH   3   7
BRANCH   4  19
HETATM   19  O7  UNL     1      -1.545   4.878  12.454  1.00  0.00    -0.308 OA
BRANCH  19  20
HETATM   20  C14 UNL     1      -0.731   5.987  12.405  1.00  0.00     0.255 C
HETATM   21  C15 UNL     1       0.475   5.915  11.539  1.00  0.00     0.126 C
HETATM   22  O8  UNL     1      -1.048   6.986  13.084  1.00  0.00    -0.266 OA
ENDBRANCH  19  20
ENDBRANCH   4  19
BRANCH   1  23
HETATM   23  C3  UNL     1      -4.796   1.081  11.347  1.00  0.00     0.213 C
BRANCH  23  24
HETATM   24  O2  UNL     1      -3.726   0.323  11.821  1.00  0.00    -0.319 OA
BRANCH  24  25
HETATM   25  C2  UNL     1      -3.025  -0.486  10.941  1.00  0.00     0.254 C
HETATM   26  C1  UNL     1      -2.904  -1.965  11.154  1.00  0.00     0.126 C
HETATM   27  O1  UNL     1      -2.490   0.069   9.946  1.00  0.00    -0.266 OA
ENDBRANCH  24  25
ENDBRANCH  23  24
ENDBRANCH   1  23
BRANCH   5  28
HETATM   28  O9  UNL     1      -3.734   5.057  14.024  1.00  0.00    -0.311 OA
BRANCH  28  29
HETATM   29  C17 UNL     1      -4.487   6.146  14.443  1.00  0.00     0.255 C
HETATM   30  C18 UNL     1      -5.956   6.019  14.433  1.00  0.00     0.126 C
HETATM   31  O10 UNL     1      -3.852   7.154  14.799  1.00  0.00    -0.266 OA
ENDBRANCH  28  29
ENDBRANCH   5  28
BRANCH   6  32
HETATM   32  O11 UNL     1      -5.092   2.695  13.773  1.00  0.00    -0.311 OA
BRANCH  32  33
HETATM   33  C20 UNL     1      -4.868   2.214  15.038  1.00  0.00     0.255 C
HETATM   34  C21 UNL     1      -5.942   1.990  16.041  1.00  0.00     0.126 C
HETATM   35  O12 UNL     1      -3.685   1.950  15.368  1.00  0.00    -0.266 OA
ENDBRANCH  32  33
ENDBRANCH   6  32
TORSDOF 17
ENDMDL