MODEL 1
REMARK VINA RESULT: -6.655373169      0.000      0.000
REMARK  18 active torsions:
REMARK  status: ('A' for Active; 'I' for Inactive)
REMARK    1  A    between atoms: C2_2  and  C3_3
REMARK    2  A    between atoms: C4_5  and  N1_6
REMARK    3  A    between atoms: N1_6  and  N2_8
REMARK    4  A    between atoms: N2_8  and  N3_9
REMARK    5  A    between atoms: C5_12  and  O2_13
REMARK    6  A    between atoms: O2_13  and  C6_14
REMARK    7  A    between atoms: C8_17  and  C9_18
REMARK    8  A    between atoms: C9_18  and  O4_19
REMARK    9  A    between atoms: O4_19  and  C10_20
REMARK   10  A    between atoms: C10_20  and  O5_21
REMARK   11  A    between atoms: C10_20  and  C13_27
REMARK   12  A    between atoms: O5_21  and  C11_22
REMARK       I    between atoms: C11_22  and  N4_24
REMARK   13  A    between atoms: C13_27  and  C14_28
REMARK   14  A    between atoms: C13_27  and  O8_31
REMARK   15  A    between atoms: C14_28  and  O7_29
REMARK   16  A    between atoms: O8_31  and  C15_32
REMARK   17  A    between atoms: C17_35  and  O10_36
REMARK   18  A    between atoms: O10_36  and  C18_37
ROOT
HETATM    1  C3  UNL     1      -4.837   3.542  12.949  1.00  0.00     0.176 C
HETATM    2  O1  UNL     1      -4.177   4.686  13.194  1.00  0.00    -0.350 OA
HETATM    3  C4  UNL     1      -3.337   5.225  12.283  1.00  0.00     0.280 C
HETATM    4  C5  UNL     1      -3.411   4.527  10.935  1.00  0.00     0.191 C
HETATM    5  C8  UNL     1      -3.247   3.074  11.065  1.00  0.00     0.076 C
HETATM    6  C17 UNL     1      -4.153   2.486  12.137  1.00  0.00     0.173 C
ENDROOT
BRANCH   5   7
HETATM    7  C9  UNL     1      -1.844   2.611  11.259  1.00  0.00     0.181 C
BRANCH   7   8
HETATM    8  O4  UNL     1      -0.894   3.210  10.635  1.00  0.00    -0.357 OA
BRANCH   8   9
HETATM    9  C10 UNL     1      -0.300   3.190   9.479  1.00  0.00     0.302 C
BRANCH   9  10
HETATM   10  O5  UNL     1      -1.117   3.741   8.409  1.00  0.00    -0.270 OA
BRANCH  10  11
HETATM   11  C11 UNL     1      -0.557   4.316   7.288  1.00  0.00     0.362 C
HETATM   12  O6  UNL     1      -0.748   5.512   7.008  1.00  0.00    -0.238 OA
HETATM   13  N4  UNL     1       0.261   3.535   6.419  1.00  0.00    -0.341 N
HETATM   14  C12 UNL     1       0.859   4.111   5.239  1.00  0.00     0.151 C
ATOM     15  H4  UNL     1       0.425   2.551   6.635  1.00  0.00     0.164 HD
ENDBRANCH  10  11
ENDBRANCH   9  10
BRANCH   9  16
HETATM   16  C13 UNL     1       0.957   4.093   9.566  1.00  0.00     0.211 C
BRANCH  16  17
HETATM   17  C14 UNL     1       1.084   4.769  10.871  1.00  0.00     0.201 C
BRANCH  17  18
HETATM   18  O7  UNL     1       0.151   5.801  10.950  1.00  0.00    -0.398 OA
ATOM     19  H7  UNL     1       0.531   6.596  10.599  1.00  0.00     0.209 HD
ENDBRANCH  17  18
ENDBRANCH  16  17
BRANCH  16  20
HETATM   20  O8  UNL     1       2.020   3.261   9.202  1.00  0.00    -0.309 OA
BRANCH  20  21
HETATM   21  C15 UNL     1       3.131   3.661   8.499  1.00  0.00     0.255 C
HETATM   22  C16 UNL     1       3.303   5.021   7.928  1.00  0.00     0.126 C
HETATM   23  O9  UNL     1       4.032   2.801   8.349  1.00  0.00    -0.266 OA
ENDBRANCH  20  21
ENDBRANCH  16  20
ENDBRANCH   9  16
ENDBRANCH   8   9
ENDBRANCH   7   8
ENDBRANCH   5   7
BRANCH   4  24
HETATM   24  O2  UNL     1      -4.779   4.799  10.488  1.00  0.00    -0.311 OA
BRANCH  24  25
HETATM   25  C6  UNL     1      -5.060   5.725   9.514  1.00  0.00     0.255 C
HETATM   26  C7  UNL     1      -3.990   6.251   8.645  1.00  0.00     0.126 C
HETATM   27  O3  UNL     1      -6.239   6.121   9.371  1.00  0.00    -0.266 OA
ENDBRANCH  24  25
ENDBRANCH   4  24
BRANCH   6  28
HETATM   28  O10 UNL     1      -5.157   1.748  11.473  1.00  0.00    -0.313 OA
BRANCH  28  29
HETATM   29  C18 UNL     1      -4.887   0.508  10.884  1.00  0.00     0.255 C
HETATM   30  C19 UNL     1      -4.265  -0.616  11.594  1.00  0.00     0.126 C
HETATM   31  O11 UNL     1      -5.213   0.392   9.675  1.00  0.00    -0.266 OA
ENDBRANCH  28  29
ENDBRANCH   6  28
BRANCH   3  32
HETATM   32  N1  UNL     1      -2.002   5.460  12.747  1.00  0.00    -0.220 N
ATOM     33  H1  UNL     1      -1.439   6.148  12.247  1.00  0.00     0.200 HD
BRANCH  32  34
HETATM   34  N2  UNL     1      -1.489   4.887  13.710  1.00  0.00    -0.246 NA
BRANCH  34  35
HETATM   35  N3  UNL     1      -1.211   4.128  14.659  1.00  0.00    -0.261 N
ATOM     36  H32 UNL     1      -2.181   4.099  14.973  1.00  0.00     0.193 HD
ATOM     37  H31 UNL     1      -0.755   3.527  15.344  1.00  0.00     0.193 HD
ENDBRANCH  34  35
ENDBRANCH  32  34
ENDBRANCH   3  32
BRANCH   1  38
HETATM   38  C2  UNL     1      -5.249   2.921  14.256  1.00  0.00    -0.003 C
HETATM   39  C1  UNL     1      -4.408   2.114  14.865  1.00  0.00     0.009 C
ENDBRANCH   1  38
TORSDOF 18
ENDMDL