MODEL 1
REMARK VINA RESULT: -7.314541619      0.000      0.000
REMARK  16 active torsions:
REMARK  status: ('A' for Active; 'I' for Inactive)
REMARK    1  A    between atoms: C2_2  and  C3_3
REMARK    2  A    between atoms: C3_3  and  C4_4
REMARK    3  A    between atoms: C4_4  and  O2_6
REMARK    4  A    between atoms: O2_6  and  C5_7
REMARK    5  A    between atoms: C6_8  and  O3_9
REMARK    6  A    between atoms: O3_9  and  C7_10
REMARK    7  A    between atoms: C8_11  and  O4_12
REMARK    8  A    between atoms: O4_12  and  C9_13
REMARK    9  A    between atoms: C12_17  and  O6_18
REMARK   10  A    between atoms: O6_18  and  C13_19
REMARK   11  A    between atoms: C15_22  and  S1_23
REMARK   12  A    between atoms: S1_23  and  C16_24
REMARK   13  A    between atoms: C16_24  and  C17_25
REMARK   14  A    between atoms: C19_28  and  C20_29
REMARK   15  A    between atoms: C20_29  and  O9_30
REMARK   16  A    between atoms: C21_32  and  O10_33
ROOT
HETATM    1  C7  UNL     1      -2.848   4.402  14.094  1.00  0.00     0.170 C
HETATM    2  C8  UNL     1      -3.693   5.439  13.482  1.00  0.00     0.164 C
HETATM    3  C11 UNL     1      -2.725   6.315  12.679  1.00  0.00     0.069 C
HETATM    4  C12 UNL     1      -1.342   5.724  13.006  1.00  0.00     0.150 C
HETATM    5  C15 UNL     1      -1.730   4.255  13.034  1.00  0.00     0.108 C
ENDROOT
BRANCH   1   6
HETATM    6  O3  UNL     1      -3.384   3.207  14.425  1.00  0.00    -0.349 OA
BRANCH   6   7
HETATM    7  C6  UNL     1      -4.597   2.827  13.972  1.00  0.00     0.293 C
HETATM    8  C5  UNL     1      -4.601   1.360  13.647  1.00  0.00     0.218 C
HETATM    9  C21 UNL     1      -4.215   0.785  14.994  1.00  0.00     0.183 C
HETATM   10  C19 UNL     1      -4.900   1.788  15.917  1.00  0.00     0.179 C
HETATM   11  O8  UNL     1      -5.508   2.744  15.103  1.00  0.00    -0.348 OA
BRANCH   8  12
HETATM   12  O2  UNL     1      -3.742   1.091  12.596  1.00  0.00    -0.308 OA
BRANCH  12  13
HETATM   13  C4  UNL     1      -4.184   0.497  11.407  1.00  0.00     0.262 C
HETATM   14  O1  UNL     1      -5.240   1.000  10.935  1.00  0.00    -0.265 OA
BRANCH  13  15
HETATM   15  C3  UNL     1      -3.519  -0.618  10.720  1.00  0.00     0.137 C
BRANCH  15  16
HETATM   16  C2  UNL     1      -3.604  -1.831  11.557  1.00  0.00    -0.027 C
HETATM   17  C1  UNL     1      -2.991  -2.952  11.204  1.00  0.00     0.007 C
ENDBRANCH  15  16
ENDBRANCH  13  15
ENDBRANCH  12  13
ENDBRANCH   8  12
BRANCH   9  18
HETATM   18  O10 UNL     1      -4.793  -0.450  15.243  1.00  0.00    -0.390 OA
ATOM     19  H10 UNL     1      -4.327  -0.953  15.900  1.00  0.00     0.210 HD
ENDBRANCH   9  18
BRANCH  10  20
HETATM   20  C20 UNL     1      -6.008   1.134  16.721  1.00  0.00     0.198 C
BRANCH  20  21
HETATM   21  O9  UNL     1      -5.399   0.399  17.736  1.00  0.00    -0.398 OA
ATOM     22  H9  UNL     1      -5.690   0.769  18.561  1.00  0.00     0.209 HD
ENDBRANCH  20  21
ENDBRANCH  10  20
ENDBRANCH   6   7
ENDBRANCH   1   6
BRANCH   2  23
HETATM   23  O4  UNL     1      -4.313   6.227  14.488  1.00  0.00    -0.314 OA
BRANCH  23  24
HETATM   24  C9  UNL     1      -5.717   6.298  14.574  1.00  0.00     0.255 C
HETATM   25  C10 UNL     1      -6.609   6.234  13.405  1.00  0.00     0.126 C
HETATM   26  O5  UNL     1      -6.171   6.422  15.759  1.00  0.00    -0.266 OA
ENDBRANCH  23  24
ENDBRANCH   2  23
BRANCH   5  27
HETATM   27  S1  UNL     1      -2.420   3.881  11.422  1.00  0.00    -0.159 SA
BRANCH  27  28
HETATM   28  C16 UNL     1      -1.357   2.734  10.524  1.00  0.00     0.074 C
BRANCH  28  29
HETATM   29  C17 UNL     1      -0.790   3.345   9.248  1.00  0.00     0.006 C
HETATM   30  C18 UNL     1       0.666   3.688   9.595  1.00  0.00     0.006 C
ENDBRANCH  28  29
ENDBRANCH  27  28
ENDBRANCH   5  27
BRANCH   4  31
HETATM   31  O6  UNL     1      -0.402   5.947  12.015  1.00  0.00    -0.315 OA
BRANCH  31  32
HETATM   32  C13 UNL     1       0.641   6.867  12.148  1.00  0.00     0.255 C
HETATM   33  C14 UNL     1       2.016   6.486  11.731  1.00  0.00     0.126 C
HETATM   34  O7  UNL     1       0.375   8.008  12.626  1.00  0.00    -0.266 OA
ENDBRANCH  31  32
ENDBRANCH   4  31
TORSDOF 16
ENDMDL