MODEL 3
REMARK VINA RESULT: -7.008046739      1.957      4.583
REMARK  16 active torsions:
REMARK  status: ('A' for Active; 'I' for Inactive)
REMARK    1  A    between atoms: O1_2  and  C2_3
REMARK    2  A    between atoms: C2_3  and  C5_6
REMARK    3  A    between atoms: C6_7  and  C7_8
REMARK    4  A    between atoms: C7_8  and  C8_10
REMARK    5  A    between atoms: C8_10  and  O3_11
REMARK    6  A    between atoms: C8_10  and  C11_15
REMARK    7  A    between atoms: O3_11  and  C9_12
REMARK    8  A    between atoms: C11_15  and  C12_16
REMARK    9  A    between atoms: C11_15  and  O6_19
REMARK   10  A    between atoms: C12_16  and  O5_17
REMARK   11  A    between atoms: O6_19  and  C13_20
REMARK   12  A    between atoms: C14_21  and  O7_22
REMARK   13  A    between atoms: O7_22  and  C15_23
REMARK   14  A    between atoms: C18_29  and  O11_30
REMARK   15  A    between atoms: C19_32  and  O12_33
REMARK   16  A    between atoms: O12_33  and  C20_34
ROOT
HETATM    1  C11 UNL     1      -5.442   5.344  13.369  1.00  0.00     0.183 C
ENDROOT
BRANCH   1   2
HETATM    2  C8  UNL     1      -5.522   6.430  12.370  1.00  0.00     0.236 C
BRANCH   2   3
HETATM    3  C7  UNL     1      -6.753   7.172  12.206  1.00  0.00     0.181 C
HETATM    4  O2  UNL     1      -7.731   7.143  12.997  1.00  0.00    -0.290 OA
BRANCH   3   5
HETATM    5  C6  UNL     1      -6.942   8.048  11.037  1.00  0.00     0.052 C
HETATM    6  C5  UNL     1      -6.867   7.591   9.803  1.00  0.00     0.014 C
BRANCH   6   7
HETATM    7  C2  UNL     1      -7.043   8.393   8.600  1.00  0.00     0.071 C
HETATM    8  C3  UNL     1      -6.443   9.775   8.902  1.00  0.00     0.050 C
HETATM    9  C4  UNL     1      -8.464   8.609   8.189  1.00  0.00     0.050 C
BRANCH   7  10
HETATM   10  O1  UNL     1      -6.340   7.859   7.516  1.00  0.00    -0.382 OA
HETATM   11  C1  UNL     1      -6.595   6.512   7.389  1.00  0.00     0.202 C
ENDBRANCH   7  10
ENDBRANCH   6   7
ENDBRANCH   3   5
ENDBRANCH   2   3
BRANCH   2  12
HETATM   12  O3  UNL     1      -4.391   7.313  12.537  1.00  0.00    -0.305 OA
BRANCH  12  13
HETATM   13  C9  UNL     1      -3.572   7.693  11.497  1.00  0.00     0.255 C
HETATM   14  C10 UNL     1      -2.860   9.024  11.511  1.00  0.00     0.126 C
HETATM   15  O4  UNL     1      -3.436   6.883  10.531  1.00  0.00    -0.266 OA
ENDBRANCH  12  13
ENDBRANCH   2  12
ENDBRANCH   1   2
BRANCH   1  16
HETATM   16  C12 UNL     1      -4.352   5.765  14.426  1.00  0.00     0.199 C
BRANCH  16  17
HETATM   17  O5  UNL     1      -4.836   6.761  15.250  1.00  0.00    -0.398 OA
ATOM     18  H5  UNL     1      -4.501   6.655  16.132  1.00  0.00     0.209 HD
ENDBRANCH  16  17
ENDBRANCH   1  16
BRANCH   1  19
HETATM   19  O6  UNL     1      -5.117   4.133  12.844  1.00  0.00    -0.368 OA
BRANCH  19  20
HETATM   20  C13 UNL     1      -3.951   3.549  13.264  1.00  0.00     0.210 C
HETATM   21  C14 UNL     1      -4.144   2.159  13.904  1.00  0.00     0.310 C
HETATM   22  O9  UNL     1      -4.891   1.320  13.045  1.00  0.00    -0.284 OA
HETATM   23  C17 UNL     1      -4.617   1.529  11.677  1.00  0.00     0.292 C
HETATM   24  O10 UNL     1      -5.484   1.309  10.823  1.00  0.00    -0.262 OA
HETATM   25  C18 UNL     1      -3.230   2.020  11.419  1.00  0.00     0.249 C
HETATM   26  C19 UNL     1      -3.050   3.383  12.057  1.00  0.00     0.194 C
BRANCH  21  27
HETATM   27  O7  UNL     1      -4.783   2.219  15.148  1.00  0.00    -0.287 OA
BRANCH  27  28
HETATM   28  C15 UNL     1      -4.720   1.193  16.108  1.00  0.00     0.257 C
HETATM   29  C16 UNL     1      -5.825   0.909  17.040  1.00  0.00     0.126 C
HETATM   30  O8  UNL     1      -3.670   0.522  16.139  1.00  0.00    -0.266 OA
ENDBRANCH  27  28
ENDBRANCH  21  27
BRANCH  25  31
HETATM   31  O11 UNL     1      -2.282   1.104  11.793  1.00  0.00    -0.383 OA
ATOM     32  H11 UNL     1      -1.443   1.512  11.973  1.00  0.00     0.210 HD
ENDBRANCH  25  31
BRANCH  26  33
HETATM   33  O12 UNL     1      -1.698   3.485  12.373  1.00  0.00    -0.376 OA
BRANCH  33  34
HETATM   34  C20 UNL     1      -1.070   4.512  11.712  1.00  0.00     0.114 C
HETATM   35  C21 UNL     1       0.200   4.011  11.015  1.00  0.00     0.039 C
HETATM   36  C22 UNL     1      -0.665   5.669  12.566  1.00  0.00     0.039 C
ENDBRANCH  33  34
ENDBRANCH  26  33
ENDBRANCH  19  20
ENDBRANCH   1  19
TORSDOF 16
ENDMDL