MODEL 5
REMARK VINA RESULT: -6.488176358      2.195      3.092
REMARK  15 active torsions:
REMARK  status: ('A' for Active; 'I' for Inactive)
REMARK    1  A    between atoms: O1_2  and  C2_3
REMARK    2  A    between atoms: C2_3  and  O2_4
REMARK    3  A    between atoms: O2_4  and  C3_5
REMARK    4  A    between atoms: C3_5  and  C4_6
REMARK    5  A    between atoms: C3_5  and  O4_13
REMARK    6  A    between atoms: C4_6  and  C5_7
REMARK    7  A    between atoms: C5_7  and  C6_9
REMARK    8  A    between atoms: O4_13  and  C10_14
REMARK    9  A    between atoms: C11_15  and  O5_16
REMARK   10  A    between atoms: C15_23  and  O8_24
REMARK   11  A    between atoms: O8_24  and  C16_25
REMARK   12  A    between atoms: C18_28  and  O10_29
REMARK   13  A    between atoms: O10_29  and  C19_30
REMARK   14  A    between atoms: C19_30  and  C20_31
REMARK   15  A    between atoms: C20_31  and  S1_32
ROOT
HETATM    1  C10 UNL     1      -2.440   5.086  11.705  1.00  0.00     0.187 C
HETATM    2  C11 UNL     1      -1.171   4.462  12.188  1.00  0.00     0.181 C
HETATM    3  C12 UNL     1      -0.490   3.489  11.302  1.00  0.00     0.187 C
HETATM    4  O6  UNL     1       0.372   4.185  10.457  1.00  0.00    -0.356 OA
HETATM    5  C13 UNL     1       0.306   3.527   9.232  1.00  0.00     0.339 C
HETATM    6  O7  UNL     1      -0.939   2.982   9.128  1.00  0.00    -0.356 OA
HETATM    7  C14 UNL     1      -1.304   2.658  10.413  1.00  0.00     0.188 C
HETATM    8  C15 UNL     1      -2.802   2.827  10.626  1.00  0.00     0.195 C
HETATM    9  C18 UNL     1      -3.155   4.302  10.645  1.00  0.00     0.185 C
ENDROOT
BRANCH   1  10
HETATM   10  O4  UNL     1      -3.247   5.215  12.841  1.00  0.00    -0.350 OA
BRANCH  10  11
HETATM   11  C3  UNL     1      -4.657   5.222  12.474  1.00  0.00     0.270 C
BRANCH  11  12
HETATM   12  O2  UNL     1      -5.178   4.202  13.190  1.00  0.00    -0.337 OA
BRANCH  12  13
HETATM   13  C2  UNL     1      -4.745   3.939  14.441  1.00  0.00     0.340 C
BRANCH  13  14
HETATM   14  O1  UNL     1      -3.986   2.809  14.564  1.00  0.00    -0.372 OA
HETATM   15  C1  UNL     1      -4.640   1.757  15.164  1.00  0.00     0.204 C
ENDBRANCH  13  14
ENDBRANCH  12  13
ENDBRANCH  11  12
BRANCH  11  16
HETATM   16  C4  UNL     1      -5.209   6.540  12.822  1.00  0.00     0.140 C
BRANCH  16  17
HETATM   17  C5  UNL     1      -5.033   7.624  11.841  1.00  0.00     0.139 C
HETATM   18  O3  UNL     1      -4.023   8.243  11.712  1.00  0.00    -0.297 OA
BRANCH  17  19
HETATM   19  C6  UNL     1      -6.172   8.008  10.926  1.00  0.00     0.010 C
HETATM   20  C7  UNL     1      -6.013   9.462  10.571  1.00  0.00     0.022 C
HETATM   21  C8  UNL     1      -7.494   7.905  11.697  1.00  0.00     0.022 C
HETATM   22  C9  UNL     1      -6.279   7.105   9.740  1.00  0.00     0.022 C
ENDBRANCH  17  19
ENDBRANCH  16  17
ENDBRANCH  11  16
ENDBRANCH  10  11
ENDBRANCH   1  10
BRANCH   2  23
HETATM   23  O5  UNL     1      -1.301   3.949  13.512  1.00  0.00    -0.390 OA
ATOM     24  H5  UNL     1      -0.457   3.836  13.932  1.00  0.00     0.210 HD
ENDBRANCH   2  23
BRANCH   9  25
HETATM   25  O10 UNL     1      -2.742   4.849   9.398  1.00  0.00    -0.380 OA
BRANCH  25  26
HETATM   26  C19 UNL     1      -2.490   6.197   9.470  1.00  0.00     0.178 C
BRANCH  26  27
HETATM   27  C20 UNL     1      -1.660   6.678   8.304  1.00  0.00     0.099 C
BRANCH  27  28
HETATM   28  S1  UNL     1      -0.108   7.453   8.797  1.00  0.00    -0.171 SA
HETATM   29  C21 UNL     1      -0.180   7.757  10.587  1.00  0.00     0.089 C
ENDBRANCH  27  28
ENDBRANCH  26  27
ENDBRANCH  25  26
ENDBRANCH   9  25
BRANCH   8  30
HETATM   30  O8  UNL     1      -3.357   2.051  11.617  1.00  0.00    -0.311 OA
BRANCH  30  31
HETATM   31  C16 UNL     1      -4.373   1.137  11.432  1.00  0.00     0.255 C
HETATM   32  C17 UNL     1      -4.268  -0.316  11.574  1.00  0.00     0.126 C
HETATM   33  O9  UNL     1      -5.481   1.643  11.111  1.00  0.00    -0.266 OA
ENDBRANCH  30  31
ENDBRANCH   8  30
TORSDOF 15
ENDMDL