MODEL 1
REMARK VINA RESULT: -7.504947636      0.000      0.000
REMARK  15 active torsions:
REMARK  status: ('A' for Active; 'I' for Inactive)
REMARK    1  A    between atoms: C2_2  and  O2_4
REMARK    2  A    between atoms: O2_4  and  C3_5
REMARK    3  A    between atoms: C3_5  and  C4_6
REMARK    4  A    between atoms: C5_8  and  C6_9
REMARK    5  A    between atoms: C6_9  and  C7_10
REMARK    6  A    between atoms: C8_11  and  C10_13
REMARK    7  A    between atoms: C10_13  and  C12_15
REMARK    8  A    between atoms: C12_15  and  O4_16
REMARK    9  A    between atoms: C12_15  and  C13_18
REMARK   10  A    between atoms: C14_21  and  O7_22
REMARK   11  A    between atoms: O7_22  and  C15_23
REMARK   12  A    between atoms: C17_26  and  O9_27
REMARK   13  A    between atoms: O9_27  and  C18_28
REMARK   14  A    between atoms: C20_31  and  O11_32
REMARK   15  A    between atoms: O11_32  and  C21_33
ROOT
HETATM    1  C4  UNL     1      -0.980   3.030  11.107  1.00  0.00     0.178 C
HETATM    2  O3  UNL     1      -1.786   3.404  12.215  1.00  0.00    -0.373 OA
HETATM    3  C5  UNL     1      -1.655   4.713  12.579  1.00  0.00     0.158 C
HETATM    4  C14 UNL     1      -2.337   5.535  11.493  1.00  0.00     0.193 C
HETATM    5  C17 UNL     1      -1.860   5.159  10.116  1.00  0.00     0.196 C
HETATM    6  C20 UNL     1      -0.752   4.119  10.177  1.00  0.00     0.195 C
ENDROOT
BRANCH   3   7
HETATM    7  C6  UNL     1      -2.520   4.914  13.828  1.00  0.00     0.062 C
BRANCH   7   8
HETATM    8  C7  UNL     1      -3.053   3.596  14.277  1.00  0.00    -0.021 C
HETATM    9  C8  UNL     1      -4.326   3.332  14.404  1.00  0.00    -0.081 C
HETATM   10  C9  UNL     1      -5.283   4.452  14.069  1.00  0.00     0.043 C
BRANCH   9  11
HETATM   11  C10 UNL     1      -4.927   2.058  14.835  1.00  0.00     0.049 C
HETATM   12  C11 UNL     1      -4.572   0.910  13.911  1.00  0.00     0.018 C
BRANCH  11  13
HETATM   13  C12 UNL     1      -4.639   1.657  16.240  1.00  0.00     0.226 C
BRANCH  13  14
HETATM   14  O4  UNL     1      -3.530   0.823  16.343  1.00  0.00    -0.384 OA
ATOM     15  H4  UNL     1      -3.481   0.381  17.183  1.00  0.00     0.210 HD
ENDBRANCH  13  14
BRANCH  13  16
HETATM   16  C13 UNL     1      -5.842   0.993  16.832  1.00  0.00     0.203 C
HETATM   17  O5  UNL     1      -6.941   1.589  16.849  1.00  0.00    -0.646 OA
HETATM   18  O6  UNL     1      -5.750  -0.276  17.364  1.00  0.00    -0.646 OA
ENDBRANCH  13  16
ENDBRANCH  11  13
ENDBRANCH   9  11
ENDBRANCH   7   8
ENDBRANCH   3   7
BRANCH   4  19
HETATM   19  O7  UNL     1      -2.132   6.921  11.699  1.00  0.00    -0.311 OA
BRANCH  19  20
HETATM   20  C15 UNL     1      -3.209   7.791  11.645  1.00  0.00     0.255 C
HETATM   21  C16 UNL     1      -4.614   7.346  11.841  1.00  0.00     0.126 C
HETATM   22  O8  UNL     1      -3.020   9.015  11.421  1.00  0.00    -0.266 OA
ENDBRANCH  19  20
ENDBRANCH   4  19
BRANCH   1  23
HETATM   23  C3  UNL     1      -1.601   1.771  10.621  1.00  0.00     0.213 C
BRANCH  23  24
HETATM   24  O2  UNL     1      -2.905   1.514  10.592  1.00  0.00    -0.319 OA
BRANCH  24  25
HETATM   25  C2  UNL     1      -3.673   0.441  10.489  1.00  0.00     0.254 C
HETATM   26  C1  UNL     1      -3.262  -0.950  10.930  1.00  0.00     0.126 C
HETATM   27  O1  UNL     1      -4.814   0.511  10.007  1.00  0.00    -0.266 OA
ENDBRANCH  24  25
ENDBRANCH  23  24
ENDBRANCH   1  23
BRANCH   5  28
HETATM   28  O9  UNL     1      -2.980   4.688   9.409  1.00  0.00    -0.311 OA
BRANCH  28  29
HETATM   29  C18 UNL     1      -3.378   5.231   8.202  1.00  0.00     0.255 C
HETATM   30  C19 UNL     1      -4.293   6.367   8.190  1.00  0.00     0.126 C
HETATM   31  O10 UNL     1      -2.916   4.697   7.167  1.00  0.00    -0.266 OA
ENDBRANCH  28  29
ENDBRANCH   5  28
BRANCH   6  32
HETATM   32  O11 UNL     1       0.475   4.814  10.591  1.00  0.00    -0.311 OA
BRANCH  32  33
HETATM   33  C21 UNL     1       1.722   4.380  10.272  1.00  0.00     0.255 C
HETATM   34  C22 UNL     1       2.060   3.846   8.927  1.00  0.00     0.126 C
HETATM   35  O12 UNL     1       2.629   4.423  11.119  1.00  0.00    -0.266 OA
ENDBRANCH  32  33
ENDBRANCH   6  32
TORSDOF 15
ENDMDL