MODEL 4
REMARK VINA RESULT: -6.947575909      1.621      2.198
REMARK  15 active torsions:
REMARK  status: ('A' for Active; 'I' for Inactive)
REMARK    1  A    between atoms: C2_2  and  C3_3
REMARK    2  A    between atoms: C3_3  and  C4_4
REMARK    3  A    between atoms: C4_4  and  C5_5
REMARK    4  A    between atoms: C5_5  and  C6_6
REMARK    5  A    between atoms: C6_6  and  C7_7
REMARK    6  A    between atoms: C7_7  and  C8_8
REMARK    7  A    between atoms: C8_8  and  O2_10
REMARK    8  A    between atoms: O2_10  and  C9_11
REMARK    9  A    between atoms: C10_12  and  O3_13
REMARK   10  A    between atoms: C16_23  and  C17_24
REMARK   11  A    between atoms: C17_24  and  O8_25
REMARK   12  A    between atoms: C17_24  and  C18_27
REMARK   13  A    between atoms: C18_27  and  O9_28
REMARK   14  A    between atoms: C19_30  and  O10_31
REMARK   15  A    between atoms: C21_33  and  O11_35
ROOT
HETATM    1  C9  UNL     1      -4.399   2.883  11.380  1.00  0.00     0.218 C
HETATM    2  C10 UNL     1      -3.595   1.578  11.592  1.00  0.00     0.291 C
HETATM    3  O4  UNL     1      -2.456   2.003  12.222  1.00  0.00    -0.348 OA
HETATM    4  C12 UNL     1      -2.206   3.323  11.939  1.00  0.00     0.180 C
HETATM    5  C13 UNL     1      -0.865   3.489  11.263  1.00  0.00     0.208 C
HETATM    6  O5  UNL     1      -0.996   4.540  10.359  1.00  0.00    -0.328 OA
HETATM    7  C14 UNL     1      -1.766   4.063   9.287  1.00  0.00     0.318 C
HETATM    8  O6  UNL     1      -2.895   3.406   9.709  1.00  0.00    -0.319 OA
HETATM    9  C15 UNL     1      -3.307   3.782  11.013  1.00  0.00     0.193 C
HETATM   10  O7  UNL     1      -1.024   3.164   8.526  1.00  0.00    -0.319 OA
HETATM   11  C16 UNL     1      -0.449   3.854   7.471  1.00  0.00     0.190 C
HETATM   12  C19 UNL     1      -1.426   4.900   7.116  1.00  0.00     0.194 C
HETATM   13  C21 UNL     1      -2.099   5.238   8.417  1.00  0.00     0.166 C
HETATM   14  C22 UNL     1      -1.576   6.545   8.928  1.00  0.00     0.057 C
ENDROOT
BRANCH  13  15
HETATM   15  O11 UNL     1      -3.494   5.348   8.224  1.00  0.00    -0.379 OA
ATOM     16  H11 UNL     1      -3.942   5.497   9.048  1.00  0.00     0.211 HD
ENDBRANCH  13  15
BRANCH  11  17
HETATM   17  C17 UNL     1       0.912   4.293   7.888  1.00  0.00     0.173 C
BRANCH  17  18
HETATM   18  O8  UNL     1       1.347   3.344   8.850  1.00  0.00    -0.391 OA
ATOM     19  H8  UNL     1       2.222   3.088   8.584  1.00  0.00     0.210 HD
ENDBRANCH  17  18
BRANCH  17  20
HETATM   20  C18 UNL     1       1.957   4.219   6.794  1.00  0.00     0.198 C
BRANCH  20  21
HETATM   21  O9  UNL     1       1.637   3.210   5.912  1.00  0.00    -0.398 OA
ATOM     22  H9  UNL     1       2.300   3.155   5.233  1.00  0.00     0.209 HD
ENDBRANCH  20  21
ENDBRANCH  17  20
ENDBRANCH  11  17
BRANCH  12  23
HETATM   23  O10 UNL     1      -0.979   5.984   6.420  1.00  0.00    -0.385 OA
HETATM   24  C20 UNL     1      -1.162   5.862   5.030  1.00  0.00     0.202 C
ENDBRANCH  12  23
BRANCH   1  25
HETATM   25  O2  UNL     1      -5.145   3.061  12.488  1.00  0.00    -0.308 OA
BRANCH  25  26
HETATM   26  C8  UNL     1      -5.024   3.916  13.543  1.00  0.00     0.259 C
HETATM   27  O1  UNL     1      -4.467   3.417  14.549  1.00  0.00    -0.265 OA
BRANCH  26  28
HETATM   28  C7  UNL     1      -5.493   5.330  13.549  1.00  0.00     0.111 C
BRANCH  28  29
HETATM   29  C6  UNL     1      -4.305   6.202  13.985  1.00  0.00     0.010 C
BRANCH  29  30
HETATM   30  C5  UNL     1      -3.772   7.039  12.874  1.00  0.00     0.000 C
BRANCH  30  31
HETATM   31  C4  UNL     1      -4.844   7.074  11.790  1.00  0.00     0.000 C
BRANCH  31  32
HETATM   32  C3  UNL     1      -4.777   8.447  11.171  1.00  0.00    -0.000 C
BRANCH  32  33
HETATM   33  C2  UNL     1      -6.171   8.936  10.768  1.00  0.00    -0.005 C
HETATM   34  C1  UNL     1      -7.192   8.053  11.432  1.00  0.00     0.005 C
ENDBRANCH  32  33
ENDBRANCH  31  32
ENDBRANCH  30  31
ENDBRANCH  29  30
ENDBRANCH  28  29
ENDBRANCH  26  28
ENDBRANCH  25  26
ENDBRANCH   1  25
BRANCH   2  35
HETATM   35  O3  UNL     1      -3.349   0.984  10.372  1.00  0.00    -0.363 OA
HETATM   36  C11 UNL     1      -3.298  -0.384  10.537  1.00  0.00     0.204 C
ENDBRANCH   2  35
TORSDOF 15
ENDMDL