MODEL 3
REMARK VINA RESULT: -7.274447289      2.399      3.616
REMARK  18 active torsions:
REMARK  status: ('A' for Active; 'I' for Inactive)
REMARK    1  A    between atoms: C2_2  and  O2_4
REMARK    2  A    between atoms: O2_4  and  C3_5
REMARK    3  A    between atoms: C3_5  and  C4_6
REMARK    4  A    between atoms: C5_8  and  O4_9
REMARK    5  A    between atoms: O4_9  and  C6_10
REMARK    6  A    between atoms: C6_10  and  C7_11
REMARK    7  A    between atoms: C7_11  and  C8_12
REMARK    8  A    between atoms: C7_11  and  O7_19
REMARK    9  A    between atoms: C8_12  and  O5_13
REMARK   10  A    between atoms: O5_13  and  C9_14
REMARK   11  A    between atoms: C9_14  and  C11_16
REMARK   12  A    between atoms: C11_16  and  O6_17
REMARK   13  A    between atoms: O7_19  and  C12_20
REMARK   14  A    between atoms: C12_20  and  C13_24
REMARK   15  A    between atoms: C17_28  and  O8_29
REMARK   16  A    between atoms: O8_29  and  C18_30
REMARK   17  A    between atoms: C20_33  and  O10_34
REMARK   18  A    between atoms: O10_34  and  C21_35
ROOT
HETATM    1  O4  UNL     1      -3.622   5.706  13.910  1.00  0.00    -0.356 OA
ENDROOT
BRANCH   1   2
HETATM    2  C5  UNL     1      -4.236   4.501  13.844  1.00  0.00     0.292 C
HETATM    3  O3  UNL     1      -3.947   3.641  14.903  1.00  0.00    -0.348 OA
HETATM    4  C4  UNL     1      -4.726   2.513  14.554  1.00  0.00     0.181 C
HETATM    5  C20 UNL     1      -4.659   2.366  13.071  1.00  0.00     0.197 C
HETATM    6  C17 UNL     1      -3.855   3.622  12.677  1.00  0.00     0.219 C
BRANCH   4   7
HETATM    7  C3  UNL     1      -4.227   1.281  15.282  1.00  0.00     0.213 C
BRANCH   7   8
HETATM    8  O2  UNL     1      -4.667   1.334  16.608  1.00  0.00    -0.319 OA
BRANCH   8   9
HETATM    9  C2  UNL     1      -5.807   0.703  17.076  1.00  0.00     0.254 C
HETATM   10  C1  UNL     1      -7.083   1.455  17.064  1.00  0.00     0.126 C
HETATM   11  O1  UNL     1      -5.714  -0.476  17.490  1.00  0.00    -0.266 OA
ENDBRANCH   8   9
ENDBRANCH   7   8
ENDBRANCH   4   7
BRANCH   5  12
HETATM   12  O10 UNL     1      -3.946   1.249  12.633  1.00  0.00    -0.311 OA
BRANCH  12  13
HETATM   13  C21 UNL     1      -4.411   0.399  11.650  1.00  0.00     0.255 C
HETATM   14  C22 UNL     1      -3.959  -1.031  11.550  1.00  0.00     0.126 C
HETATM   15  O11 UNL     1      -5.235   0.857  10.825  1.00  0.00    -0.266 OA
ENDBRANCH  12  13
ENDBRANCH   5  12
BRANCH   6  16
HETATM   16  O8  UNL     1      -2.503   3.232  12.802  1.00  0.00    -0.308 OA
BRANCH  16  17
HETATM   17  C18 UNL     1      -1.563   3.572  11.869  1.00  0.00     0.255 C
HETATM   18  C19 UNL     1      -1.201   2.590  10.824  1.00  0.00     0.126 C
HETATM   19  O9  UNL     1      -1.045   4.714  11.943  1.00  0.00    -0.266 OA
ENDBRANCH  16  17
ENDBRANCH   6  16
ENDBRANCH   1   2
BRANCH   1  20
HETATM   20  C6  UNL     1      -4.388   6.776  13.476  1.00  0.00     0.205 C
BRANCH  20  21
HETATM   21  C7  UNL     1      -3.751   7.281  12.174  1.00  0.00     0.177 C
BRANCH  21  22
HETATM   22  C8  UNL     1      -4.766   7.387  11.078  1.00  0.00     0.203 C
BRANCH  22  23
HETATM   23  O5  UNL     1      -5.382   6.195  10.741  1.00  0.00    -0.382 OA
BRANCH  23  24
HETATM   24  C9  UNL     1      -5.294   6.080   9.345  1.00  0.00     0.141 C
HETATM   25  C10 UNL     1      -5.497   7.397   8.641  1.00  0.00     0.042 C
BRANCH  24  26
HETATM   26  C11 UNL     1      -3.912   5.561   8.948  1.00  0.00     0.195 C
BRANCH  26  27
HETATM   27  O6  UNL     1      -3.832   4.175   9.149  1.00  0.00    -0.398 OA
ATOM     28  H6  UNL     1      -3.155   3.798   8.599  1.00  0.00     0.209 HD
ENDBRANCH  26  27
ENDBRANCH  24  26
ENDBRANCH  23  24
ENDBRANCH  22  23
ENDBRANCH  21  22
BRANCH  21  29
HETATM   29  O7  UNL     1      -3.054   8.483  12.430  1.00  0.00    -0.329 OA
BRANCH  29  30
HETATM   30  C12 UNL     1      -1.908   8.481  13.189  1.00  0.00     0.119 C
HETATM   31  N1  UNL     1      -1.060   7.530  12.997  1.00  0.00    -0.383 N
ATOM     32  H12 UNL     1      -1.274   6.823  12.293  1.00  0.00     0.158 HD
ATOM     33  H11 UNL     1      -0.210   7.529  13.560  1.00  0.00     0.158 HD
BRANCH  30  34
HETATM   34  C13 UNL     1      -1.598   9.507  14.211  1.00  0.00     0.013 C
HETATM   35  C14 UNL     1      -2.395   9.290  15.483  1.00  0.00     0.023 C
HETATM   36  C15 UNL     1      -0.141   9.374  14.590  1.00  0.00     0.023 C
HETATM   37  C16 UNL     1      -1.870  10.898  13.740  1.00  0.00     0.023 C
ENDBRANCH  30  34
ENDBRANCH  29  30
ENDBRANCH  21  29
ENDBRANCH  20  21
ENDBRANCH   1  20
TORSDOF 18
ENDMDL