MODEL 2
REMARK VINA RESULT: -9.448858389      0.083      1.038
REMARK  4 active torsions:
REMARK  status: ('A' for Active; 'I' for Inactive)
REMARK    1  A    between atoms: C3_10  and  N4_11
REMARK    2  A    between atoms: N4_11  and  N5_13
REMARK    3  A    between atoms: N5_13  and  C4_15
REMARK    4  A    between atoms: C5_20  and  C6_21
ROOT
HETATM    1  C4  UNL     1      27.188  24.388 107.899  1.00  0.00     0.726 A
HETATM    2  N6  UNL     1      26.858  23.228 107.290  1.00  0.00    -0.128 N
ATOM      3  H6  UNL     1      26.291  22.529 107.769  1.00  0.00     0.205 HD
HETATM    4  N7  UNL     1      27.293  23.021 106.046  1.00  0.00    -0.268 N
ATOM      5  H7  UNL     1      27.048  22.146 105.582  1.00  0.00     0.189 HD
HETATM    6  C5  UNL     1      28.042  23.916 105.380  1.00  0.00     0.164 A
HETATM    7  N10 UNL     1      28.348  25.053 106.015  1.00  0.00    -0.268 N
ATOM      8  H10 UNL     1      28.915  25.750 105.534  1.00  0.00     0.189 HD
HETATM    9  N11 UNL     1      27.937  25.300 107.253  1.00  0.00    -0.128 N
ATOM     10  H11 UNL     1      28.187  26.176 107.710  1.00  0.00     0.205 HD
ENDROOT
BRANCH   1  11
HETATM   11  N5  UNL     1      26.767  24.602 109.115  1.00  0.00    -0.128 N
ATOM     12  H5  UNL     1      27.161  24.065 109.888  1.00  0.00     0.205 HD
BRANCH  11  13
HETATM   13  N4  UNL     1      25.791  25.553 109.366  1.00  0.00    -0.269 N
ATOM     14  H4  UNL     1      26.000  26.520 109.119  1.00  0.00     0.189 HD
BRANCH  13  15
HETATM   15  C3  UNL     1      24.648  25.310 109.885  1.00  0.00     0.159 A
HETATM   16  C1  UNL     1      23.510  25.053 109.150  1.00  0.00     0.097 A
HETATM   17 CL1  UNL     1      23.611  25.054 107.414  1.00  0.00    -0.079 Cl
HETATM   18  C2  UNL     1      22.323  24.804 109.822  1.00  0.00     0.136 A
HETATM   19  N1  UNL     1      22.315  24.818 111.160  1.00  0.00    -0.296 N
HETATM   20  N2  UNL     1      23.420  25.066 111.836  1.00  0.00    -0.241 N
ATOM     21  H1  UNL     1      21.447  24.636 111.662  1.00  0.00     0.187 HD
HETATM   22  N3  UNL     1      24.553  25.307 111.224  1.00  0.00    -0.268 N
ATOM     23  H2  UNL     1      23.392  25.071 112.855  1.00  0.00     0.208 HD
ATOM     24  H3  UNL     1      25.387  25.496 111.780  1.00  0.00     0.190 HD
ENDBRANCH  13  15
ENDBRANCH  11  13
ENDBRANCH   1  11
BRANCH   6  25
HETATM   25  C6  UNL     1      28.501  23.648 104.010  1.00  0.00     0.096 A
HETATM   26  C7  UNL     1      28.162  24.321 102.856  1.00  0.00     0.053 A
HETATM   27  C8  UNL     1      28.843  23.712 101.799  1.00  0.00     0.109 A
HETATM   28  N8  UNL     1      29.553  22.713 102.353  1.00  0.00    -0.311 N
HETATM   29  N9  UNL     1      29.351  22.674 103.669  1.00  0.00    -0.297 N
ATOM     30  H8  UNL     1      30.161  22.076 101.839  1.00  0.00     0.186 HD
ATOM     31  H9  UNL     1      29.776  22.008 104.314  1.00  0.00     0.187 HD
ENDBRANCH   6  25
TORSDOF 4
ENDMDL