MODEL 5
REMARK VINA RESULT: -8.021567072      1.024      1.456
REMARK  4 active torsions:
REMARK  status: ('A' for Active; 'I' for Inactive)
REMARK    1  A    between atoms: C2_2  and  C3_3
REMARK    2  A    between atoms: C7_10  and  O3_11
REMARK    3  A    between atoms: C8_13  and  N1_14
REMARK    4  A    between atoms: C10_20  and  N4_21
ROOT
HETATM    1  C1  UNL     1      26.535  26.506 103.147  1.00  0.00     0.082 C
HETATM    2  C2  UNL     1      27.632  25.640 103.726  1.00  0.00     0.195 C
HETATM    3  O2  UNL     1      28.758  26.333 104.078  1.00  0.00    -0.318 OA
HETATM    4  C7  UNL     1      28.840  26.371 105.462  1.00  0.00     0.312 C
HETATM    5  C8  UNL     1      27.442  25.984 105.866  1.00  0.00     0.321 C
HETATM    6  O4  UNL     1      27.117  25.052 104.880  1.00  0.00    -0.321 OA
ENDROOT
BRANCH   5   7
HETATM    7  N1  UNL     1      27.442  25.377 107.182  1.00  0.00    -0.088 N
HETATM    8  N2  UNL     1      26.737  25.679 108.258  1.00  0.00    -0.277 N
HETATM    9  C9  UNL     1      27.062  24.848 109.262  1.00  0.00     0.215 A
ATOM     10  H2  UNL     1      26.048  26.430 108.317  1.00  0.00     0.188 HD
HETATM   11  N3  UNL     1      27.996  24.008 108.794  1.00  0.00    -0.185 N
HETATM   12  C10 UNL     1      28.225  24.340 107.512  1.00  0.00     0.696 A
ATOM     13  H3  UNL     1      28.448  23.256 109.315  1.00  0.00     0.185 HD
BRANCH  12  14
HETATM   14  N4  UNL     1      29.080  23.729 106.740  1.00  0.00    -0.233 N
ATOM     15  H42 UNL     1      29.210  22.717 106.718  1.00  0.00     0.174 HD
ATOM     16  H41 UNL     1      29.716  24.161 106.071  1.00  0.00     0.174 HD
ENDBRANCH  12  14
ENDBRANCH   5   7
BRANCH   4  17
HETATM   17  O3  UNL     1      29.208  27.627 105.939  1.00  0.00    -0.367 OA
ATOM     18  H3  UNL     1      29.344  27.633 106.879  1.00  0.00     0.212 HD
ENDBRANCH   4  17
BRANCH   2  19
HETATM   19  C3  UNL     1      28.003  24.604 102.688  1.00  0.00     0.217 C
HETATM   20  O1  UNL     1      29.017  23.782 103.093  1.00  0.00    -0.377 OA
HETATM   21  C4  UNL     1      28.489  22.527 103.354  1.00  0.00     0.171 C
HETATM   22  C5  UNL     1      27.248  22.376 102.540  1.00  0.00     0.066 C
HETATM   23  C6  UNL     1      26.820  23.793 102.310  1.00  0.00     0.206 C
HETATM   24  F1  UNL     1      26.498  23.963 100.960  1.00  0.00    -0.246 F
ENDBRANCH   2  19
TORSDOF 4
ENDMDL