MODEL 1
REMARK VINA RESULT: -8.527942538      0.000      0.000
REMARK  4 active torsions:
REMARK  status: ('A' for Active; 'I' for Inactive)
REMARK    1  A    between atoms: N1_1  and  C1_4
REMARK    2  A    between atoms: C2_7  and  N3_8
REMARK    3  A    between atoms: N4_11  and  C3_12
REMARK    4  A    between atoms: C4_15  and  N6_16
ROOT
HETATM    1  C1  UNL     1      24.792  25.266 110.700  1.00  0.00     0.138 A
HETATM    2  N2  UNL     1      26.113  25.048 110.597  1.00  0.00    -0.175 N
ATOM      3  H2  UNL     1      26.679  25.084 111.444  1.00  0.00     0.186 HD
HETATM    4  C2  UNL     1      26.734  24.780 109.410  1.00  0.00     0.687 A
HETATM    5  N4  UNL     1      26.018  24.725 108.273  1.00  0.00    -0.117 N
HETATM    6  C8  UNL     1      24.695  24.940 108.357  1.00  0.00     0.146 A
HETATM    7  C9  UNL     1      24.050  25.212 109.546  1.00  0.00     0.094 A
HETATM    8 CL1  UNL     1      22.324  25.492 109.643  1.00  0.00    -0.079 Cl
ENDROOT
BRANCH   5   9
HETATM    9  C3  UNL     1      26.662  24.444 107.018  1.00  0.00     0.283 A
HETATM   10  N5  UNL     1      26.865  25.311 105.994  1.00  0.00    -0.150 N
HETATM   11  C4  UNL     1      27.497  24.671 105.000  1.00  0.00     0.705 A
ATOM     12  H5  UNL     1      26.582  26.291 105.983  1.00  0.00     0.188 HD
HETATM   13  N7  UNL     1      27.671  23.418 105.432  1.00  0.00    -0.087 N
HETATM   14  O2  UNL     1      27.170  23.311 106.624  1.00  0.00    -0.184 OA
ATOM     15  H7  UNL     1      28.123  22.668 104.909  1.00  0.00     0.214 HD
BRANCH  11  16
HETATM   16  N6  UNL     1      27.907  25.187 103.744  1.00  0.00    -0.193 N
HETATM   17  C5  UNL     1      27.874  24.504 102.446  1.00  0.00     0.170 C
HETATM   18  C6  UNL     1      28.854  25.345 101.651  1.00  0.00     0.190 C
HETATM   19  O1  UNL     1      29.498  26.173 102.586  1.00  0.00    -0.370 OA
HETATM   20  C7  UNL     1      28.451  26.498 103.446  1.00  0.00     0.311 C
ENDBRANCH  11  16
ENDBRANCH   5   9
BRANCH   4  21
HETATM   21  N3  UNL     1      28.007  24.578 109.370  1.00  0.00    -0.234 N
ATOM     22  H32 UNL     1      28.465  24.095 110.143  1.00  0.00     0.174 HD
ATOM     23  H31 UNL     1      28.557  24.899 108.573  1.00  0.00     0.174 HD
ENDBRANCH   4  21
BRANCH   1  24
HETATM   24  N1  UNL     1      24.277  25.514 111.862  1.00  0.00    -0.384 N
ATOM     25  H12 UNL     1      24.785  25.990 112.607  1.00  0.00     0.157 HD
ATOM     26  H11 UNL     1      23.318  25.227 112.056  1.00  0.00     0.157 HD
ENDBRANCH   1  24
TORSDOF 4
ENDMDL