MODEL 1
REMARK VINA RESULT: -7.623550840      0.000      0.000
REMARK  4 active torsions:
REMARK  status: ('A' for Active; 'I' for Inactive)
REMARK    1  A    between atoms: O1_2  and  C2_3
REMARK    2  A    between atoms: C3_5  and  C4_6
REMARK    3  A    between atoms: C8_14  and  O3_15
REMARK    4  A    between atoms: C9_17  and  O4_18
ROOT
HETATM    1  C4  UNL     1      27.055  24.521 103.113  1.00  0.00     0.239 C
HETATM    2 CL1  UNL     1      25.401  24.985 102.599  1.00  0.00    -0.083 Cl
HETATM    3  C5  UNL     1      27.269  23.094 102.978  1.00  0.00     0.104 C
HETATM    4  N1  UNL     1      27.457  21.962 102.866  1.00  0.00    -0.194 NA
HETATM    5  C6  UNL     1      28.021  25.275 102.304  1.00  0.00     0.104 C
HETATM    6  N2  UNL     1      28.773  25.885 101.666  1.00  0.00    -0.194 NA
ENDROOT
BRANCH   1   7
HETATM    7  C3  UNL     1      27.217  24.928 104.533  1.00  0.00     0.194 C
HETATM    8  O2  UNL     1      28.552  24.968 104.911  1.00  0.00    -0.348 OA
HETATM    9  C2  UNL     1      28.712  25.454 106.196  1.00  0.00     0.290 C
HETATM   10  C9  UNL     1      27.879  24.697 107.208  1.00  0.00     0.203 C
HETATM   11  C8  UNL     1      27.138  23.551 106.585  1.00  0.00     0.168 C
HETATM   12  C7  UNL     1      26.373  24.071 105.411  1.00  0.00     0.123 C
HETATM   13  S1  UNL     1      24.943  25.007 106.055  1.00  0.00    -0.087 SA
BRANCH   9  14
HETATM   14  O1  UNL     1      28.464  26.801 106.310  1.00  0.00    -0.363 OA
HETATM   15  C1  UNL     1      28.838  27.503 105.141  1.00  0.00     0.204 C
ENDBRANCH   9  14
BRANCH  10  16
HETATM   16  O4  UNL     1      28.656  24.181 108.244  1.00  0.00    -0.388 OA
ATOM     17  H4  UNL     1      28.127  23.904 108.983  1.00  0.00     0.210 HD
ENDBRANCH  10  16
BRANCH  11  18
HETATM   18  O3  UNL     1      28.074  22.578 106.252  1.00  0.00    -0.392 OA
ATOM     19  H3  UNL     1      27.974  21.772 106.744  1.00  0.00     0.210 HD
ENDBRANCH  11  18
ENDBRANCH   1   7
TORSDOF 4
ENDMDL