MODEL 4
REMARK VINA RESULT: -6.934140827      3.185      5.044
REMARK  5 active torsions:
REMARK  status: ('A' for Active; 'I' for Inactive)
REMARK    1  A    between atoms: O1_1  and  C1_3
REMARK    2  A    between atoms: C1_3  and  C2_4
REMARK    3  A    between atoms: C3_6  and  O3_7
REMARK    4  A    between atoms: C6_13  and  O5_14
REMARK    5  A    between atoms: C6_13  and  C7_16
ROOT
HETATM    1  C2  UNL     1      27.166  26.115 104.252  1.00  0.00     0.196 C
HETATM    2  O2  UNL     1      25.995  26.118 103.531  1.00  0.00    -0.341 OA
HETATM    3  C3  UNL     1      26.011  25.069 102.637  1.00  0.00     0.326 C
HETATM    4  S1  UNL     1      26.807  23.720 103.601  1.00  0.00    -0.067 SA
HETATM    5  C4  UNL     1      27.213  24.814 105.035  1.00  0.00     0.162 C
HETATM    6  C5  UNL     1      26.074  24.677 105.961  1.00  0.00     0.224 C
HETATM    7  O4  UNL     1      26.353  24.889 107.293  1.00  0.00    -0.348 OA
HETATM    8  C6  UNL     1      27.448  24.082 107.629  1.00  0.00     0.196 C
HETATM    9  C8  UNL     1      28.624  24.641 106.869  1.00  0.00     0.239 C
HETATM   10  O6  UNL     1      28.454  24.559 105.515  1.00  0.00    -0.359 OA
ENDROOT
BRANCH   1  11
HETATM   11  C1  UNL     1      28.354  26.218 103.320  1.00  0.00     0.200 C
BRANCH  11  12
HETATM   12  O1  UNL     1      29.460  26.751 103.968  1.00  0.00    -0.398 OA
ATOM     13  H1  UNL     1      30.252  26.624 103.460  1.00  0.00     0.209 HD
ENDBRANCH  11  12
ENDBRANCH   1  11
BRANCH   3  14
HETATM   14  O3  UNL     1      24.680  24.673 102.439  1.00  0.00    -0.362 OA
ATOM     15  H3  UNL     1      24.278  24.601 103.297  1.00  0.00     0.213 HD
ENDBRANCH   3  14
BRANCH   8  16
HETATM   16  O5  UNL     1      27.214  22.748 107.386  1.00  0.00    -0.363 OA
ATOM     17  H5  UNL     1      28.008  22.227 107.419  1.00  0.00     0.213 HD
ENDBRANCH   8  16
BRANCH   8  18
HETATM   18  C7  UNL     1      27.695  24.295 109.124  1.00  0.00     0.185 C
HETATM   19 CL1  UNL     1      26.454  25.344 109.794  1.00  0.00    -0.125 Cl
ENDBRANCH   8  18
TORSDOF 5
ENDMDL