MODEL 4
REMARK VINA RESULT: -8.600166776      0.567      1.360
REMARK  3 active torsions:
REMARK  status: ('A' for Active; 'I' for Inactive)
REMARK    1  A    between atoms: C2_9  and  C3_10
REMARK    2  A    between atoms: C5_15  and  N6_16
REMARK    3  A    between atoms: C9_25  and  N9_26
ROOT
HETATM    1  C3  UNL     1      27.227  25.000 104.855  1.00  0.00     0.094 A
HETATM    2  C4  UNL     1      25.859  24.916 104.753  1.00  0.00     0.137 A
HETATM    3 CL1  UNL     1      25.130  24.680 103.196  1.00  0.00    -0.063 Cl
HETATM    4  N5  UNL     1      25.067  25.015 105.840  1.00  0.00    -0.180 N
ATOM      5  H5  UNL     1      24.055  24.949 105.732  1.00  0.00     0.185 HD
HETATM    6  C5  UNL     1      25.590  25.198 107.061  1.00  0.00     0.684 A
HETATM    7  N8  UNL     1      26.941  25.284 107.189  1.00  0.00    -0.176 N
ATOM      8  H8  UNL     1      27.348  25.422 108.114  1.00  0.00     0.186 HD
HETATM    9  C9  UNL     1      27.756  25.188 106.111  1.00  0.00     0.132 A
ENDROOT
BRANCH   1  10
HETATM   10  C2  UNL     1      28.143  24.904 103.733  1.00  0.00     0.156 A
HETATM   11  N1  UNL     1      28.560  25.927 102.976  1.00  0.00    -0.263 N
HETATM   12  C1  UNL     1      28.157  27.328 103.154  1.00  0.00     0.181 C
HETATM   13  N2  UNL     1      29.381  25.438 102.061  1.00  0.00    -0.225 N
HETATM   14  N3  UNL     1      29.503  24.133 102.212  1.00  0.00    -0.226 N
ATOM     15  H2  UNL     1      29.852  25.989 101.344  1.00  0.00     0.210 HD
HETATM   16  N4  UNL     1      28.745  23.785 103.238  1.00  0.00    -0.268 N
ATOM     17  H3  UNL     1      30.075  23.509 101.644  1.00  0.00     0.210 HD
ATOM     18  H4  UNL     1      28.630  22.838 103.600  1.00  0.00     0.190 HD
ENDBRANCH   1  10
BRANCH   9  19
HETATM   19  N9  UNL     1      29.046  25.275 106.269  1.00  0.00    -0.384 N
ATOM     20  H92 UNL     1      29.543  24.539 106.770  1.00  0.00     0.157 HD
ATOM     21  H91 UNL     1      29.554  26.075 105.892  1.00  0.00     0.157 HD
ENDBRANCH   9  19
BRANCH   6  22
HETATM   22  N6  UNL     1      24.768  25.304 108.220  1.00  0.00    -0.191 N
HETATM   23  C6  UNL     1      23.355  25.005 108.346  1.00  0.00     0.170 C
HETATM   24  C7  UNL     1      23.121  25.158 109.840  1.00  0.00     0.254 C
HETATM   25  N7  UNL     1      24.034  26.245 110.147  1.00  0.00    -0.057 N
HETATM   26  C8  UNL     1      25.259  25.753 109.508  1.00  0.00     0.374 C
ATOM     27  H72 UNL     1      23.728  27.174 109.858  1.00  0.00     0.279 HD
ATOM     28  H71 UNL     1      24.118  26.486 111.135  1.00  0.00     0.279 HD
ENDBRANCH   6  22
TORSDOF 3
ENDMDL