MODEL 5
REMARK VINA RESULT: -8.362965188      3.149      6.334
REMARK  5 active torsions:
REMARK  status: ('A' for Active; 'I' for Inactive)
REMARK    1  A    between atoms: C3_4  and  O2_5
REMARK    2  A    between atoms: O2_5  and  C4_6
REMARK    3  A    between atoms: C8_12  and  O4_13
REMARK    4  A    between atoms: N1_17  and  O6_19
REMARK    5  A    between atoms: C10_21  and  O7_22
ROOT
HETATM    1  C1  UNL     1      26.331  24.373 101.976  1.00  0.00     0.043 C
HETATM    2  C2  UNL     1      25.861  25.348 103.059  1.00  0.00     0.159 C
HETATM    3  O1  UNL     1      25.489  24.596 104.145  1.00  0.00    -0.331 OA
HETATM    4  C3  UNL     1      25.330  25.312 105.313  1.00  0.00     0.422 C
HETATM    5  O5  UNL     1      26.642  25.747 105.703  1.00  0.00    -0.280 OA
HETATM    6  C9  UNL     1      27.514  26.169 104.690  1.00  0.00     0.174 C
HETATM    7  N1  UNL     1      28.735  26.350 104.995  1.00  0.00    -0.249 N
ATOM      8  H1  UNL     1      29.002  26.175 105.964  1.00  0.00     0.196 HD
HETATM    9  C10 UNL     1      26.927  26.368 103.350  1.00  0.00     0.223 C
ENDROOT
BRANCH   4  10
HETATM   10  O2  UNL     1      24.907  24.436 106.308  1.00  0.00    -0.305 OA
BRANCH  10  11
HETATM   11  C4  UNL     1      24.406  25.096 107.414  1.00  0.00     0.297 C
HETATM   12  O3  UNL     1      23.311  24.501 107.975  1.00  0.00    -0.351 OA
HETATM   13  C5  UNL     1      23.400  24.549 109.336  1.00  0.00     0.157 C
HETATM   14  C6  UNL     1      22.159  25.038 110.029  1.00  0.00     0.042 C
HETATM   15  C7  UNL     1      24.535  25.470 109.709  1.00  0.00     0.232 C
HETATM   16  F1  UNL     1      24.112  26.801 109.755  1.00  0.00    -0.244 F
HETATM   17  C8  UNL     1      25.440  25.307 108.487  1.00  0.00     0.209 C
BRANCH  17  18
HETATM   18  O4  UNL     1      26.230  24.186 108.614  1.00  0.00    -0.388 OA
ATOM     19  H4  UNL     1      27.138  24.402 108.438  1.00  0.00     0.210 HD
ENDBRANCH  17  18
ENDBRANCH  10  11
ENDBRANCH   4  10
BRANCH   9  20
HETATM   20  O7  UNL     1      27.886  26.450 102.351  1.00  0.00    -0.385 OA
ATOM     21  H7  UNL     1      28.651  26.950 102.611  1.00  0.00     0.210 HD
ENDBRANCH   9  20
BRANCH   7  22
HETATM   22  O6  UNL     1      29.713  26.754 104.152  1.00  0.00    -0.288 OA
ATOM     23  H6  UNL     1      30.598  26.998 104.398  1.00  0.00     0.244 HD
ENDBRANCH   7  22
TORSDOF 5
ENDMDL