MODEL 1
REMARK VINA RESULT: -8.635383933      0.000      0.000
REMARK  5 active torsions:
REMARK  status: ('A' for Active; 'I' for Inactive)
REMARK    1  A    between atoms: O1_2  and  C2_3
REMARK    2  A    between atoms: C2_3  and  C3_5
REMARK    3  A    between atoms: C4_8  and  C5_9
REMARK    4  A    between atoms: C7_11  and  N1_12
REMARK    5  A    between atoms: C8_17  and  O5_18
ROOT
HETATM    1  C5  UNL     1      23.983  24.765 108.740  1.00  0.00     0.029 A
HETATM    2  C6  UNL     1      22.652  24.573 109.003  1.00  0.00     0.062 A
HETATM    3  C7  UNL     1      22.100  24.988 110.197  1.00  0.00     0.101 A
HETATM    4  N2  UNL     1      22.913  25.587 111.092  1.00  0.00    -0.322 N
ATOM      5  H2  UNL     1      22.512  25.896 111.978  1.00  0.00     0.169 HD
HETATM    6  C8  UNL     1      24.220  25.796 110.880  1.00  0.00     0.164 A
HETATM    7  C9  UNL     1      24.774  25.382 109.687  1.00  0.00     0.096 A
HETATM    8 CL1  UNL     1      26.465  25.619 109.338  1.00  0.00    -0.079 Cl
ENDROOT
BRANCH   1   9
HETATM    9  C4  UNL     1      24.514  24.300 107.447  1.00  0.00     0.336 C
HETATM   10  O4  UNL     1      25.675  23.575 107.538  1.00  0.00    -0.200 OA
HETATM   11  O3  UNL     1      26.367  23.798 106.434  1.00  0.00    -0.194 OA
HETATM   12  C3  UNL     1      25.625  24.653 105.650  1.00  0.00     0.400 C
HETATM   13  O6  UNL     1      24.921  25.383 106.632  1.00  0.00    -0.312 OA
BRANCH  12  14
HETATM   14  C2  UNL     1      26.458  25.535 104.805  1.00  0.00     0.317 C
HETATM   15  O2  UNL     1      27.502  26.022 105.260  1.00  0.00    -0.260 OA
BRANCH  14  16
HETATM   16  O1  UNL     1      26.096  25.832 103.501  1.00  0.00    -0.323 OA
HETATM   17  C1  UNL     1      25.446  24.933 102.646  1.00  0.00     0.213 C
ENDBRANCH  14  16
ENDBRANCH  12  14
ENDBRANCH   1   9
BRANCH   3  18
HETATM   18  N1  UNL     1      20.835  24.804 110.441  1.00  0.00    -0.385 N
ATOM     19  H12 UNL     1      20.330  24.001 110.064  1.00  0.00     0.157 HD
ATOM     20  H11 UNL     1      20.317  25.465 111.020  1.00  0.00     0.157 HD
ENDBRANCH   3  18
BRANCH   6  21
HETATM   21  O5  UNL     1      25.018  26.418 111.833  1.00  0.00    -0.345 OA
ATOM     22  H5  UNL     1      25.495  27.215 111.635  1.00  0.00     0.219 HD
ENDBRANCH   6  21
TORSDOF 5
ENDMDL