MODEL 5
REMARK VINA RESULT: -7.410371377      1.529      1.861
REMARK  4 active torsions:
REMARK  status: ('A' for Active; 'I' for Inactive)
REMARK    1  A    between atoms: O1_2  and  N1_3
REMARK    2  A    between atoms: N1_3  and  C2_5
REMARK    3  A    between atoms: N2_6  and  O2_7
REMARK    4  A    between atoms: C4_11  and  C5_12
ROOT
HETATM    1  C2  UNL     1      27.908  24.652 104.207  1.00  0.00     0.734 A
HETATM    2  N2  UNL     1      28.224  23.949 105.320  1.00  0.00    -0.038 N
HETATM    3  C3  UNL     1      27.414  23.996 106.375  1.00  0.00     0.164 A
HETATM    4 CL1  UNL     1      27.881  23.059 107.799  1.00  0.00    -0.060 Cl
HETATM    5  C4  UNL     1      26.232  24.754 106.382  1.00  0.00     0.083 A
HETATM    6  C9  UNL     1      25.944  25.450 105.248  1.00  0.00     0.273 A
HETATM    7  O3  UNL     1      24.898  26.165 105.164  1.00  0.00    -0.267 OA
HETATM    8  N4  UNL     1      26.795  25.371 104.201  1.00  0.00    -0.147 N
HETATM    9  C10 UNL     1      26.429  26.123 103.010  1.00  0.00     0.179 C
ENDROOT
BRANCH   5  10
HETATM   10  C5  UNL     1      25.412  24.710 107.569  1.00  0.00     0.227 C
HETATM   11  C6  UNL     1      25.490  25.793 108.567  1.00  0.00     0.040 C
HETATM   12  C7  UNL     1      24.327  25.357 109.501  1.00  0.00     0.030 C
HETATM   13  C8  UNL     1      23.416  24.546 108.597  1.00  0.00     0.233 C
HETATM   14  N3  UNL     1      23.977  24.712 107.270  1.00  0.00    -0.067 N
ATOM     15  H32 UNL     1      23.640  25.521 106.749  1.00  0.00     0.277 HD
ATOM     16  H31 UNL     1      23.673  24.028 106.577  1.00  0.00     0.277 HD
ENDBRANCH   5  10
BRANCH   2  17
HETATM   17  O2  UNL     1      29.391  23.187 105.350  1.00  0.00    -0.268 OA
ATOM     18  H2  UNL     1      30.188  23.557 105.712  1.00  0.00     0.246 HD
ENDBRANCH   2  17
BRANCH   1  19
HETATM   19  N1  UNL     1      28.716  24.588 103.182  1.00  0.00    -0.094 N
ATOM     20  H1  UNL     1      29.118  25.436 102.781  1.00  0.00     0.213 HD
BRANCH  19  21
HETATM   21  O1  UNL     1      29.004  23.379 102.667  1.00  0.00    -0.271 OA
HETATM   22  C1  UNL     1      29.889  23.093 101.607  1.00  0.00     0.238 C
ENDBRANCH  19  21
ENDBRANCH   1  19
TORSDOF 4
ENDMDL