MODEL 4
REMARK VINA RESULT: -7.309663026      3.300      5.204
REMARK  6 active torsions:
REMARK  status: ('A' for Active; 'I' for Inactive)
REMARK    1  A    between atoms: O1_2  and  C2_3
REMARK    2  A    between atoms: C2_3  and  C3_5
REMARK    3  A    between atoms: C4_7  and  C5_8
REMARK    4  A    between atoms: C6_12  and  N2_13
REMARK    5  A    between atoms: C7_19  and  O5_20
REMARK    6  A    between atoms: C8_22  and  O6_23
ROOT
HETATM    1  C3  UNL     1      26.877  25.282 104.369  1.00  0.00     0.187 C
HETATM    2 CL1  UNL     1      25.787  26.270 105.328  1.00  0.00    -0.102 Cl
HETATM    3  C4  UNL     1      28.112  24.853 105.066  1.00  0.00     0.230 C
HETATM    4  O4  UNL     1      28.935  25.947 105.073  1.00  0.00    -0.343 OA
HETATM    5  C7  UNL     1      28.675  26.729 103.983  1.00  0.00     0.289 C
HETATM    6  C8  UNL     1      27.467  26.190 103.277  1.00  0.00     0.209 C
ENDROOT
BRANCH   3   7
HETATM    7  C5  UNL     1      27.924  24.382 106.441  1.00  0.00     0.137 A
HETATM    8  N1  UNL     1      27.373  23.161 106.709  1.00  0.00    -0.242 N
HETATM    9  O3  UNL     1      27.325  23.005 107.976  1.00  0.00    -0.200 OA
ATOM     10  H1  UNL     1      27.053  22.487 106.014  1.00  0.00     0.196 HD
HETATM   11  C6  UNL     1      27.819  24.064 108.571  1.00  0.00     0.242 A
HETATM   12  N3  UNL     1      28.194  24.926 107.620  1.00  0.00    -0.307 N
ATOM     13  H3  UNL     1      28.615  25.842 107.774  1.00  0.00     0.171 HD
BRANCH  11  14
HETATM   14  N2  UNL     1      27.932  24.260 109.843  1.00  0.00    -0.364 N
ATOM     15  H22 UNL     1      28.079  23.531 110.541  1.00  0.00     0.159 HD
ATOM     16  H21 UNL     1      27.894  25.154 110.333  1.00  0.00     0.159 HD
ENDBRANCH  11  14
ENDBRANCH   3   7
BRANCH   1  17
HETATM   17  C2  UNL     1      26.186  24.183 103.649  1.00  0.00     0.288 C
HETATM   18  O2  UNL     1      25.142  24.428 103.014  1.00  0.00    -0.263 OA
BRANCH  17  19
HETATM   19  O1  UNL     1      26.651  22.877 103.651  1.00  0.00    -0.325 OA
HETATM   20  C1  UNL     1      27.365  22.314 102.564  1.00  0.00     0.213 C
ENDBRANCH  17  19
ENDBRANCH   1  17
BRANCH   6  21
HETATM   21  O6  UNL     1      27.801  25.410 102.168  1.00  0.00    -0.388 OA
ATOM     22  H6  UNL     1      28.191  25.965 101.504  1.00  0.00     0.210 HD
ENDBRANCH   6  21
BRANCH   5  23
HETATM   23  O5  UNL     1      29.769  26.805 103.129  1.00  0.00    -0.369 OA
ATOM     24  H5  UNL     1      29.953  27.701 102.870  1.00  0.00     0.212 HD
ENDBRANCH   5  23
TORSDOF 6
ENDMDL