MODEL 3
REMARK VINA RESULT: -3.684986297      1.316      1.830
REMARK  1 active torsions:
REMARK  status: ('A' for Active; 'I' for Inactive)
REMARK    1  A    between atoms: C1_2  and  N1_3
ROOT
HETATM    1  N1  UNL     1      28.749  14.373  16.250  1.00  0.00     0.148 N
HETATM    2  C2  UNL     1      28.539  15.699  16.854  1.00  0.00     0.507 C
HETATM    3  N2  UNL     1      28.414  16.155  15.458  1.00  0.00    -0.022 N
ATOM      4  H21 UNL     1      28.541  17.129  15.187  1.00  0.00     0.281 HD
ATOM      5  H22 UNL     1      27.518  16.191  14.972  1.00  0.00     0.281 HD
HETATM    6  C3  UNL     1      29.425  15.116  15.177  1.00  0.00     0.507 C
ENDROOT
BRANCH   1   7
HETATM    7  C1  UNL     1      29.585  13.492  16.999  1.00  0.00     0.361 C
HETATM    8 BR1  UNL     1      28.768  13.177  18.714  1.00  0.00    -0.064 Br
ENDBRANCH   1   7
TORSDOF 1
ENDMDL