MODEL 4
REMARK VINA RESULT: -3.396536094      1.290      1.494
REMARK  3 active torsions:
REMARK  status: ('A' for Active; 'I' for Inactive)
REMARK    1  A    between atoms: O1_1  and  C1_3
REMARK    2  A    between atoms: C1_3  and  C2_4
REMARK    3  A    between atoms: C2_4  and  C3_5
ROOT
HETATM    1  C3  UNL     1      29.170  13.791  17.294  1.00  0.00    -0.092 C
HETATM    2  C4  UNL     1      28.887  13.171  18.304  1.00  0.00    -0.024 C
HETATM    3 BR1  UNL     1      28.474  12.191  19.864  1.00  0.00     0.010 Br
ENDROOT
BRANCH   1   4
HETATM    4  C2  UNL     1      29.525  14.525  16.100  1.00  0.00     0.120 C
BRANCH   4   5
HETATM    5  C1  UNL     1      28.666  15.766  16.043  1.00  0.00     0.176 C
BRANCH   5   6
HETATM    6  O1  UNL     1      29.184  16.574  15.032  1.00  0.00    -0.400 OA
ATOM      7  H1  UNL     1      30.063  16.820  15.295  1.00  0.00     0.209 HD
ENDBRANCH   5   6
ENDBRANCH   4   5
ENDBRANCH   1   4
TORSDOF 3
ENDMDL