MODEL 5
REMARK VINA RESULT: -4.675482467      2.321      2.703
REMARK  2 active torsions:
REMARK  status: ('A' for Active; 'I' for Inactive)
REMARK    1  A    between atoms: N2_4  and  C1_6
REMARK    2  A    between atoms: C2_7  and  O1_8
ROOT
HETATM    1  C1  UNL     1      28.064  15.062  16.747  1.00  0.00     0.145 C
HETATM    2  C2  UNL     1      29.025  14.455  15.720  1.00  0.00     0.144 C
HETATM    3  C3  UNL     1      29.168  13.048  16.295  1.00  0.00     0.035 C
HETATM    4  C4  UNL     1      29.114  13.243  17.797  1.00  0.00     0.025 C
HETATM    5  C5  UNL     1      28.838  14.722  18.021  1.00  0.00     0.109 C
HETATM    6 CL1  UNL     1      27.930  15.040  19.477  1.00  0.00    -0.123 Cl
ENDROOT
BRANCH   1   7
HETATM    7  N2  UNL     1      27.926  16.460  16.559  1.00  0.00    -0.334 N
HETATM    8  N1  UNL     1      26.828  16.954  16.234  1.00  0.00    -0.349 N
ATOM      9  H12 UNL     1      26.030  16.331  16.106  1.00  0.00     0.176 HD
ATOM     10  H11 UNL     1      26.728  17.960  16.098  1.00  0.00     0.176 HD
ATOM     11  H2  UNL     1      28.734  17.069  16.690  1.00  0.00     0.180 HD
ENDBRANCH   1   7
BRANCH   2  12
HETATM   12  O1  UNL     1      30.237  15.087  15.890  1.00  0.00    -0.393 OA
ATOM     13  H1  UNL     1      30.221  15.479  16.756  1.00  0.00     0.210 HD
ENDBRANCH   2  12
TORSDOF 2
ENDMDL