MODEL 5
REMARK VINA RESULT: -3.789729280      2.977      3.970
REMARK  1 active torsions:
REMARK  status: ('A' for Active; 'I' for Inactive)
REMARK    1  A    between atoms: C1_2  and  N1_3
ROOT
HETATM    1  N1  UNL     1      27.799  12.335  20.052  1.00  0.00    -0.254 NA
HETATM    2  C2  UNL     1      27.072  12.236  18.779  1.00  0.00     0.104 C
HETATM    3  C3  UNL     1      27.723  13.282  17.933  1.00  0.00     0.028 C
HETATM    4  C4  UNL     1      27.488  14.621  18.637  1.00  0.00     0.240 C
HETATM    5  N2  UNL     1      28.350  14.588  19.820  1.00  0.00    -0.058 N
ATOM      6  H21 UNL     1      27.880  14.863  20.683  1.00  0.00     0.279 HD
ATOM      7  H22 UNL     1      29.059  15.321  19.837  1.00  0.00     0.279 HD
HETATM    8  C5  UNL     1      28.894  13.234  19.846  1.00  0.00     0.265 C
HETATM    9  C6  UNL     1      29.190  13.078  18.343  1.00  0.00     0.056 C
ENDROOT
BRANCH   1  10
HETATM   10  C1  UNL     1      28.143  11.058  20.563  1.00  0.00     0.147 C
HETATM   11 CL1  UNL     1      28.970  11.054  22.101  1.00  0.00    -0.084 Cl
ENDBRANCH   1  10
TORSDOF 1
ENDMDL