MODEL 2
REMARK VINA RESULT: -4.806777805      1.822      2.303
REMARK  2 active torsions:
REMARK  status: ('A' for Active; 'I' for Inactive)
REMARK    1  A    between atoms: O1_1  and  C1_3
REMARK    2  A    between atoms: C1_3  and  C2_5
ROOT
HETATM    1  C2  UNL     1      28.861  13.820  17.763  1.00  0.00     0.039 A
HETATM    2  C3  UNL     1      27.670  14.615  18.076  1.00  0.00     0.033 A
HETATM    3  C4  UNL     1      27.974  15.000  19.534  1.00  0.00     0.238 C
HETATM    4  N1  UNL     1      28.735  13.882  20.044  1.00  0.00    -0.069 N
ATOM      5  H11 UNL     1      28.316  13.451  20.869  1.00  0.00     0.277 HD
ATOM      6  H12 UNL     1      29.616  14.156  20.479  1.00  0.00     0.277 HD
HETATM    7  C5  UNL     1      28.905  12.948  18.920  1.00  0.00     0.204 A
HETATM    8  C6  UNL     1      27.627  13.152  18.174  1.00  0.00     0.038 A
ENDROOT
BRANCH   1   9
HETATM    9  C1  UNL     1      29.520  13.685  16.481  1.00  0.00     0.225 C
HETATM   10 CL1  UNL     1      29.187  15.148  15.490  1.00  0.00    -0.095 Cl
BRANCH   9  11
HETATM   11  O1  UNL     1      29.147  12.599  15.702  1.00  0.00    -0.380 OA
ATOM     12  H1  UNL     1      29.180  11.841  16.274  1.00  0.00     0.211 HD
ENDBRANCH   9  11
ENDBRANCH   1   9
TORSDOF 2
ENDMDL