MODEL 1
REMARK VINA RESULT: -4.351686958      0.000      0.000
REMARK  3 active torsions:
REMARK  status: ('A' for Active; 'I' for Inactive)
REMARK    1  A    between atoms: N2_4  and  C1_6
REMARK    2  A    between atoms: C1_6  and  C2_7
REMARK    3  A    between atoms: C3_8  and  C4_9
ROOT
HETATM    1  N1  UNL     1      29.782  14.821  13.371  1.00  0.00    -0.349 N
ATOM      2  H11 UNL     1      30.452  14.187  12.936  1.00  0.00     0.176 HD
ATOM      3  H12 UNL     1      29.027  15.193  12.794  1.00  0.00     0.176 HD
HETATM    4  N2  UNL     1      29.792  15.190  14.545  1.00  0.00    -0.332 N
ATOM      5  H2  UNL     1      30.540  14.828  15.137  1.00  0.00     0.180 HD
ENDROOT
BRANCH   4   6
HETATM    6  C1  UNL     1      28.861  16.072  15.151  1.00  0.00     0.232 C
BRANCH   6   7
HETATM    7  C2  UNL     1      28.578  15.561  16.495  1.00  0.00    -0.085 C
HETATM    8  C3  UNL     1      28.326  15.149  17.602  1.00  0.00    -0.094 C
BRANCH   8   9
HETATM    9  C4  UNL     1      28.004  14.658  18.960  1.00  0.00     0.178 C
HETATM   10 BR1  UNL     1      28.643  12.831  19.185  1.00  0.00    -0.083 Br
ENDBRANCH   8   9
ENDBRANCH   6   7
ENDBRANCH   4   6
TORSDOF 3
ENDMDL