MODEL 1
REMARK VINA RESULT: -4.021626309      0.000      0.000
REMARK  1 active torsions:
REMARK  status: ('A' for Active; 'I' for Inactive)
REMARK    1  A    between atoms: C1_4  and  N2_5
ROOT
HETATM    1  N2  UNL     1      28.744  15.314  16.058  1.00  0.00    -0.359 N
HETATM    2  C2  UNL     1      27.880  15.685  17.235  1.00  0.00     0.161 A
HETATM    3  C3  UNL     1      28.858  14.634  17.381  1.00  0.00     0.175 A
HETATM    4 BR1  UNL     1      28.450  12.770  17.288  1.00  0.00    -0.067 Br
ENDROOT
BRANCH   1   5
HETATM    5  C1  UNL     1      29.139  15.483  14.726  1.00  0.00     0.172 C
HETATM    6  N1  UNL     1      30.294  15.042  14.363  1.00  0.00    -0.395 N
ATOM      7  H12 UNL     1      30.896  14.581  15.045  1.00  0.00     0.156 HD
ATOM      8  H11 UNL     1      30.582  15.165  13.392  1.00  0.00     0.156 HD
ENDBRANCH   1   5
TORSDOF 1
ENDMDL