MODEL 2
REMARK VINA RESULT: -4.272632563      1.434      1.434
REMARK  4 active torsions:
REMARK  status: ('A' for Active; 'I' for Inactive)
REMARK    1  A    between atoms: O1_1  and  N1_3
REMARK    2  A    between atoms: N1_3  and  C1_5
REMARK    3  A    between atoms: C1_5  and  C2_6
REMARK    4  A    between atoms: C3_7  and  C4_8
ROOT
HETATM    1  C1  UNL     1      28.399  15.851  17.166  1.00  0.00     0.234 C
ENDROOT
BRANCH   1   2
HETATM    2  N1  UNL     1      28.690  15.487  15.816  1.00  0.00    -0.095 NA
HETATM    3 CL1  UNL     1      29.979  14.300  15.831  1.00  0.00     0.007 Cl
BRANCH   2   4
HETATM    4  O1  UNL     1      29.162  16.585  15.142  1.00  0.00    -0.297 OA
ATOM      5  H1  UNL     1      28.834  16.528  14.252  1.00  0.00     0.238 HD
ENDBRANCH   2   4
ENDBRANCH   1   2
BRANCH   1   6
HETATM    6  C2  UNL     1      28.010  14.690  17.940  1.00  0.00    -0.088 C
HETATM    7  C3  UNL     1      27.671  13.721  18.571  1.00  0.00    -0.100 C
BRANCH   7   8
HETATM    8  C4  UNL     1      27.241  12.562  19.318  1.00  0.00     0.065 A
HETATM    9  C5  UNL     1      28.356  11.785  19.992  1.00  0.00     0.018 A
HETATM   10  C6  UNL     1      27.570  11.200  18.853  1.00  0.00     0.018 A
ENDBRANCH   7   8
ENDBRANCH   1   6
TORSDOF 4
ENDMDL