MODEL 5
REMARK VINA RESULT: -3.411360962      1.776      1.981
REMARK  2 active torsions:
REMARK  status: ('A' for Active; 'I' for Inactive)
REMARK    1  A    between atoms: C1_2  and  C2_3
REMARK    2  A    between atoms: C3_4  and  N1_5
ROOT
HETATM    1  C2  UNL     1      28.219  12.786  17.342  1.00  0.00    -0.005 C
HETATM    2  C3  UNL     1      29.104  13.020  16.378  1.00  0.00     0.056 C
ENDROOT
BRANCH   2   3
HETATM    3  N1  UNL     1      29.633  14.322  16.222  1.00  0.00    -0.291 NA
HETATM    4  C4  UNL     1      29.164  15.199  15.197  1.00  0.00     0.109 A
HETATM    5  C5  UNL     1      28.821  15.456  16.630  1.00  0.00     0.109 A
ENDBRANCH   2   3
BRANCH   1   6
HETATM    6  C1  UNL     1      27.609  11.462  17.586  1.00  0.00     0.113 C
HETATM    7 BR1  UNL     1      26.920  11.485  19.415  1.00  0.00    -0.092 Br
ENDBRANCH   1   6
TORSDOF 2
ENDMDL