MODEL 5
REMARK VINA RESULT: -3.270112563      2.227      2.480
REMARK  1 active torsions:
REMARK  status: ('A' for Active; 'I' for Inactive)
REMARK    1  A    between atoms: N1_3  and  C2_5
ROOT
HETATM    1 BR1  UNL     1      27.270  11.636  18.708  1.00  0.00    -0.045 Br
HETATM    2  C1  UNL     1      28.566  12.797  19.512  1.00  0.00     0.140 C
HETATM    3  N1  UNL     1      28.852  13.897  18.966  1.00  0.00    -0.389 N
ATOM      4  H1  UNL     1      29.544  14.506  19.405  1.00  0.00     0.159 HD
ENDROOT
BRANCH   3   5
HETATM    5  C2  UNL     1      28.232  14.312  17.750  1.00  0.00     0.081 A
HETATM    6  C3  UNL     1      28.980  14.379  16.479  1.00  0.00     0.027 A
HETATM    7  C4  UNL     1      28.727  15.646  17.236  1.00  0.00     0.027 A
ENDBRANCH   3   5
TORSDOF 1
ENDMDL