MODEL 4
REMARK VINA RESULT: -7.199790184      2.736      4.154
REMARK  3 active torsions:
REMARK  status: ('A' for Active; 'I' for Inactive)
REMARK    1  A    between atoms: S1_2  and  C2_3
REMARK       I    between atoms: N3_9  and  C4_11
REMARK    2  A    between atoms: C4_11  and  C5_13
REMARK    3  A    between atoms: C5_13  and  N4_14
ROOT
HETATM    1  N4  UNL     1      46.166  50.069  33.743  1.00  0.00    -0.273 N
HETATM    2  C6  UNL     1      45.955  48.834  33.085  1.00  0.00     0.242 C
HETATM    3  O2  UNL     1      45.517  47.797  33.621  1.00  0.00    -0.272 OA
HETATM    4  C7  UNL     1      46.338  49.004  31.698  1.00  0.00     0.118 C
HETATM    5  C8  UNL     1      45.221  48.923  30.681  1.00  0.00     0.029 C
HETATM    6  C9  UNL     1      46.085  47.989  29.869  1.00  0.00     0.013 C
HETATM    7  C10 UNL     1      47.068  47.971  30.982  1.00  0.00    -0.009 A
HETATM    8  C11 UNL     1      48.524  47.941  30.776  1.00  0.00     0.021 A
HETATM    9  C12 UNL     1      47.731  46.794  31.448  1.00  0.00    -0.038 A
HETATM   10  C13 UNL     1      47.610  45.540  30.569  1.00  0.00     0.015 C
HETATM   11  C14 UNL     1      48.210  46.501  32.833  1.00  0.00     0.015 C
HETATM   12  C15 UNL     1      46.947  50.381  31.615  1.00  0.00     0.239 C
HETATM   13  O3  UNL     1      47.753  50.775  30.770  1.00  0.00    -0.288 OA
HETATM   14  C16 UNL     1      46.375  51.128  32.743  1.00  0.00     0.389 C
HETATM   15  F1  UNL     1      47.193  52.118  33.219  1.00  0.00    -0.174 F
HETATM   16  F2  UNL     1      45.112  51.623  32.464  1.00  0.00    -0.174 F
ENDROOT
BRANCH   1  17
HETATM   17  C5  UNL     1      46.194  50.358  35.161  1.00  0.00     0.235 C
BRANCH  17  18
HETATM   18  C4  UNL     1      47.399  49.791  35.816  1.00  0.00     0.241 C
HETATM   19  N3  UNL     1      48.602  50.527  35.950  1.00  0.00    -0.305 N
HETATM   20  C3  UNL     1      49.663  50.095  35.307  1.00  0.00     0.168 A
ATOM     21  H3  UNL     1      48.644  51.367  36.528  1.00  0.00     0.171 HD
HETATM   22  N2  UNL     1      49.762  49.021  34.518  1.00  0.00    -0.278 N
HETATM   23  S2  UNL     1      51.251  50.725  35.244  1.00  0.00    -0.026 SA
HETATM   24  N1  UNL     1      50.884  48.766  33.980  1.00  0.00    -0.286 N
ATOM     25  H2  UNL     1      48.955  48.420  34.351  1.00  0.00     0.189 HD
HETATM   26  C2  UNL     1      51.925  49.554  34.203  1.00  0.00     0.129 A
ATOM     27  H1  UNL     1      50.985  47.951  33.376  1.00  0.00     0.188 HD
HETATM   28  O1  UNL     1      47.320  48.612  36.259  1.00  0.00    -0.271 OA
BRANCH  26  29
HETATM   29  S1  UNL     1      53.598  49.372  33.541  1.00  0.00    -0.108 SA
HETATM   30  C1  UNL     1      54.296  47.832  34.193  1.00  0.00     0.097 C
ENDBRANCH  26  29
ENDBRANCH  17  18
ENDBRANCH   1  17
TORSDOF 3
ENDMDL