MODEL 5
REMARK VINA RESULT: -6.708778260      3.047      7.108
REMARK  6 active torsions:
REMARK  status: ('A' for Active; 'I' for Inactive)
REMARK    1  A    between atoms: O1_2  and  C2_3
REMARK    2  A    between atoms: C5_7  and  C6_8
REMARK    3  A    between atoms: C6_8  and  N1_9
REMARK    4  A    between atoms: N1_9  and  N2_11
REMARK    5  A    between atoms: N2_11  and  C7_13
REMARK    6  A    between atoms: N4_22  and  O3_23
ROOT
HETATM    1  C6  UNL     1      45.982  50.774  34.920  1.00  0.00     0.120 C
ENDROOT
BRANCH   1   2
HETATM    2  C5  UNL     1      47.393  50.644  35.234  1.00  0.00     0.000 A
HETATM    3  C4  UNL     1      48.221  49.955  34.361  1.00  0.00     0.038 A
HETATM    4  C3  UNL     1      49.557  49.800  34.596  1.00  0.00     0.065 A
HETATM    5  C2  UNL     1      50.081  50.359  35.750  1.00  0.00     0.186 A
HETATM    6 BR1  UNL     1      50.655  48.840  33.361  1.00  0.00    -0.046 Br
HETATM    7  N4  UNL     1      49.288  51.028  36.600  1.00  0.00    -0.211 N
HETATM    8  C11 UNL     1      47.964  51.171  36.350  1.00  0.00     0.138 A
BRANCH   5   9
HETATM    9  O1  UNL     1      51.446  50.190  35.972  1.00  0.00    -0.338 OA
HETATM   10  C1  UNL     1      52.298  51.213  35.442  1.00  0.00     0.211 C
ENDBRANCH   5   9
BRANCH   7  11
HETATM   11  O3  UNL     1      49.810  51.586  37.748  1.00  0.00    -0.281 OA
ATOM     12  H3  UNL     1      50.749  51.705  37.839  1.00  0.00     0.245 HD
ENDBRANCH   7  11
ENDBRANCH   1   2
BRANCH   1  13
HETATM   13  N1  UNL     1      45.519  51.908  34.502  1.00  0.00    -0.309 N
ATOM     14  H1  UNL     1      45.504  52.710  35.133  1.00  0.00     0.186 HD
BRANCH  13  15
HETATM   15  N2  UNL     1      45.048  52.045  33.226  1.00  0.00    -0.277 N
ATOM     16  H2  UNL     1      44.925  52.999  32.886  1.00  0.00     0.189 HD
BRANCH  15  17
HETATM   17  C7  UNL     1      44.745  51.104  32.409  1.00  0.00     0.204 A
HETATM   18  O2  UNL     1      43.570  50.497  32.421  1.00  0.00    -0.217 OA
HETATM   19  N3  UNL     1      43.509  49.597  31.512  1.00  0.00    -0.262 N
HETATM   20  C8  UNL     1      44.655  49.527  30.811  1.00  0.00     0.050 A
ATOM     21  H3  UNL     1      42.695  49.007  31.342  1.00  0.00     0.194 HD
HETATM   22  C9  UNL     1      45.027  48.642  29.679  1.00  0.00     0.072 C
HETATM   23  C10 UNL     1      45.462  50.511  31.395  1.00  0.00     0.089 A
HETATM   24 BR2  UNL     1      47.221  50.945  30.882  1.00  0.00    -0.044 Br
ENDBRANCH  15  17
ENDBRANCH  13  15
ENDBRANCH   1  13
TORSDOF 6
ENDMDL