MODEL 4
REMARK VINA RESULT: -8.784514536      0.937      1.124
REMARK  3 active torsions:
REMARK  status: ('A' for Active; 'I' for Inactive)
REMARK    1  A    between atoms: C15_18  and  C17_20
REMARK       I    between atoms: C17_20  and  N2_22
REMARK    2  A    between atoms: N2_22  and  S1_24
REMARK    3  A    between atoms: S1_24  and  C18_27
ROOT
HETATM    1  C1  UNL     1      44.106  49.262  29.819  1.00  0.00     0.015 C
HETATM    2  C2  UNL     1      45.160  49.950  30.709  1.00  0.00    -0.042 C
HETATM    3  C3  UNL     1      44.359  51.010  31.455  1.00  0.00     0.015 C
HETATM    4  C4  UNL     1      46.069  50.661  29.730  1.00  0.00     0.009 C
HETATM    5  C5  UNL     1      47.021  49.722  29.053  1.00  0.00     0.003 C
HETATM    6  C6  UNL     1      47.877  49.068  30.070  1.00  0.00     0.032 C
HETATM    7  C7  UNL     1      47.342  48.913  31.430  1.00  0.00     0.042 C
HETATM    8  C8  UNL     1      47.665  47.477  31.885  1.00  0.00     0.032 C
HETATM    9  C9  UNL     1      46.852  47.165  33.128  1.00  0.00     0.009 C
HETATM   10  C10 UNL     1      46.717  48.506  33.893  1.00  0.00     0.013 C
HETATM   11  C11 UNL     1      45.634  49.233  33.079  1.00  0.00     0.014 C
HETATM   12  C12 UNL     1      45.834  48.963  31.579  1.00  0.00     0.022 C
HETATM   13  C13 UNL     1      48.070  49.109  33.743  1.00  0.00     0.139 C
HETATM   14  N1  UNL     1      47.976  49.760  32.415  1.00  0.00    -0.310 N
HETATM   15  C14 UNL     1      48.531  51.024  32.602  1.00  0.00     0.365 C
HETATM   16  O1  UNL     1      49.080  51.675  31.686  1.00  0.00    -0.238 OA
HETATM   17  O2  UNL     1      48.365  51.417  33.952  1.00  0.00    -0.281 OA
HETATM   18  C15 UNL     1      48.541  50.150  34.633  1.00  0.00     0.171 C
HETATM   19  C16 UNL     1      50.099  50.051  34.627  1.00  0.00     0.060 C
ENDROOT
BRANCH  18  20
HETATM   20  C17 UNL     1      48.134  50.200  36.015  1.00  0.00     0.268 C
HETATM   21  O3  UNL     1      47.493  51.253  36.391  1.00  0.00    -0.269 OA
HETATM   22  N2  UNL     1      48.358  49.235  37.013  1.00  0.00    -0.247 N
ATOM     23  H2  UNL     1      48.857  48.380  36.764  1.00  0.00     0.181 HD
BRANCH  22  24
HETATM   24  S1  UNL     1      47.821  49.440  38.651  1.00  0.00     0.294 S
HETATM   25  O4  UNL     1      46.344  49.657  38.623  1.00  0.00    -0.200 OA
HETATM   26  O5  UNL     1      48.516  50.640  39.277  1.00  0.00    -0.200 OA
BRANCH  24  27
HETATM   27  C18 UNL     1      48.191  48.045  39.672  1.00  0.00     0.494 C
HETATM   28  F1  UNL     1      48.854  48.369  40.822  1.00  0.00    -0.195 F
HETATM   29  F2  UNL     1      46.982  47.466  40.063  1.00  0.00    -0.195 F
ENDBRANCH  24  27
ENDBRANCH  22  24
ENDBRANCH  18  20
TORSDOF 3
ENDMDL