MODEL 5
REMARK VINA RESULT: -5.573501444     10.408     12.384
REMARK  4 active torsions:
REMARK  status: ('A' for Active; 'I' for Inactive)
REMARK    1  A    between atoms: C2_2  and  O1_3
REMARK    2  A    between atoms: C2_2  and  C3_5
REMARK    3  A    between atoms: C4_7  and  N1_8
REMARK    4  A    between atoms: C7_14  and  C8_15
ROOT
HETATM    1  N1  UNL     1      57.715  46.568  32.928  1.00  0.00    -0.314 N
HETATM    2  C5  UNL     1      57.780  45.960  31.718  1.00  0.00     0.186 A
HETATM    3  N2  UNL     1      56.634  45.317  31.466  1.00  0.00    -0.345 N
ATOM      4  H2  UNL     1      56.416  44.780  30.627  1.00  0.00     0.167 HD
HETATM    5  C6  UNL     1      55.833  45.507  32.506  1.00  0.00     0.104 A
HETATM    6 BR1  UNL     1      54.056  44.797  32.660  1.00  0.00    -0.029 Br
HETATM    7  C7  UNL     1      56.521  46.297  33.431  1.00  0.00     0.058 A
ENDROOT
BRANCH   1   8
HETATM    8  C4  UNL     1      58.765  47.394  33.458  1.00  0.00     0.251 C
HETATM    9  O2  UNL     1      59.534  47.932  32.392  1.00  0.00    -0.349 OA
HETATM   10  C3  UNL     1      60.716  47.274  32.312  1.00  0.00     0.223 C
HETATM   11  C14 UNL     1      61.019  46.863  33.692  1.00  0.00     0.176 C
HETATM   12  C13 UNL     1      59.712  46.743  34.385  1.00  0.00     0.179 C
HETATM   13  O3  UNL     1      62.123  46.666  34.159  1.00  0.00    -0.294 OA
HETATM   14 BR2  UNL     1      59.400  44.893  34.756  1.00  0.00    -0.078 Br
BRANCH  10  15
HETATM   15  C2  UNL     1      61.790  48.230  31.775  1.00  0.00     0.150 C
HETATM   16  C1  UNL     1      61.300  48.805  30.472  1.00  0.00     0.042 C
BRANCH  15  17
HETATM   17  O1  UNL     1      61.886  49.271  32.696  1.00  0.00    -0.393 OA
ATOM     18  H1  UNL     1      62.774  49.285  33.032  1.00  0.00     0.210 HD
ENDBRANCH  15  17
ENDBRANCH  10  15
ENDBRANCH   1   8
BRANCH   7  19
HETATM   19  C8  UNL     1      55.845  46.733  34.672  1.00  0.00     0.005 A
HETATM   20  C9  UNL     1      56.095  45.830  35.909  1.00  0.00     0.022 C
HETATM   21  C10 UNL     1      56.309  48.183  35.124  1.00  0.00     0.021 A
HETATM   22  C11 UNL     1      54.890  47.835  34.690  1.00  0.00    -0.003 A
HETATM   23  C12 UNL     1      54.488  48.656  33.510  1.00  0.00     0.011 C
ENDBRANCH   7  19
TORSDOF 4
ENDMDL