MODEL 2
REMARK VINA RESULT: -6.874909137      1.971      3.604
REMARK  5 active torsions:
REMARK  status: ('A' for Active; 'I' for Inactive)
REMARK    1  A    between atoms: O1_2  and  C2_3
REMARK    2  A    between atoms: C2_3  and  C3_5
REMARK    3  A    between atoms: C8_12  and  O3_13
REMARK    4  A    between atoms: O3_13  and  S1_14
REMARK    5  A    between atoms: S1_14  and  N1_17
REMARK       I    between atoms: N1_17  and  C9_19
ROOT
HETATM    1  C3  UNL     1      48.191  49.429  33.888  1.00  0.00     0.076 A
HETATM    2  C4  UNL     1      48.334  49.665  32.508  1.00  0.00     0.039 A
HETATM    3  C5  UNL     1      49.480  50.264  32.039  1.00  0.00     0.013 A
HETATM    4 BR1  UNL     1      49.646  50.574  30.155  1.00  0.00    -0.051 Br
HETATM    5  C6  UNL     1      50.473  50.627  32.916  1.00  0.00     0.041 A
HETATM    6  C7  UNL     1      50.314  50.387  34.281  1.00  0.00     0.048 A
HETATM    7 BR2  UNL     1      51.760  50.887  35.440  1.00  0.00    -0.048 Br
HETATM    8  C8  UNL     1      49.168  49.789  34.766  1.00  0.00     0.124 A
ENDROOT
BRANCH   8   9
HETATM    9  O3  UNL     1      49.029  49.576  36.104  1.00  0.00    -0.214 OA
BRANCH   9  10
HETATM   10  S1  UNL     1      48.294  50.546  37.254  1.00  0.00     0.369 S
HETATM   11  O4  UNL     1      47.398  51.509  36.480  1.00  0.00    -0.175 OA
HETATM   12  O5  UNL     1      49.217  51.359  38.105  1.00  0.00    -0.175 OA
BRANCH  10  13
HETATM   13  N1  UNL     1      47.269  49.691  38.351  1.00  0.00    -0.231 N
HETATM   14  C9  UNL     1      47.850  48.771  39.253  1.00  0.00     0.228 C
HETATM   15  C10 UNL     1      46.935  48.051  40.182  1.00  0.00     0.118 C
HETATM   16  O6  UNL     1      49.083  48.571  39.270  1.00  0.00    -0.273 OA
ATOM     17  H1  UNL     1      46.261  49.848  38.348  1.00  0.00     0.183 HD
ENDBRANCH  10  13
ENDBRANCH   9  10
ENDBRANCH   8   9
BRANCH   1  18
HETATM   18  C2  UNL     1      46.981  48.693  34.228  1.00  0.00     0.295 C
HETATM   19  O2  UNL     1      46.980  47.467  34.508  1.00  0.00    -0.259 OA
BRANCH  18  20
HETATM   20  O1  UNL     1      45.777  49.350  34.257  1.00  0.00    -0.322 OA
HETATM   21  C1  UNL     1      44.753  49.120  33.317  1.00  0.00     0.213 C
ENDBRANCH  18  20
ENDBRANCH   1  18
TORSDOF 5
ENDMDL