MODEL 4
REMARK VINA RESULT: -6.677837236      9.742     11.969
REMARK  5 active torsions:
REMARK  status: ('A' for Active; 'I' for Inactive)
REMARK    1  A    between atoms: O1_2  and  C2_3
REMARK    2  A    between atoms: C3_4  and  C4_5
REMARK    3  A    between atoms: C4_5  and  C5_6
REMARK    4  A    between atoms: C5_6  and  C6_8
REMARK    5  A    between atoms: C6_8  and  O3_9
ROOT
HETATM    1  C2  UNL     1      57.786  46.960  32.909  1.00  0.00     0.144 C
HETATM    2  C3  UNL     1      57.257  47.076  34.287  1.00  0.00     0.080 C
HETATM    3  C7  UNL     1      57.277  48.550  34.649  1.00  0.00     0.070 A
HETATM    4  C8  UNL     1      58.382  49.215  34.405  1.00  0.00    -0.001 A
HETATM    5  C9  UNL     1      58.152  50.602  34.833  1.00  0.00     0.116 A
HETATM    6  C10 UNL     1      58.436  51.672  33.845  1.00  0.00     0.025 C
HETATM    7  C11 UNL     1      56.792  50.618  35.359  1.00  0.00     0.272 A
HETATM    8  O4  UNL     1      56.153  51.610  35.864  1.00  0.00    -0.264 OA
HETATM    9  O5  UNL     1      56.290  49.348  35.221  1.00  0.00    -0.282 OA
HETATM   10  C12 UNL     1      59.553  48.492  33.822  1.00  0.00     0.102 C
HETATM   11  C13 UNL     1      60.316  49.218  32.741  1.00  0.00     0.045 C
HETATM   12  C14 UNL     1      59.369  48.544  31.727  1.00  0.00     0.020 C
HETATM   13  C15 UNL     1      59.188  47.477  32.779  1.00  0.00     0.040 C
HETATM   14  C16 UNL     1      60.323  46.533  32.820  1.00  0.00     0.132 C
HETATM   15 BR1  UNL     1      59.943  44.708  32.436  1.00  0.00    -0.085 Br
HETATM   16  C17 UNL     1      60.875  46.711  34.217  1.00  0.00     0.323 C
HETATM   17  F1  UNL     1      62.257  46.785  34.221  1.00  0.00    -0.218 F
HETATM   18  O6  UNL     1      60.295  47.828  34.763  1.00  0.00    -0.339 OA
ENDROOT
BRANCH   2  19
HETATM   19  C4  UNL     1      55.901  46.561  34.531  1.00  0.00     0.094 C
BRANCH  19  20
HETATM   20  C5  UNL     1      55.778  45.095  34.645  1.00  0.00     0.150 C
HETATM   21  O2  UNL     1      55.230  44.350  33.872  1.00  0.00    -0.296 OA
BRANCH  20  22
HETATM   22  C6  UNL     1      56.392  44.406  35.849  1.00  0.00     0.242 C
BRANCH  22  23
HETATM   23  O3  UNL     1      55.873  44.852  37.036  1.00  0.00    -0.394 OA
ATOM     24  H3  UNL     1      55.770  44.158  37.676  1.00  0.00     0.209 HD
ENDBRANCH  22  23
ENDBRANCH  20  22
ENDBRANCH  19  20
ENDBRANCH   2  19
BRANCH   1  25
HETATM   25  O1  UNL     1      57.003  47.752  32.057  1.00  0.00    -0.389 OA
HETATM   26  C1  UNL     1      56.341  46.993  31.122  1.00  0.00     0.202 C
ENDBRANCH   1  25
TORSDOF 5
ENDMDL