MODEL 4
REMARK VINA RESULT: -7.922610954      1.749      2.804
REMARK  5 active torsions:
REMARK  status: ('A' for Active; 'I' for Inactive)
REMARK    1  A    between atoms: C2_2  and  C3_3
REMARK    2  A    between atoms: C3_3  and  O2_5
REMARK    3  A    between atoms: O2_5  and  C4_6
REMARK    4  A    between atoms: C4_6  and  C5_8
REMARK    5  A    between atoms: C5_8  and  N1_9
ROOT
HETATM    1  N1  UNL     1      47.747  50.718  35.273  1.00  0.00    -0.257 N
HETATM    2  C6  UNL     1      46.386  51.039  35.617  1.00  0.00     0.327 C
HETATM    3  O4  UNL     1      45.916  50.881  36.790  1.00  0.00    -0.247 OA
HETATM    4  N2  UNL     1      45.728  51.533  34.457  1.00  0.00    -0.311 N
ATOM      5  H2  UNL     1      44.844  52.042  34.427  1.00  0.00     0.166 HD
HETATM    6  C7  UNL     1      46.553  51.173  33.335  1.00  0.00     0.206 C
HETATM    7  S1  UNL     1      46.560  52.461  32.053  1.00  0.00    -0.107 SA
HETATM    8  C8  UNL     1      46.601  51.312  30.659  1.00  0.00     0.039 C
HETATM    9  C9  UNL     1      48.034  51.153  30.202  1.00  0.00     0.032 C
HETATM   10  C10 UNL     1      45.701  51.762  29.532  1.00  0.00     0.032 C
HETATM   11  C11 UNL     1      46.077  50.080  31.291  1.00  0.00     0.028 C
HETATM   12 BR1  UNL     1      45.451  48.633  30.122  1.00  0.00    -0.052 Br
HETATM   13  C12 UNL     1      46.056  50.021  32.577  1.00  0.00     0.075 C
HETATM   14 CL1  UNL     1      45.448  48.588  33.464  1.00  0.00    -0.084 Cl
HETATM   15  C13 UNL     1      47.904  51.022  33.894  1.00  0.00     0.273 C
HETATM   16  O5  UNL     1      49.014  51.136  33.286  1.00  0.00    -0.269 OA
ENDROOT
BRANCH   1  17
HETATM   17  C5  UNL     1      48.782  50.195  36.115  1.00  0.00     0.248 C
BRANCH  17  18
HETATM   18  C4  UNL     1      49.691  51.217  36.618  1.00  0.00     0.284 C
HETATM   19  O3  UNL     1      49.241  52.300  37.059  1.00  0.00    -0.263 OA
BRANCH  18  20
HETATM   20  O2  UNL     1      51.056  51.018  36.622  1.00  0.00    -0.244 OA
BRANCH  20  21
HETATM   21  C3  UNL     1      51.810  50.893  35.461  1.00  0.00     0.265 C
HETATM   22  O1  UNL     1      51.906  51.886  34.705  1.00  0.00    -0.265 OA
BRANCH  21  23
HETATM   23  C2  UNL     1      52.492  49.595  35.125  1.00  0.00     0.107 C
HETATM   24  C1  UNL     1      51.625  48.841  34.159  1.00  0.00     0.015 C
ENDBRANCH  21  23
ENDBRANCH  20  21
ENDBRANCH  18  20
ENDBRANCH  17  18
ENDBRANCH   1  17
TORSDOF 5
ENDMDL