MODEL 1
REMARK VINA RESULT: -6.331821287      0.000      0.000
REMARK  8 active torsions:
REMARK  status: ('A' for Active; 'I' for Inactive)
REMARK    1  A    between atoms: C2_2  and  O1_3
REMARK    2  A    between atoms: O1_3  and  C3_4
REMARK    3  A    between atoms: C3_4  and  C4_6
REMARK       I    between atoms: N1_10  and  C8_11
REMARK    4  A    between atoms: C8_11  and  C9_13
REMARK    5  A    between atoms: N2_17  and  C12_18
REMARK    6  A    between atoms: C12_18  and  N3_20
REMARK    7  A    between atoms: N3_20  and  C13_22
REMARK    8  A    between atoms: C13_22  and  C16_25
ROOT
HETATM    1  C9  UNL     1      50.735  49.385  34.791  1.00  0.00     0.189 C
HETATM    2  C10 UNL     1      51.964  49.827  35.501  1.00  0.00     0.110 C
HETATM    3  S1  UNL     1      53.196  49.921  34.135  1.00  0.00    -0.147 SA
HETATM    4  C11 UNL     1      51.940  49.860  32.786  1.00  0.00     0.200 C
HETATM    5  N2  UNL     1      51.026  48.921  33.473  1.00  0.00    -0.335 N
ENDROOT
BRANCH   1   6
HETATM    6  C8  UNL     1      49.632  50.381  34.761  1.00  0.00     0.244 C
HETATM    7  N1  UNL     1      48.621  50.509  35.734  1.00  0.00    -0.336 N
HETATM    8  C4  UNL     1      48.340  49.804  36.947  1.00  0.00     0.187 C
HETATM    9  C7  UNL     1      47.538  51.504  35.638  1.00  0.00     0.127 C
HETATM   10  C5  UNL     1      46.826  49.614  36.882  1.00  0.00     0.037 C
HETATM   11  C6  UNL     1      46.326  50.651  35.909  1.00  0.00     0.022 C
HETATM   12  O3  UNL     1      49.613  51.167  33.779  1.00  0.00    -0.271 OA
BRANCH   8  13
HETATM   13  C3  UNL     1      48.643  50.532  38.192  1.00  0.00     0.281 C
HETATM   14  O2  UNL     1      49.389  51.511  38.325  1.00  0.00    -0.263 OA
BRANCH  13  15
HETATM   15  O1  UNL     1      48.005  50.050  39.349  1.00  0.00    -0.320 OA
BRANCH  15  16
HETATM   16  C2  UNL     1      48.274  48.731  39.790  1.00  0.00     0.174 C
HETATM   17  C1  UNL     1      47.041  48.081  40.375  1.00  0.00     0.034 C
ENDBRANCH  15  16
ENDBRANCH  13  15
ENDBRANCH   8  13
ENDBRANCH   1   6
BRANCH   5  18
HETATM   18  C12 UNL     1      50.553  47.757  32.831  1.00  0.00     0.172 C
HETATM   19  S2  UNL     1      51.559  46.852  31.932  1.00  0.00    -0.041 SA
BRANCH  18  20
HETATM   20  N3  UNL     1      49.204  47.364  32.961  1.00  0.00    -0.350 N
ATOM     21  H3  UNL     1      48.935  46.737  33.720  1.00  0.00     0.163 HD
BRANCH  20  22
HETATM   22  C13 UNL     1      48.185  47.839  32.026  1.00  0.00     0.122 C
HETATM   23  C14 UNL     1      47.753  46.651  31.180  1.00  0.00     0.047 C
HETATM   24  C15 UNL     1      48.817  48.888  31.163  1.00  0.00     0.047 C
BRANCH  22  25
HETATM   25  C16 UNL     1      47.027  48.389  32.800  1.00  0.00     0.411 C
HETATM   26  F1  UNL     1      45.849  47.876  32.331  1.00  0.00    -0.168 F
HETATM   27  F2  UNL     1      47.074  49.767  32.744  1.00  0.00    -0.168 F
HETATM   28  F3  UNL     1      47.170  47.963  34.121  1.00  0.00    -0.168 F
ENDBRANCH  22  25
ENDBRANCH  20  22
ENDBRANCH  18  20
ENDBRANCH   5  18
TORSDOF 8
ENDMDL