MODEL 2
REMARK VINA RESULT: -6.915367862     10.078     12.509
REMARK  3 active torsions:
REMARK  status: ('A' for Active; 'I' for Inactive)
REMARK    1  A    between atoms: C7_9  and  C8_10
REMARK    2  A    between atoms: C8_10  and  N1_11
REMARK    3  A    between atoms: C15_20  and  C16_21
ROOT
HETATM    1  C1  UNL     1      53.796  44.032  32.344  1.00  0.00     0.078 C
HETATM    2  C2  UNL     1      55.048  44.864  32.090  1.00  0.00     0.158 C
HETATM    3  C3  UNL     1      55.513  44.586  30.690  1.00  0.00     0.078 C
HETATM    4  O1  UNL     1      54.709  46.193  32.227  1.00  0.00    -0.346 OA
HETATM    5  C4  UNL     1      55.571  46.735  33.183  1.00  0.00     0.179 C
HETATM    6  C5  UNL     1      54.794  46.973  34.430  1.00  0.00     0.209 C
HETATM    7  O2  UNL     1      55.496  47.736  35.397  1.00  0.00    -0.360 OA
HETATM    8  C6  UNL     1      56.886  47.968  35.346  1.00  0.00     0.144 C
HETATM    9  C7  UNL     1      57.831  47.146  34.907  1.00  0.00    -0.005 C
HETATM   10  C15 UNL     1      57.603  45.792  34.389  1.00  0.00     0.143 C
HETATM   11  C17 UNL     1      56.650  45.735  33.237  1.00  0.00     0.173 C
HETATM   12  O5  UNL     1      56.009  44.543  33.044  1.00  0.00    -0.347 OA
ENDROOT
BRANCH   9  13
HETATM   13  C8  UNL     1      59.180  47.706  34.994  1.00  0.00     0.103 C
BRANCH  13  14
HETATM   14  N1  UNL     1      59.687  48.431  33.897  1.00  0.00    -0.334 N
HETATM   15  C9  UNL     1      59.750  49.860  33.786  1.00  0.00     0.086 C
HETATM   16 BR1  UNL     1      58.760  51.155  34.775  1.00  0.00    -0.031 Br
HETATM   17  C10 UNL     1      60.632  50.187  32.861  1.00  0.00     0.090 C
HETATM   18  C11 UNL     1      61.219  48.972  32.288  1.00  0.00     0.179 C
HETATM   19  O3  UNL     1      62.257  48.744  31.667  1.00  0.00    -0.290 OA
HETATM   20  C12 UNL     1      60.183  47.929  32.650  1.00  0.00     0.095 C
HETATM   21  C13 UNL     1      59.093  47.972  31.574  1.00  0.00     0.047 C
HETATM   22  C14 UNL     1      60.769  46.583  32.610  1.00  0.00     0.047 C
ENDBRANCH  13  14
ENDBRANCH   9  13
BRANCH  10  23
HETATM   23  C16 UNL     1      57.056  44.883  35.454  1.00  0.00     0.242 C
HETATM   24  N2  UNL     1      57.518  45.074  36.769  1.00  0.00    -0.061 NA
HETATM   25  O4  UNL     1      56.226  43.983  35.221  1.00  0.00    -0.276 OA
ENDBRANCH  10  23
TORSDOF 3
ENDMDL