MODEL 1
REMARK VINA RESULT: -8.154604416      0.000      0.000
REMARK  5 active torsions:
REMARK  status: ('A' for Active; 'I' for Inactive)
REMARK    1  A    between atoms: C2_2  and  C5_5
REMARK    2  A    between atoms: C5_5  and  O2_7
REMARK    3  A    between atoms: O2_7  and  C6_8
REMARK    4  A    between atoms: C8_11  and  C9_12
REMARK       I    between atoms: C9_12  and  N1_14
REMARK    5  A    between atoms: C19_26  and  C20_27
ROOT
HETATM    1  C6  UNL     1      48.571  50.163  35.363  1.00  0.00     0.221 C
HETATM    2  C7  UNL     1      48.271  49.882  33.923  1.00  0.00     0.175 C
HETATM    3  O3  UNL     1      49.026  49.986  33.009  1.00  0.00    -0.294 OA
HETATM    4  C8  UNL     1      46.864  49.457  33.900  1.00  0.00     0.105 C
HETATM    5  C17 UNL     1      45.898  50.486  34.444  1.00  0.00     0.029 C
HETATM    6  C18 UNL     1      46.262  50.604  35.912  1.00  0.00     0.025 C
HETATM    7  C19 UNL     1      47.401  49.624  36.100  1.00  0.00     0.083 C
HETATM    8  C21 UNL     1      46.904  48.525  35.143  1.00  0.00     0.051 C
ENDROOT
BRANCH   4   9
HETATM    9  C9  UNL     1      46.397  48.755  32.726  1.00  0.00     0.236 C
HETATM   10  O4  UNL     1      46.441  47.461  32.814  1.00  0.00    -0.272 OA
HETATM   11  N1  UNL     1      45.912  49.249  31.523  1.00  0.00    -0.350 N
HETATM   12  C10 UNL     1      45.777  50.651  31.253  1.00  0.00     0.131 C
HETATM   13  C16 UNL     1      45.499  48.344  30.446  1.00  0.00     0.140 C
HETATM   14  C11 UNL     1      46.520  50.946  29.963  1.00  0.00     0.100 C
HETATM   15  C12 UNL     1      46.017  50.163  28.799  1.00  0.00     0.253 C
HETATM   16  F1  UNL     1      47.072  49.705  27.997  1.00  0.00    -0.205 F
HETATM   17  F2  UNL     1      45.288  51.011  27.986  1.00  0.00    -0.205 F
HETATM   18  C13 UNL     1      45.123  49.018  29.183  1.00  0.00     0.034 C
HETATM   19  C14 UNL     1      45.302  47.969  28.070  1.00  0.00     0.022 C
HETATM   20  C15 UNL     1      43.699  49.463  29.103  1.00  0.00     0.022 C
ENDBRANCH   4   9
BRANCH   1  21
HETATM   21  O2  UNL     1      49.826  49.658  35.736  1.00  0.00    -0.306 OA
BRANCH  21  22
HETATM   22  C5  UNL     1      50.951  50.486  35.763  1.00  0.00     0.267 C
HETATM   23  O1  UNL     1      50.812  51.547  36.463  1.00  0.00    -0.264 OA
BRANCH  22  24
HETATM   24  C2  UNL     1      52.204  50.208  35.063  1.00  0.00     0.037 C
HETATM   25  C1  UNL     1      52.260  48.801  34.498  1.00  0.00     0.025 C
HETATM   26  C3  UNL     1      52.268  51.129  33.837  1.00  0.00     0.025 C
HETATM   27  C4  UNL     1      53.454  50.446  35.836  1.00  0.00     0.025 C
ENDBRANCH  22  24
ENDBRANCH  21  22
ENDBRANCH   1  21
BRANCH   7  28
HETATM   28  C20 UNL     1      47.585  49.168  37.447  1.00  0.00     0.185 C
HETATM   29  O5  UNL     1      47.752  49.943  38.389  1.00  0.00    -0.647 OA
HETATM   30  O6  UNL     1      47.577  47.806  37.714  1.00  0.00    -0.647 OA
ENDBRANCH   7  28
TORSDOF 5
ENDMDL