MODEL 5
REMARK VINA RESULT: -10.160697852      2.549      3.501
REMARK  10 active torsions:
REMARK  status: ('A' for Active; 'I' for Inactive)
REMARK    1  A    between atoms: C2_2  and  C3_3
REMARK    2  A    between atoms: C2_2  and  C13_20
REMARK    3  A    between atoms: C3_3  and  C4_4
REMARK    4  A    between atoms: C4_4  and  C5_5
REMARK    5  A    between atoms: C5_5  and  N1_7
REMARK    6  A    between atoms: N1_7  and  C6_9
REMARK    7  A    between atoms: C6_9  and  C7_10
REMARK    8  A    between atoms: C7_10  and  N2_11
REMARK    9  A    between atoms: C24_31  and  O1_32
REMARK   10  A    between atoms: C27_36  and  O2_37
ROOT
HETATM    1  N2  UNL     1      55.375  44.814   5.796  1.00  0.00    -0.369 N
HETATM    2  C8  UNL     1      55.481  45.865   4.780  1.00  0.00     0.124 C
HETATM    3  C9  UNL     1      54.151  45.844   4.054  1.00  0.00     0.027 C
HETATM    4  C10 UNL     1      53.822  44.372   4.074  1.00  0.00     0.078 C
HETATM    5  C11 UNL     1      54.321  43.957   5.392  1.00  0.00     0.088 C
HETATM    6  N3  UNL     1      53.884  42.976   6.088  1.00  0.00    -0.283 N
ATOM      7  H3  UNL     1      54.297  42.765   6.996  1.00  0.00     0.179 HD
HETATM    8  C12 UNL     1      52.842  42.199   5.595  1.00  0.00     0.183 C
HETATM    9  N4  UNL     1      51.977  41.541   5.169  1.00  0.00    -0.172 NA
ENDROOT
BRANCH   1  10
HETATM   10  C7  UNL     1      56.251  44.791   6.933  1.00  0.00     0.143 C
BRANCH  10  11
HETATM   11  C6  UNL     1      55.520  44.651   8.251  1.00  0.00     0.140 C
BRANCH  11  12
HETATM   12  N1  UNL     1      55.857  45.810   9.057  1.00  0.00    -0.383 N
ATOM     13  H1  UNL     1      56.555  45.692   9.791  1.00  0.00     0.160 HD
BRANCH  12  14
HETATM   14  C5  UNL     1      55.286  47.090   8.893  1.00  0.00     0.073 C
HETATM   15  S1  UNL     1      54.000  47.238   7.864  1.00  0.00    -0.066 SA
BRANCH  14  16
HETATM   16  C4  UNL     1      55.733  48.250   9.636  1.00  0.00     0.069 C
BRANCH  16  17
HETATM   17  C3  UNL     1      55.245  48.522  10.998  1.00  0.00     0.011 C
BRANCH  17  18
HETATM   18  C2  UNL     1      55.975  49.400  11.924  1.00  0.00    -0.014 C
HETATM   19  C1  UNL     1      57.375  49.702  11.283  1.00  0.00     0.010 C
BRANCH  18  20
HETATM   20  C13 UNL     1      55.364  50.648  12.353  1.00  0.00    -0.006 C
HETATM   21  C14 UNL     1      56.357  51.376  13.331  1.00  0.00     0.006 C
HETATM   22  C15 UNL     1      55.496  52.471  13.923  1.00  0.00     0.010 C
HETATM   23  C16 UNL     1      54.328  51.654  14.339  1.00  0.00    -0.036 C
HETATM   24  C17 UNL     1      54.699  50.825  15.545  1.00  0.00     0.016 C
HETATM   25  C18 UNL     1      54.122  50.778  13.082  1.00  0.00    -0.002 C
HETATM   26  C22 UNL     1      53.062  52.390  14.544  1.00  0.00     0.001 C
HETATM   27  C19 UNL     1      53.324  49.645  13.577  1.00  0.00     0.006 C
HETATM   28  C20 UNL     1      51.948  50.204  13.979  1.00  0.00     0.006 C
HETATM   29  C21 UNL     1      51.947  51.411  14.803  1.00  0.00    -0.005 C
HETATM   30  C30 UNL     1      50.663  52.205  14.499  1.00  0.00     0.003 C
HETATM   31  C25 UNL     1      50.558  53.417  15.375  1.00  0.00     0.012 C
HETATM   32  C29 UNL     1      49.433  51.367  14.728  1.00  0.00     0.008 C
HETATM   33  C24 UNL     1      51.735  53.650  16.265  1.00  0.00     0.129 C
HETATM   34  C26 UNL     1      50.324  54.683  14.541  1.00  0.00     0.021 C
HETATM   35  C27 UNL     1      49.339  53.252  16.244  1.00  0.00     0.129 C
HETATM   36  C23 UNL     1      53.068  53.411  15.640  1.00  0.00     0.038 C
HETATM   37  C28 UNL     1      48.766  51.885  15.970  1.00  0.00     0.033 C
BRANCH  33  38
HETATM   38  O1  UNL     1      51.573  52.965  17.489  1.00  0.00    -0.395 OA
ATOM     39  H1  UNL     1      51.508  53.552  18.232  1.00  0.00     0.210 HD
ENDBRANCH  33  38
BRANCH  35  40
HETATM   40  O2  UNL     1      48.379  54.241  16.023  1.00  0.00    -0.395 OA
ATOM     41  H2  UNL     1      48.725  55.120  16.122  1.00  0.00     0.210 HD
ENDBRANCH  35  40
ENDBRANCH  18  20
ENDBRANCH  17  18
ENDBRANCH  16  17
ENDBRANCH  14  16
ENDBRANCH  12  14
ENDBRANCH  11  12
ENDBRANCH  10  11
ENDBRANCH   1  10
TORSDOF 10
ENDMDL