MODEL 3
REMARK VINA RESULT: -8.130729820      5.874      8.801
REMARK  8 active torsions:
REMARK  status: ('A' for Active; 'I' for Inactive)
REMARK    1  A    between atoms: C2_2  and  C3_3
REMARK    2  A    between atoms: C3_3  and  O1_4
REMARK    3  A    between atoms: O1_4  and  C4_5
REMARK    4  A    between atoms: C14_15  and  C16_17
REMARK       I    between atoms: C16_17  and  N1_19
REMARK    5  A    between atoms: N1_19  and  C17_21
REMARK    6  A    between atoms: C17_21  and  C18_22
REMARK    7  A    between atoms: C18_22  and  N2_23
REMARK    8  A    between atoms: C24_32  and  O3_33
ROOT
HETATM    1  C4  UNL     1      52.062  36.672  14.835  1.00  0.00     0.130 C
HETATM    2  C5  UNL     1      53.395  36.753  14.108  1.00  0.00     0.043 C
HETATM    3  C6  UNL     1      53.563  38.220  13.883  1.00  0.00    -0.030 C
HETATM    4  C7  UNL     1      54.204  38.749  15.181  1.00  0.00     0.016 C
HETATM    5  C8  UNL     1      52.233  38.868  13.811  1.00  0.00     0.005 C
HETATM    6  C9  UNL     1      51.750  39.267  12.461  1.00  0.00     0.007 C
HETATM    7  C10 UNL     1      52.794  39.894  11.588  1.00  0.00     0.006 C
HETATM    8  C11 UNL     1      54.179  39.925  12.257  1.00  0.00    -0.001 C
HETATM    9  C12 UNL     1      55.186  40.623  11.461  1.00  0.00    -0.002 C
HETATM   10  C13 UNL     1      54.769  41.024  10.057  1.00  0.00     0.024 C
HETATM   11  C14 UNL     1      55.759  42.096   9.598  1.00  0.00     0.040 C
HETATM   12  C15 UNL     1      55.457  43.329  10.455  1.00  0.00     0.025 C
HETATM   13  C23 UNL     1      57.173  41.679   9.671  1.00  0.00     0.051 C
HETATM   14  C24 UNL     1      57.566  40.909  10.901  1.00  0.00     0.123 C
HETATM   15  C25 UNL     1      56.492  39.890  11.258  1.00  0.00     0.019 C
HETATM   16  C26 UNL     1      56.938  39.125  12.441  1.00  0.00     0.008 C
HETATM   17  C27 UNL     1      55.902  38.283  13.101  1.00  0.00     0.011 C
HETATM   18  C28 UNL     1      54.485  38.530  12.693  1.00  0.00    -0.032 C
HETATM   19  C29 UNL     1      54.198  37.611  11.526  1.00  0.00     0.016 C
HETATM   20  C30 UNL     1      51.286  37.894  14.463  1.00  0.00    -0.017 C
HETATM   21  C31 UNL     1      50.159  37.461  13.544  1.00  0.00     0.018 C
HETATM   22  C32 UNL     1      50.600  38.491  15.699  1.00  0.00     0.018 C
ENDROOT
BRANCH  11  23
HETATM   23  C16 UNL     1      55.466  42.505   8.192  1.00  0.00     0.226 C
HETATM   24  O2  UNL     1      56.348  43.091   7.525  1.00  0.00    -0.273 OA
HETATM   25  N1  UNL     1      54.184  42.204   7.680  1.00  0.00    -0.359 N
ATOM     26  H1  UNL     1      53.524  41.722   8.290  1.00  0.00     0.162 HD
BRANCH  25  27
HETATM   27  C17 UNL     1      53.752  42.540   6.338  1.00  0.00     0.152 C
BRANCH  27  28
HETATM   28  C18 UNL     1      53.378  43.997   6.175  1.00  0.00     0.292 C
BRANCH  28  29
HETATM   29  N2  UNL     1      54.458  44.587   5.369  1.00  0.00     0.093 N
HETATM   30  C19 UNL     1      54.640  45.974   5.774  1.00  0.00     0.300 C
HETATM   31  C20 UNL     1      53.647  46.852   5.054  1.00  0.00     0.262 C
HETATM   32  N3  UNL     1      54.030  46.960   3.658  1.00  0.00    -0.072 N
HETATM   33  C21 UNL     1      54.727  45.751   3.254  1.00  0.00     0.262 C
ATOM     34  H32 UNL     1      53.234  47.167   3.055  1.00  0.00     0.277 HD
ATOM     35  H31 UNL     1      54.576  47.801   3.472  1.00  0.00     0.277 HD
HETATM   36  C22 UNL     1      54.154  44.539   3.971  1.00  0.00     0.300 C
ENDBRANCH  28  29
ENDBRANCH  27  28
ENDBRANCH  25  27
ENDBRANCH  11  23
BRANCH  14  37
HETATM   37  O3  UNL     1      57.981  41.676  11.949  1.00  0.00    -0.395 OA
ATOM     38  H3  UNL     1      58.916  41.654  12.113  1.00  0.00     0.210 HD
ENDBRANCH  14  37
BRANCH   1  39
HETATM   39  O1  UNL     1      52.314  36.646  16.192  1.00  0.00    -0.381 OA
BRANCH  39  40
HETATM   40  C3  UNL     1      53.079  35.550  16.559  1.00  0.00     0.194 C
BRANCH  40  41
HETATM   41  C2  UNL     1      53.492  35.695  17.974  1.00  0.00    -0.011 C
HETATM   42  C1  UNL     1      52.768  36.445  18.820  1.00  0.00     0.009 C
ENDBRANCH  40  41
ENDBRANCH  39  40
ENDBRANCH   1  39
TORSDOF 8
ENDMDL