MODEL 4
REMARK VINA RESULT: -8.898039496      4.573      7.672
REMARK  9 active torsions:
REMARK  status: ('A' for Active; 'I' for Inactive)
REMARK    1  A    between atoms: C2_2  and  C4_4
REMARK    2  A    between atoms: C5_5  and  O1_6
REMARK    3  A    between atoms: C16_18  and  C17_19
REMARK    4  A    between atoms: C17_19  and  C18_20
REMARK       I    between atoms: C18_20  and  N1_22
REMARK    5  A    between atoms: N1_22  and  C19_24
REMARK    6  A    between atoms: C19_24  and  C20_25
REMARK    7  A    between atoms: C20_25  and  O3_26
REMARK    8  A    between atoms: C20_25  and  C21_28
REMARK    9  A    between atoms: C21_28  and  N2_29
ROOT
HETATM    1  C4  UNL     1      51.198  36.918  12.767  1.00  0.00     0.026 C
HETATM    2  C5  UNL     1      50.374  38.014  13.346  1.00  0.00     0.123 C
HETATM    3  C6  UNL     1      51.105  38.946  14.251  1.00  0.00     0.032 C
HETATM    4  C7  UNL     1      52.553  39.051  14.078  1.00  0.00     0.008 C
HETATM    5  C8  UNL     1      53.260  38.184  13.115  1.00  0.00    -0.001 C
HETATM    6  C9  UNL     1      54.431  38.966  12.526  1.00  0.00    -0.003 C
HETATM    7  C10 UNL     1      55.763  38.307  12.689  1.00  0.00     0.006 C
HETATM    8  C11 UNL     1      56.789  39.435  12.463  1.00  0.00     0.008 C
HETATM    9  C12 UNL     1      56.573  39.982  11.093  1.00  0.00     0.024 C
HETATM   10  C13 UNL     1      57.688  40.802  10.547  1.00  0.00    -0.009 C
HETATM   11  C14 UNL     1      58.068  42.027  11.265  1.00  0.00     0.010 C
HETATM   12  C15 UNL     1      57.356  41.020   9.060  1.00  0.00     0.037 C
HETATM   13  C16 UNL     1      56.021  41.771   9.113  1.00  0.00     0.131 C
HETATM   14  O4  UNL     1      55.047  40.907   9.536  1.00  0.00    -0.374 OA
HETATM   15  C26 UNL     1      55.186  40.583  10.881  1.00  0.00     0.066 C
HETATM   16  C27 UNL     1      54.824  41.672  11.811  1.00  0.00     0.047 C
HETATM   17  C28 UNL     1      54.262  39.372  11.113  1.00  0.00     0.025 C
HETATM   18  C29 UNL     1      52.844  39.605  10.815  1.00  0.00     0.009 C
HETATM   19  C30 UNL     1      52.137  38.258  10.865  1.00  0.00     0.010 C
HETATM   20  C31 UNL     1      52.449  37.458  12.103  1.00  0.00    -0.034 C
HETATM   21  C32 UNL     1      53.190  36.205  11.603  1.00  0.00     0.016 C
ENDROOT
BRANCH  13  22
HETATM   22  C17 UNL     1      55.794  42.438   7.821  1.00  0.00     0.134 C
BRANCH  22  23
HETATM   23  C18 UNL     1      56.131  43.849   7.703  1.00  0.00     0.220 C
HETATM   24  O2  UNL     1      57.010  44.230   6.871  1.00  0.00    -0.274 OA
HETATM   25  N1  UNL     1      55.458  44.784   8.536  1.00  0.00    -0.358 N
ATOM     26  H1  UNL     1      54.753  44.468   9.202  1.00  0.00     0.162 HD
BRANCH  25  27
HETATM   27  C19 UNL     1      55.784  46.194   8.427  1.00  0.00     0.159 C
BRANCH  27  28
HETATM   28  C20 UNL     1      54.662  46.982   7.789  1.00  0.00     0.174 C
BRANCH  28  29
HETATM   29  O3  UNL     1      53.942  47.568   8.828  1.00  0.00    -0.389 OA
ATOM     30  H3  UNL     1      53.024  47.395   8.656  1.00  0.00     0.210 HD
ENDBRANCH  28  29
BRANCH  28  31
HETATM   31  C21 UNL     1      53.775  46.126   6.950  1.00  0.00     0.091 C
BRANCH  31  32
HETATM   32  N2  UNL     1      54.132  45.933   5.620  1.00  0.00    -0.391 N
HETATM   33  C22 UNL     1      53.947  46.973   4.683  1.00  0.00     0.122 C
HETATM   34  C23 UNL     1      54.712  46.416   3.472  1.00  0.00     0.021 C
HETATM   35  C24 UNL     1      54.330  44.953   3.542  1.00  0.00     0.021 C
HETATM   36  C25 UNL     1      53.972  44.674   5.008  1.00  0.00     0.122 C
ENDBRANCH  31  32
ENDBRANCH  28  31
ENDBRANCH  27  28
ENDBRANCH  25  27
ENDBRANCH  22  23
ENDBRANCH  13  22
BRANCH   1  37
HETATM   37  C2  UNL     1      51.340  35.685  13.543  1.00  0.00    -0.015 C
HETATM   38  C1  UNL     1      51.370  35.659  15.003  1.00  0.00     0.010 C
HETATM   39  C3  UNL     1      50.271  34.660  13.095  1.00  0.00     0.010 C
ENDBRANCH   1  37
BRANCH   2  40
HETATM   40  O1  UNL     1      49.186  37.533  13.889  1.00  0.00    -0.395 OA
ATOM     41  H1  UNL     1      49.128  37.712  14.820  1.00  0.00     0.210 HD
ENDBRANCH   2  40
TORSDOF 9
ENDMDL