MODEL 1
REMARK VINA RESULT: -8.553741225      0.000      0.000
REMARK  8 active torsions:
REMARK  status: ('A' for Active; 'I' for Inactive)
REMARK    1  A    between atoms: O1_2  and  C2_3
REMARK    2  A    between atoms: C2_3  and  C3_4
REMARK    3  A    between atoms: C3_4  and  C4_5
REMARK    4  A    between atoms: C3_4  and  C15_21
REMARK    5  A    between atoms: C4_5  and  O2_6
REMARK    6  A    between atoms: C4_5  and  C5_8
REMARK    7  A    between atoms: C5_8  and  C6_9
REMARK    8  A    between atoms: C31_38  and  O4_39
ROOT
HETATM    1  C15 UNL     1      54.303  39.027  10.099  1.00  0.00     0.030 C
HETATM    2  C16 UNL     1      55.287  39.905  10.890  1.00  0.00     0.010 C
HETATM    3  C17 UNL     1      54.455  40.725  11.827  1.00  0.00     0.006 C
HETATM    4  C18 UNL     1      53.222  39.901  12.056  1.00  0.00     0.002 C
HETATM    5  C19 UNL     1      53.192  39.418  13.443  1.00  0.00    -0.001 C
HETATM    6  C20 UNL     1      54.464  38.970  14.080  1.00  0.00     0.033 C
HETATM    7  C21 UNL     1      54.236  38.440  15.471  1.00  0.00    -0.022 C
HETATM    8  C22 UNL     1      53.105  38.043  15.931  1.00  0.00    -0.064 C
HETATM    9  C23 UNL     1      52.931  37.523  17.332  1.00  0.00     0.118 C
HETATM   10  C24 UNL     1      51.824  38.386  17.914  1.00  0.00     0.152 C
HETATM   11  O3  UNL     1      51.617  38.334  19.155  1.00  0.00    -0.293 OA
HETATM   12  C25 UNL     1      51.006  39.262  17.088  1.00  0.00     0.047 C
HETATM   13  C26 UNL     1      51.023  39.133  15.784  1.00  0.00    -0.009 C
HETATM   14  C27 UNL     1      51.889  38.074  15.118  1.00  0.00     0.001 C
HETATM   15  C28 UNL     1      51.057  36.807  15.230  1.00  0.00     0.025 C
HETATM   16  C29 UNL     1      52.043  38.442  13.690  1.00  0.00     0.009 C
HETATM   17  C30 UNL     1      52.262  37.312  12.739  1.00  0.00     0.039 C
HETATM   18  C31 UNL     1      53.138  37.518  11.581  1.00  0.00     0.127 C
HETATM   19  C32 UNL     1      53.130  38.895  10.927  1.00  0.00    -0.006 C
HETATM   20  C33 UNL     1      51.766  38.905  10.282  1.00  0.00     0.019 C
ENDROOT
BRANCH   1  21
HETATM   21  C3  UNL     1      54.401  39.450   8.690  1.00  0.00    -0.019 C
BRANCH  21  22
HETATM   22  C2  UNL     1      54.279  38.484   7.586  1.00  0.00     0.204 C
BRANCH  22  23
HETATM   23  O1  UNL     1      54.840  38.795   6.373  1.00  0.00    -0.392 OA
HETATM   24  C1  UNL     1      53.947  38.975   5.352  1.00  0.00     0.201 C
ENDBRANCH  22  23
ENDBRANCH  21  22
BRANCH  21  25
HETATM   25  C4  UNL     1      55.198  40.697   8.402  1.00  0.00     0.067 C
BRANCH  25  26
HETATM   26  O2  UNL     1      56.453  40.479   7.872  1.00  0.00    -0.361 OA
ATOM     27  H2  UNL     1      56.934  41.265   7.641  1.00  0.00     0.217 HD
ENDBRANCH  25  26
BRANCH  25  28
HETATM   28  C5  UNL     1      54.474  41.898   7.951  1.00  0.00     0.015 C
BRANCH  28  29
HETATM   29  C6  UNL     1      55.150  43.089   7.448  1.00  0.00     0.021 C
HETATM   30  C7  UNL     1      54.050  44.159   7.174  1.00  0.00    -0.005 C
HETATM   31  C8  UNL     1      53.101  43.697   6.116  1.00  0.00     0.011 C
HETATM   32  C9  UNL     1      54.700  45.432   6.707  1.00  0.00     0.017 C
HETATM   33  C10 UNL     1      55.851  45.168   5.780  1.00  0.00     0.237 C
HETATM   34  C12 UNL     1      55.455  46.032   7.904  1.00  0.00     0.040 C
HETATM   35  N1  UNL     1      57.018  44.939   6.601  1.00  0.00    -0.070 N
HETATM   36  C11 UNL     1      56.609  45.060   7.985  1.00  0.00     0.190 C
ATOM     37  H12 UNL     1      57.479  44.051   6.399  1.00  0.00     0.277 HD
ATOM     38  H11 UNL     1      57.799  45.551   6.362  1.00  0.00     0.277 HD
HETATM   39  C13 UNL     1      56.063  43.730   8.470  1.00  0.00     0.020 C
HETATM   40  C14 UNL     1      55.449  43.950   9.808  1.00  0.00     0.012 C
ENDBRANCH  28  29
ENDBRANCH  25  28
ENDBRANCH  21  25
ENDBRANCH   1  21
BRANCH  18  41
HETATM   41  O4  UNL     1      52.634  36.640  10.571  1.00  0.00    -0.395 OA
ATOM     42  H4  UNL     1      53.152  36.830   9.798  1.00  0.00     0.210 HD
ENDBRANCH  18  41
TORSDOF 8
ENDMDL