MODEL 1
REMARK VINA RESULT: -6.772135536      0.000      0.000
REMARK  8 active torsions:
REMARK  status: ('A' for Active; 'I' for Inactive)
REMARK    1  A    between atoms: C3_3  and  C4_4
REMARK       I    between atoms: C4_4  and  N1_6
REMARK    2  A    between atoms: N1_6  and  C5_8
REMARK    3  A    between atoms: C6_9  and  O2_10
REMARK    4  A    between atoms: C8_13  and  C9_14
REMARK    5  A    between atoms: C15_22  and  C16_23
REMARK    6  A    between atoms: C16_23  and  C18_25
REMARK    7  A    between atoms: C26_33  and  C27_34
REMARK    8  A    between atoms: C28_37  and  C30_39
ROOT
HETATM    1  C5  UNL     1      54.410  39.380  10.812  1.00  0.00     0.134 C
HETATM    2  C6  UNL     1      54.549  40.381  11.988  1.00  0.00     0.143 C
HETATM    3  C7  UNL     1      53.871  39.719  13.207  1.00  0.00     0.056 C
HETATM    4  C8  UNL     1      54.129  38.318  12.742  1.00  0.00     0.075 C
HETATM    5  C10 UNL     1      53.789  37.157  13.639  1.00  0.00     0.027 C
HETATM    6  C11 UNL     1      52.358  37.059  13.921  1.00  0.00     0.005 C
HETATM    7  C12 UNL     1      51.872  36.083  12.835  1.00  0.00     0.000 C
HETATM    8  C13 UNL     1      50.485  36.288  12.398  1.00  0.00     0.006 C
HETATM    9  C14 UNL     1      49.804  37.067  13.541  1.00  0.00     0.006 C
HETATM   10  C15 UNL     1      50.264  36.627  14.889  1.00  0.00    -0.003 C
HETATM   11  C20 UNL     1      51.714  36.979  15.210  1.00  0.00    -0.039 C
HETATM   12  C21 UNL     1      51.772  38.370  15.881  1.00  0.00     0.015 C
HETATM   13  C22 UNL     1      52.155  36.062  16.281  1.00  0.00     0.015 C
HETATM   14  C23 UNL     1      52.988  35.958  11.920  1.00  0.00    -0.025 C
HETATM   15  C24 UNL     1      52.864  34.659  11.132  1.00  0.00     0.016 C
HETATM   16  C25 UNL     1      53.239  37.046  10.926  1.00  0.00     0.034 C
HETATM   17  C26 UNL     1      53.452  38.419  11.457  1.00  0.00     0.090 C
HETATM   18  C28 UNL     1      54.115  35.879  12.930  1.00  0.00     0.022 C
HETATM   19  C29 UNL     1      55.363  35.641  12.193  1.00  0.00     0.024 C
ENDROOT
BRANCH   1  20
HETATM   20  N1  UNL     1      53.906  40.123   9.679  1.00  0.00    -0.349 N
HETATM   21  C4  UNL     1      54.715  40.366   8.568  1.00  0.00     0.241 C
HETATM   22  O1  UNL     1      55.930  39.930   8.531  1.00  0.00    -0.269 OA
ATOM     23  H1  UNL     1      52.949  40.475   9.692  1.00  0.00     0.163 HD
BRANCH  21  24
HETATM   24  C3  UNL     1      54.302  41.096   7.394  1.00  0.00     0.070 C
HETATM   25  C2  UNL     1      54.322  42.402   7.366  1.00  0.00    -0.026 C
HETATM   26  C1  UNL     1      53.894  43.166   6.149  1.00  0.00     0.036 C
ENDBRANCH  21  24
ENDBRANCH   1  20
BRANCH   2  27
HETATM   27  O2  UNL     1      53.988  41.599  11.690  1.00  0.00    -0.393 OA
ATOM     28  H2  UNL     1      53.040  41.569  11.728  1.00  0.00     0.210 HD
ENDBRANCH   2  27
BRANCH  17  29
HETATM   29  C27 UNL     1      52.246  39.129  11.149  1.00  0.00     0.185 C
HETATM   30  O5  UNL     1      51.448  39.922  11.599  1.00  0.00    -0.647 OA
HETATM   31  O6  UNL     1      51.730  38.848   9.826  1.00  0.00    -0.647 OA
ENDBRANCH  17  29
BRANCH   4  32
HETATM   32  C9  UNL     1      55.583  38.383  12.891  1.00  0.00     0.183 C
HETATM   33  O3  UNL     1      56.613  38.428  12.288  1.00  0.00    -0.647 OA
HETATM   34  O4  UNL     1      55.961  38.406  14.289  1.00  0.00    -0.647 OA
ENDBRANCH   4  32
BRANCH  18  35
HETATM   35  C30 UNL     1      54.062  34.706  13.828  1.00  0.00     0.241 C
HETATM   36  O7  UNL     1      54.783  34.659  14.802  1.00  0.00    -0.306 OA
ENDBRANCH  18  35
BRANCH  10  37
HETATM   37  C16 UNL     1      49.295  36.829  15.983  1.00  0.00    -0.014 C
HETATM   38  C17 UNL     1      48.263  37.894  15.797  1.00  0.00     0.010 C
BRANCH  37  39
HETATM   39  C18 UNL     1      48.598  35.523  16.298  1.00  0.00     0.000 C
HETATM   40  C19 UNL     1      47.181  35.513  15.747  1.00  0.00     0.005 C
ENDBRANCH  37  39
ENDBRANCH  10  37
TORSDOF 8
ENDMDL