MODEL 1
REMARK VINA RESULT: -7.118439140      0.000      0.000
REMARK  9 active torsions:
REMARK  status: ('A' for Active; 'I' for Inactive)
REMARK       I    between atoms: N1_2  and  C2_4
REMARK    1  A    between atoms: C2_4  and  C3_6
REMARK    2  A    between atoms: C8_11  and  C9_12
REMARK    3  A    between atoms: C9_12  and  C11_14
REMARK    4  A    between atoms: C11_14  and  C12_15
REMARK    5  A    between atoms: C12_15  and  C13_16
REMARK       I    between atoms: C13_16  and  N2_18
REMARK    6  A    between atoms: N2_18  and  C14_20
REMARK    7  A    between atoms: C14_20  and  C15_21
REMARK    8  A    between atoms: C15_21  and  O4_23
REMARK    9  A    between atoms: C28_36  and  O5_37
ROOT
HETATM    1  C3  UNL     1      54.204  39.056  10.758  1.00  0.00     0.053 C
HETATM    2  C4  UNL     1      52.855  39.563  11.289  1.00  0.00     0.021 C
HETATM    3  C5  UNL     1      52.790  39.809  12.733  1.00  0.00     0.011 C
HETATM    4  C6  UNL     1      53.048  38.515  13.522  1.00  0.00    -0.032 C
HETATM    5  C7  UNL     1      53.495  39.018  14.873  1.00  0.00     0.016 C
HETATM    6  C8  UNL     1      51.717  37.781  13.593  1.00  0.00    -0.002 C
HETATM    7  C17 UNL     1      52.098  36.315  13.437  1.00  0.00     0.006 C
HETATM    8  C18 UNL     1      53.199  36.426  12.404  1.00  0.00     0.011 C
HETATM    9  C19 UNL     1      54.008  37.629  12.856  1.00  0.00    -0.032 C
HETATM   10  C20 UNL     1      54.977  37.001  13.873  1.00  0.00     0.016 C
HETATM   11  C21 UNL     1      54.867  38.175  11.748  1.00  0.00     0.013 C
HETATM   12  C22 UNL     1      56.189  38.568  12.290  1.00  0.00     0.007 C
HETATM   13  C23 UNL     1      56.980  39.516  11.372  1.00  0.00     0.007 C
HETATM   14  C24 UNL     1      56.098  40.660  11.192  1.00  0.00     0.005 C
HETATM   15  C25 UNL     1      56.615  41.937  10.689  1.00  0.00    -0.017 C
HETATM   16  C26 UNL     1      57.893  41.890   9.917  1.00  0.00     0.018 C
HETATM   17  C27 UNL     1      56.902  42.870  11.883  1.00  0.00     0.018 C
HETATM   18  C28 UNL     1      55.439  42.511   9.967  1.00  0.00     0.127 C
HETATM   19  C29 UNL     1      54.272  41.538  10.149  1.00  0.00     0.043 C
HETATM   20  C30 UNL     1      54.994  40.210  10.230  1.00  0.00    -0.021 C
HETATM   21  C31 UNL     1      55.538  39.964   8.844  1.00  0.00     0.017 C
ENDROOT
BRANCH   6  22
HETATM   22  C9  UNL     1      50.861  38.038  14.748  1.00  0.00    -0.013 C
HETATM   23  C10 UNL     1      50.803  37.085  15.885  1.00  0.00     0.010 C
BRANCH  22  24
HETATM   24  C11 UNL     1      49.524  38.589  14.438  1.00  0.00     0.014 C
BRANCH  24  25
HETATM   25  C12 UNL     1      49.400  40.035  14.120  1.00  0.00     0.103 C
BRANCH  25  26
HETATM   26  C13 UNL     1      49.439  40.870  15.383  1.00  0.00     0.217 C
HETATM   27  O2  UNL     1      48.818  41.947  15.407  1.00  0.00    -0.274 OA
HETATM   28  N2  UNL     1      50.154  40.458  16.522  1.00  0.00    -0.352 N
ATOM     29  H2  UNL     1      50.656  39.571  16.491  1.00  0.00     0.162 HD
BRANCH  28  30
HETATM   30  C14 UNL     1      50.205  41.229  17.711  1.00  0.00     0.233 C
BRANCH  30  31
HETATM   31  C15 UNL     1      51.073  40.685  18.783  1.00  0.00     0.276 C
HETATM   32  O3  UNL     1      52.291  40.980  18.829  1.00  0.00    -0.263 OA
BRANCH  31  33
HETATM   33  O4  UNL     1      50.591  39.845  19.760  1.00  0.00    -0.325 OA
HETATM   34  C16 UNL     1      50.789  38.444  19.755  1.00  0.00     0.213 C
ENDBRANCH  31  33
ENDBRANCH  30  31
ENDBRANCH  28  30
ENDBRANCH  25  26
ENDBRANCH  24  25
ENDBRANCH  22  24
ENDBRANCH   6  22
BRANCH   1  35
HETATM   35  C2  UNL     1      53.776  38.279   9.527  1.00  0.00     0.227 C
HETATM   36  N1  UNL     1      52.683  38.657   8.719  1.00  0.00    -0.365 N
HETATM   37  C1  UNL     1      52.300  37.885   7.550  1.00  0.00     0.149 C
ATOM     38  H1  UNL     1      52.149  39.491   8.962  1.00  0.00     0.161 HD
HETATM   39  O1  UNL     1      54.395  37.228   9.159  1.00  0.00    -0.273 OA
ENDBRANCH   1  35
BRANCH  18  40
HETATM   40  O5  UNL     1      55.023  43.746  10.535  1.00  0.00    -0.395 OA
ATOM     41  H5  UNL     1      54.496  43.615  11.314  1.00  0.00     0.210 HD
ENDBRANCH  18  40
TORSDOF 9
ENDMDL