MODEL 5
REMARK VINA RESULT: -6.183897661      3.942      7.909
REMARK  11 active torsions:
REMARK  status: ('A' for Active; 'I' for Inactive)
REMARK    1  A    between atoms: C2_2  and  C3_3
REMARK    2  A    between atoms: C2_2  and  C4_6
REMARK    3  A    between atoms: C3_3  and  O1_4
REMARK    4  A    between atoms: C4_6  and  C5_8
REMARK    5  A    between atoms: C14_17  and  O3_18
REMARK    6  A    between atoms: C19_24  and  C20_25
REMARK    7  A    between atoms: C20_25  and  O4_26
REMARK    8  A    between atoms: C20_25  and  N1_28
REMARK    9  A    between atoms: C25_33  and  O5_34
REMARK   10  A    between atoms: O5_34  and  C26_35
REMARK   11  A    between atoms: C26_35  and  C27_36
ROOT
HETATM    1  C5  UNL     1      53.556  38.374  10.842  1.00  0.00     0.040 C
HETATM    2  C6  UNL     1      52.155  39.001  10.998  1.00  0.00     0.019 C
HETATM    3  C7  UNL     1      51.242  38.104  11.737  1.00  0.00     0.007 C
HETATM    4  C8  UNL     1      51.749  38.029  13.123  1.00  0.00     0.003 C
HETATM    5  C9  UNL     1      53.161  38.391  13.306  1.00  0.00     0.012 C
HETATM    6  C10 UNL     1      53.541  38.018  14.672  1.00  0.00     0.033 C
HETATM    7  C11 UNL     1      52.689  38.769  15.635  1.00  0.00    -0.023 C
HETATM    8  C12 UNL     1      51.496  39.168  15.329  1.00  0.00    -0.072 C
HETATM    9  C13 UNL     1      50.686  39.918  16.339  1.00  0.00     0.066 C
HETATM   10  C14 UNL     1      49.287  39.405  16.461  1.00  0.00     0.122 C
HETATM   11  C15 UNL     1      48.683  38.924  15.187  1.00  0.00     0.033 C
HETATM   12  C16 UNL     1      49.608  38.167  14.289  1.00  0.00     0.016 C
HETATM   13  C17 UNL     1      50.900  38.915  14.000  1.00  0.00    -0.017 C
HETATM   14  C18 UNL     1      50.572  40.261  13.455  1.00  0.00     0.020 C
HETATM   15  C19 UNL     1      54.169  38.125  12.172  1.00  0.00     0.044 C
HETATM   16  C23 UNL     1      55.211  39.195  12.570  1.00  0.00     0.022 C
HETATM   17  C24 UNL     1      56.216  39.711  11.709  1.00  0.00     0.033 C
HETATM   18  C25 UNL     1      55.829  41.066  11.023  1.00  0.00     0.122 C
HETATM   19  C28 UNL     1      54.346  40.823  10.761  1.00  0.00     0.037 C
HETATM   20  C29 UNL     1      54.279  39.517  10.091  1.00  0.00     0.001 C
HETATM   21  C30 UNL     1      53.633  39.809   8.751  1.00  0.00     0.011 C
ENDROOT
BRANCH   1  22
HETATM   22  C4  UNL     1      53.391  37.346   9.824  1.00  0.00     0.143 C
HETATM   23  O2  UNL     1      54.420  37.287   9.057  1.00  0.00    -0.297 OA
BRANCH  22  24
HETATM   24  C2  UNL     1      52.524  36.337   9.310  1.00  0.00     0.075 C
HETATM   25  C1  UNL     1      51.729  36.877   8.044  1.00  0.00     0.020 C
BRANCH  24  26
HETATM   26  C3  UNL     1      53.026  35.060   8.721  1.00  0.00     0.175 C
BRANCH  26  27
HETATM   27  O1  UNL     1      53.288  35.006   7.394  1.00  0.00    -0.400 OA
ATOM     28  H1  UNL     1      53.037  34.231   6.905  1.00  0.00     0.209 HD
ENDBRANCH  26  27
ENDBRANCH  24  26
ENDBRANCH  22  24
ENDBRANCH   1  22
BRANCH  15  29
HETATM   29  C20 UNL     1      54.900  36.871  12.367  1.00  0.00     0.123 C
BRANCH  29  30
HETATM   30  O4  UNL     1      56.147  37.079  12.735  1.00  0.00    -0.349 OA
ATOM     31  H4  UNL     1      56.741  36.441  12.357  1.00  0.00     0.219 HD
ENDBRANCH  29  30
BRANCH  29  32
HETATM   32  N1  UNL     1      54.696  35.517  12.287  1.00  0.00    -0.373 N
HETATM   33  C21 UNL     1      53.751  34.676  12.971  1.00  0.00     0.150 C
HETATM   34  C22 UNL     1      55.524  34.659  11.387  1.00  0.00     0.150 C
ENDBRANCH  29  32
ENDBRANCH  15  29
BRANCH  18  35
HETATM   35  O5  UNL     1      55.961  42.093  11.893  1.00  0.00    -0.375 OA
BRANCH  35  36
HETATM   36  C26 UNL     1      56.045  43.364  11.462  1.00  0.00     0.281 C
BRANCH  36  37
HETATM   37  C27 UNL     1      56.187  43.667  10.057  1.00  0.00     0.197 C
HETATM   38  O6  UNL     1      56.881  43.080   9.222  1.00  0.00    -0.646 OA
HETATM   39  O7  UNL     1      55.448  44.767   9.566  1.00  0.00    -0.646 OA
ENDBRANCH  36  37
ENDBRANCH  35  36
ENDBRANCH  18  35
BRANCH  10  40
HETATM   40  O3  UNL     1      49.219  38.376  17.420  1.00  0.00    -0.395 OA
ATOM     41  H3  UNL     1      48.906  38.715  18.251  1.00  0.00     0.210 HD
ENDBRANCH  10  40
TORSDOF 11
ENDMDL