MODEL 4
REMARK VINA RESULT: -7.098281840      1.128      1.550
REMARK  11 active torsions:
REMARK  status: ('A' for Active; 'I' for Inactive)
REMARK    1  A    between atoms: C2_2  and  C4_4
REMARK    2  A    between atoms: C4_4  and  C5_5
REMARK    3  A    between atoms: C5_5  and  N1_6
REMARK    4  A    between atoms: N1_6  and  C6_7
REMARK    5  A    between atoms: N1_6  and  C10_15
REMARK    6  A    between atoms: C6_7  and  O1_8
REMARK    7  A    between atoms: C6_7  and  C7_10
REMARK    8  A    between atoms: C7_10  and  C8_11
REMARK    9  A    between atoms: C8_11  and  C9_12
REMARK   10  A    between atoms: C24_30  and  O5_32
REMARK   11  A    between atoms: C30_38  and  O6_39
ROOT
HETATM    1  C10 UNL     1      52.608  37.612  11.812  1.00  0.00     0.033 C
HETATM    2  C11 UNL     1      51.549  36.621  12.287  1.00  0.00     0.039 C
HETATM    3  C12 UNL     1      53.878  36.882  11.360  1.00  0.00     0.032 C
HETATM    4  C13 UNL     1      54.295  37.561  10.041  1.00  0.00     0.015 C
HETATM    5  C14 UNL     1      53.364  37.106   8.956  1.00  0.00    -0.002 C
HETATM    6  C15 UNL     1      53.337  35.569   9.096  1.00  0.00     0.019 C
HETATM    7  C16 UNL     1      53.798  37.391   7.571  1.00  0.00     0.071 C
HETATM    8  C17 UNL     1      54.580  38.599   7.323  1.00  0.00     0.133 C
HETATM    9  O4  UNL     1      54.945  39.410   8.139  1.00  0.00    -0.298 OA
HETATM   10  C18 UNL     1      54.993  38.896   5.931  1.00  0.00     0.088 C
HETATM   11  C19 UNL     1      53.900  38.678   4.930  1.00  0.00    -0.031 C
HETATM   12  C20 UNL     1      53.099  39.989   4.873  1.00  0.00     0.016 C
HETATM   13  C21 UNL     1      54.561  38.579   3.564  1.00  0.00     0.010 C
HETATM   14  C22 UNL     1      55.481  37.401   3.462  1.00  0.00     0.004 C
HETATM   15  C23 UNL     1      54.982  36.218   4.207  1.00  0.00     0.038 C
HETATM   16  C24 UNL     1      53.496  36.237   4.467  1.00  0.00     0.059 C
HETATM   17  C25 UNL     1      52.805  36.054   3.118  1.00  0.00     0.046 C
HETATM   18  C26 UNL     1      53.037  37.497   5.163  1.00  0.00     0.033 C
HETATM   19  C27 UNL     1      52.647  37.266   6.603  1.00  0.00     0.005 C
HETATM   20  C28 UNL     1      51.415  38.027   6.998  1.00  0.00     0.009 C
HETATM   21  C29 UNL     1      51.520  38.691   8.326  1.00  0.00     0.039 C
HETATM   22  C30 UNL     1      52.007  37.648   9.344  1.00  0.00     0.068 C
HETATM   23  C31 UNL     1      51.993  38.366  10.665  1.00  0.00     0.069 C
ENDROOT
BRANCH   1  24
HETATM   24  N1  UNL     1      52.954  38.445  12.926  1.00  0.00    -0.356 N
BRANCH  24  25
HETATM   25  C5  UNL     1      54.233  39.167  12.997  1.00  0.00     0.126 C
BRANCH  25  26
HETATM   26  C4  UNL     1      54.114  40.600  12.572  1.00  0.00     0.024 C
BRANCH  26  27
HETATM   27  C2  UNL     1      55.002  40.937  11.408  1.00  0.00    -0.021 C
HETATM   28  C1  UNL     1      56.307  40.203  11.438  1.00  0.00     0.009 C
HETATM   29  C3  UNL     1      55.263  42.421  11.289  1.00  0.00     0.009 C
ENDBRANCH  26  27
ENDBRANCH  25  26
ENDBRANCH  24  25
BRANCH  24  30
HETATM   30  C6  UNL     1      52.064  38.638  14.013  1.00  0.00     0.114 C
BRANCH  30  31
HETATM   31  O1  UNL     1      51.184  39.578  13.790  1.00  0.00    -0.349 OA
ATOM     32  H1  UNL     1      50.823  39.945  14.589  1.00  0.00     0.219 HD
ENDBRANCH  30  31
BRANCH  30  33
HETATM   33  C7  UNL     1      51.997  37.970  15.298  1.00  0.00     0.094 C
BRANCH  33  34
HETATM   34  C8  UNL     1      52.795  38.754  16.342  1.00  0.00     0.121 C
BRANCH  34  35
HETATM   35  C9  UNL     1      51.852  39.541  17.157  1.00  0.00     0.172 C
HETATM   36  O2  UNL     1      52.253  40.241  18.094  1.00  0.00    -0.648 OA
HETATM   37  O3  UNL     1      50.475  39.539  16.917  1.00  0.00    -0.648 OA
ENDBRANCH  34  35
ENDBRANCH  33  34
ENDBRANCH  30  33
ENDBRANCH  24  30
ENDBRANCH   1  24
BRANCH  22  38
HETATM   38  O6  UNL     1      51.020  36.682   9.367  1.00  0.00    -0.389 OA
ATOM     39  H6  UNL     1      50.225  36.947   8.920  1.00  0.00     0.210 HD
ENDBRANCH  22  38
BRANCH  16  40
HETATM   40  O5  UNL     1      53.214  35.073   5.185  1.00  0.00    -0.390 OA
ATOM     41  H5  UNL     1      52.767  35.353   5.975  1.00  0.00     0.210 HD
ENDBRANCH  16  40
TORSDOF 11
ENDMDL