MODEL 3
REMARK VINA RESULT: -8.773239429      1.347      2.076
REMARK  9 active torsions:
REMARK  status: ('A' for Active; 'I' for Inactive)
REMARK    1  A    between atoms: C2_2  and  C4_4
REMARK    2  A    between atoms: C4_4  and  N1_5
REMARK    3  A    between atoms: C4_4  and  C11_15
REMARK       I    between atoms: N1_5  and  C5_7
REMARK    4  A    between atoms: C5_7  and  C6_9
REMARK    5  A    between atoms: C6_9  and  N2_10
REMARK    6  A    between atoms: C11_15  and  O2_16
REMARK    7  A    between atoms: C11_15  and  C31_38
REMARK    8  A    between atoms: O2_16  and  C12_17
REMARK    9  A    between atoms: C26_31  and  O3_32
ROOT
HETATM    1  C12 UNL     1      54.263  39.400   8.241  1.00  0.00     0.123 C
HETATM    2  C13 UNL     1      53.786  38.168   8.917  1.00  0.00     0.033 C
HETATM    3  C14 UNL     1      53.724  36.924   8.100  1.00  0.00     0.012 C
HETATM    4  C15 UNL     1      53.075  37.109   6.738  1.00  0.00    -0.040 C
HETATM    5  C16 UNL     1      51.568  37.209   7.029  1.00  0.00     0.015 C
HETATM    6  C17 UNL     1      53.272  35.842   5.982  1.00  0.00     0.010 C
HETATM    7  C18 UNL     1      54.127  35.928   4.759  1.00  0.00     0.006 C
HETATM    8  C19 UNL     1      53.512  37.057   3.931  1.00  0.00    -0.002 C
HETATM    9  C20 UNL     1      53.891  38.319   4.649  1.00  0.00    -0.005 C
HETATM   10  C21 UNL     1      55.361  38.464   4.347  1.00  0.00     0.006 C
HETATM   11  C22 UNL     1      55.560  37.789   2.992  1.00  0.00     0.010 C
HETATM   12  C23 UNL     1      54.267  37.133   2.635  1.00  0.00    -0.036 C
HETATM   13  C24 UNL     1      54.580  35.749   2.065  1.00  0.00     0.012 C
HETATM   14  C25 UNL     1      54.846  35.979   0.573  1.00  0.00     0.032 C
HETATM   15  C26 UNL     1      53.550  36.239  -0.160  1.00  0.00     0.118 C
HETATM   16  C27 UNL     1      52.638  36.996   0.781  1.00  0.00     0.032 C
HETATM   17  C28 UNL     1      53.466  37.936   1.630  1.00  0.00     0.012 C
HETATM   18  C29 UNL     1      53.533  38.367   6.074  1.00  0.00     0.001 C
HETATM   19  C30 UNL     1      54.694  39.000   6.826  1.00  0.00     0.037 C
ENDROOT
BRANCH   1  20
HETATM   20  O2  UNL     1      55.378  39.883   8.859  1.00  0.00    -0.368 OA
BRANCH  20  21
HETATM   21  C11 UNL     1      55.107  40.650  10.031  1.00  0.00     0.245 C
BRANCH  21  22
HETATM   22  C4  UNL     1      55.927  41.871  10.014  1.00  0.00     0.127 C
BRANCH  22  23
HETATM   23  C2  UNL     1      56.535  42.289  11.318  1.00  0.00     0.003 C
HETATM   24  C1  UNL     1      56.156  43.683  11.758  1.00  0.00     0.011 C
HETATM   25  C3  UNL     1      58.054  42.290  11.185  1.00  0.00     0.011 C
ENDBRANCH  22  23
BRANCH  22  26
HETATM   26  N1  UNL     1      55.353  43.049   9.398  1.00  0.00    -0.352 N
HETATM   27  C5  UNL     1      55.883  43.674   8.267  1.00  0.00     0.246 C
HETATM   28  O1  UNL     1      56.916  43.196   7.733  1.00  0.00    -0.272 OA
ATOM     29  H1  UNL     1      54.511  43.447   9.815  1.00  0.00     0.163 HD
BRANCH  27  30
HETATM   30  C6  UNL     1      55.295  44.867   7.670  1.00  0.00     0.375 C
BRANCH  30  31
HETATM   31  N2  UNL     1      54.076  44.684   6.936  1.00  0.00     0.103 N
HETATM   32  C7  UNL     1      53.514  45.959   6.506  1.00  0.00     0.300 C
HETATM   33  C8  UNL     1      54.167  46.293   5.215  1.00  0.00     0.001 C
HETATM   34  C9  UNL     1      54.632  45.178   4.710  1.00  0.00     0.001 C
HETATM   35  C10 UNL     1      54.311  44.070   5.634  1.00  0.00     0.300 C
ENDBRANCH  30  31
ENDBRANCH  27  30
ENDBRANCH  22  26
ENDBRANCH  21  22
BRANCH  21  36
HETATM   36  C31 UNL     1      55.123  39.795  11.217  1.00  0.00     0.205 C
HETATM   37  O4  UNL     1      54.234  39.769  12.107  1.00  0.00    -0.646 OA
HETATM   38  O5  UNL     1      56.179  38.928  11.423  1.00  0.00    -0.646 OA
ENDBRANCH  21  36
ENDBRANCH  20  21
ENDBRANCH   1  20
BRANCH  15  39
HETATM   39  O3  UNL     1      52.929  35.051  -0.528  1.00  0.00    -0.396 OA
ATOM     40  H3  UNL     1      52.393  34.708   0.178  1.00  0.00     0.210 HD
ENDBRANCH  15  39
TORSDOF 9
ENDMDL