MODEL 3
REMARK VINA RESULT: -10.007657790      2.446      3.141
REMARK  8 active torsions:
REMARK  status: ('A' for Active; 'I' for Inactive)
REMARK    1  A    between atoms: C2_2  and  C3_3
REMARK    2  A    between atoms: C2_2  and  C6_8
REMARK    3  A    between atoms: C3_3  and  C4_4
REMARK    4  A    between atoms: C4_4  and  C5_5
REMARK    5  A    between atoms: C15_17  and  N1_18
REMARK       I    between atoms: N1_18  and  C16_20
REMARK    6  A    between atoms: C16_20  and  C17_22
REMARK       I    between atoms: C17_22  and  N2_24
REMARK       I    between atoms: N2_24  and  C18_26
REMARK    7  A    between atoms: C18_26  and  O6_28
REMARK    8  A    between atoms: O6_28  and  C19_29
ROOT
HETATM    1  C6  UNL     1      51.008  38.315  14.983  1.00  0.00    -0.002 C
HETATM    2  C7  UNL     1      51.636  37.020  15.470  1.00  0.00     0.006 C
HETATM    3  C8  UNL     1      52.284  36.325  14.311  1.00  0.00     0.006 C
HETATM    4  C9  UNL     1      51.980  37.166  13.159  1.00  0.00     0.003 C
HETATM    5  C10 UNL     1      51.746  38.541  13.724  1.00  0.00    -0.036 C
HETATM    6  C11 UNL     1      53.114  39.120  14.151  1.00  0.00     0.016 C
HETATM    7  C12 UNL     1      51.248  39.422  12.672  1.00  0.00     0.010 C
HETATM    8  C13 UNL     1      52.194  39.425  11.472  1.00  0.00     0.008 C
HETATM    9  C14 UNL     1      52.471  38.064  10.957  1.00  0.00     0.017 C
HETATM   10  C15 UNL     1      53.376  38.127   9.759  1.00  0.00     0.089 C
HETATM   11  C26 UNL     1      53.524  36.701   9.243  1.00  0.00     0.026 C
HETATM   12  C27 UNL     1      52.547  35.762   9.862  1.00  0.00     0.003 C
HETATM   13  C28 UNL     1      52.576  35.689  11.348  1.00  0.00     0.010 C
HETATM   14  C29 UNL     1      52.890  37.065  11.980  1.00  0.00    -0.034 C
HETATM   15  C30 UNL     1      54.354  37.031  12.269  1.00  0.00     0.016 C
ENDROOT
BRANCH  10  16
HETATM   16  N1  UNL     1      52.809  38.949   8.725  1.00  0.00    -0.348 N
HETATM   17  C16 UNL     1      53.625  39.607   7.798  1.00  0.00     0.310 C
HETATM   18  O3  UNL     1      54.888  39.509   7.829  1.00  0.00    -0.262 OA
ATOM     19  H1  UNL     1      51.797  39.053   8.665  1.00  0.00     0.163 HD
BRANCH  17  20
HETATM   20  C17 UNL     1      53.040  40.437   6.756  1.00  0.00     0.317 C
HETATM   21  O4  UNL     1      52.598  39.867   5.727  1.00  0.00    -0.262 OA
HETATM   22  N2  UNL     1      52.948  41.841   6.844  1.00  0.00    -0.265 N
HETATM   23  C18 UNL     1      52.369  42.574   5.797  1.00  0.00     0.368 C
ATOM     24  H2  UNL     1      53.302  42.325   7.669  1.00  0.00     0.174 HD
HETATM   25  O5  UNL     1      51.918  41.998   4.758  1.00  0.00    -0.238 OA
BRANCH  23  26
HETATM   26  O6  UNL     1      52.226  43.951   5.771  1.00  0.00    -0.298 OA
BRANCH  26  27
HETATM   27  C19 UNL     1      52.804  44.793   4.856  1.00  0.00     0.141 C
HETATM   28  C20 UNL     1      54.230  44.505   4.486  1.00  0.00     0.033 C
HETATM   29  C21 UNL     1      54.449  45.642   3.471  1.00  0.00     0.003 C
HETATM   30  C22 UNL     1      53.747  46.819   4.129  1.00  0.00     0.011 C
HETATM   31  C23 UNL     1      52.847  46.239   5.204  1.00  0.00    -0.021 C
HETATM   32  C24 UNL     1      53.402  46.507   6.581  1.00  0.00     0.017 C
HETATM   33  C25 UNL     1      51.462  46.839   5.147  1.00  0.00     0.017 C
ENDBRANCH  26  27
ENDBRANCH  23  26
ENDBRANCH  17  20
ENDBRANCH  10  16
BRANCH   1  34
HETATM   34  C2  UNL     1      49.547  38.420  15.098  1.00  0.00    -0.013 C
HETATM   35  C1  UNL     1      49.180  37.547  16.348  1.00  0.00     0.010 C
BRANCH  34  36
HETATM   36  C3  UNL     1      48.801  39.648  15.269  1.00  0.00     0.015 C
BRANCH  36  37
HETATM   37  C4  UNL     1      49.453  40.966  15.468  1.00  0.00     0.113 C
BRANCH  37  38
HETATM   38  C5  UNL     1      49.089  42.009  14.471  1.00  0.00     0.172 C
HETATM   39  O1  UNL     1      49.073  43.202  14.835  1.00  0.00    -0.648 OA
HETATM   40  O2  UNL     1      48.770  41.721  13.172  1.00  0.00    -0.648 OA
ENDBRANCH  37  38
ENDBRANCH  36  37
ENDBRANCH  34  36
ENDBRANCH   1  34
TORSDOF 8
ENDMDL