MODEL 3
REMARK VINA RESULT: -6.416434029      1.438      7.181
REMARK  7 active torsions:
REMARK  status: ('A' for Active; 'I' for Inactive)
REMARK    1  A    between atoms: C2_2  and  C3_3
REMARK    2  A    between atoms: C3_3  and  C4_4
REMARK    3  A    between atoms: C4_4  and  N1_5
REMARK    4  A    between atoms: N1_5  and  C5_8
REMARK    5  A    between atoms: C5_8  and  C6_9
REMARK    6  A    between atoms: C6_9  and  C7_10
REMARK    7  A    between atoms: C7_10  and  C8_11
ROOT
HETATM    1  C5  UNL     1      13.185  -4.457   0.193  1.00  0.00     0.232 C
ENDROOT
BRANCH   1   2
HETATM    2  N1  UNL     1      13.974  -3.513  -0.528  1.00  0.00    -0.075 N
ATOM      3  H12 UNL     1      14.342  -2.790   0.089  1.00  0.00     0.277 HD
ATOM      4  H11 UNL     1      13.393  -2.930  -1.131  1.00  0.00     0.277 HD
BRANCH   2   5
HETATM    5  C4  UNL     1      15.050  -4.160  -1.290  1.00  0.00     0.236 C
BRANCH   5   6
HETATM    6  C3  UNL     1      15.413  -5.418  -0.426  1.00  0.00     0.054 C
BRANCH   6   7
HETATM    7  C2  UNL     1      16.899  -5.574  -0.672  1.00  0.00    -0.035 C
HETATM    8  C1  UNL     1      17.629  -4.834  -1.425  1.00  0.00     0.007 C
ENDBRANCH   6   7
ENDBRANCH   5   6
ENDBRANCH   2   5
ENDBRANCH   1   2
BRANCH   1   9
HETATM    9  C6  UNL     1      12.014  -3.739   0.893  1.00  0.00     0.028 C
BRANCH   9  10
HETATM   10  C7  UNL     1      11.489  -2.667  -0.074  1.00  0.00     0.006 C
BRANCH  10  11
HETATM   11  C8  UNL     1      10.001  -2.758  -0.154  1.00  0.00    -0.014 C
HETATM   12  C9  UNL     1       9.435  -3.422   1.117  1.00  0.00     0.004 C
HETATM   13  C10 UNL     1       8.114  -2.727   1.279  1.00  0.00     0.000 C
HETATM   14  C11 UNL     1       8.470  -1.263   1.013  1.00  0.00     0.000 C
HETATM   15  C12 UNL     1       9.322  -1.411  -0.250  1.00  0.00     0.004 C
ENDBRANCH  10  11
ENDBRANCH   9  10
ENDBRANCH   1   9
TORSDOF 7
ENDMDL