MODEL 5
REMARK VINA RESULT: -5.953076037      1.540      6.862
REMARK  8 active torsions:
REMARK  status: ('A' for Active; 'I' for Inactive)
REMARK    1  A    between atoms: C2_2  and  C3_3
REMARK    2  A    between atoms: C3_3  and  C4_4
REMARK    3  A    between atoms: C4_4  and  C5_5
REMARK    4  A    between atoms: C5_5  and  C6_6
REMARK    5  A    between atoms: C6_6  and  C7_7
REMARK    6  A    between atoms: C7_7  and  C8_8
REMARK    7  A    between atoms: C8_8  and  N1_9
REMARK    8  A    between atoms: C8_8  and  C9_13
ROOT
HETATM    1  C8  UNL     1      14.793  -4.883  -0.801  1.00  0.00     0.187 C
ENDROOT
BRANCH   1   2
HETATM    2  C7  UNL     1      14.008  -3.587  -0.568  1.00  0.00     0.033 C
BRANCH   2   3
HETATM    3  C6  UNL     1      12.791  -3.969   0.225  1.00  0.00     0.002 C
BRANCH   3   4
HETATM    4  C5  UNL     1      11.731  -2.890   0.219  1.00  0.00     0.000 C
BRANCH   4   5
HETATM    5  C4  UNL     1      10.368  -3.408  -0.069  1.00  0.00     0.004 C
BRANCH   5   6
HETATM    6  C3  UNL     1       9.279  -2.438   0.154  1.00  0.00     0.026 C
BRANCH   6   7
HETATM    7  C2  UNL     1       8.359  -2.680   1.262  1.00  0.00    -0.037 C
HETATM    8  C1  UNL     1       7.054  -2.652   1.278  1.00  0.00     0.007 C
ENDBRANCH   6   7
ENDBRANCH   5   6
ENDBRANCH   4   5
ENDBRANCH   3   4
ENDBRANCH   2   3
ENDBRANCH   1   2
BRANCH   1   9
HETATM    9  N1  UNL     1      14.452  -5.905   0.133  1.00  0.00    -0.075 N
ATOM     10  H13 UNL     1      13.530  -5.738   0.539  1.00  0.00     0.274 HD
ATOM     11  H12 UNL     1      14.265  -6.788  -0.341  1.00  0.00     0.274 HD
ATOM     12  H11 UNL     1      15.157  -6.022   0.861  1.00  0.00     0.274 HD
ENDBRANCH   1   9
BRANCH   1  13
HETATM   13  C9  UNL     1      16.258  -4.600  -0.838  1.00  0.00     0.016 A
HETATM   14  C10 UNL     1      17.276  -5.656  -0.598  1.00  0.00     0.007 A
HETATM   15  C11 UNL     1      17.085  -5.115  -2.001  1.00  0.00     0.007 A
ENDBRANCH   1  13
TORSDOF 8
ENDMDL