MODEL 1
REMARK VINA RESULT: -6.049046433      0.000      0.000
REMARK  7 active torsions:
REMARK  status: ('A' for Active; 'I' for Inactive)
REMARK    1  A    between atoms: C2_2  and  C3_3
REMARK    2  A    between atoms: C3_3  and  C4_4
REMARK    3  A    between atoms: C3_3  and  C6_6
REMARK    4  A    between atoms: C6_6  and  C7_7
REMARK    5  A    between atoms: C7_7  and  N1_8
REMARK    6  A    between atoms: N1_8  and  C8_10
REMARK    7  A    between atoms: C8_10  and  C9_11
ROOT
HETATM    1  C7  UNL     1      12.445  -3.251   0.260  1.00  0.00     0.114 C
ENDROOT
BRANCH   1   2
HETATM    2  C6  UNL     1      13.666  -3.086  -0.570  1.00  0.00     0.024 C
BRANCH   2   3
HETATM    3  C3  UNL     1      14.611  -4.251  -0.467  1.00  0.00    -0.014 C
BRANCH   3   4
HETATM    4  C2  UNL     1      13.951  -5.487   0.093  1.00  0.00     0.000 C
HETATM    5  C1  UNL     1      14.927  -6.577   0.435  1.00  0.00     0.005 C
ENDBRANCH   3   4
BRANCH   3   6
HETATM    6  C4  UNL     1      15.502  -4.472  -1.627  1.00  0.00     0.000 C
HETATM    7  C5  UNL     1      16.955  -4.504  -1.406  1.00  0.00     0.005 C
ENDBRANCH   3   6
ENDBRANCH   2   3
ENDBRANCH   1   2
BRANCH   1   8
HETATM    8  N1  UNL     1      11.379  -2.394  -0.218  1.00  0.00    -0.421 N
ATOM      9  H1  UNL     1      11.533  -1.419  -0.474  1.00  0.00     0.153 HD
BRANCH   8  10
HETATM   10  C8  UNL     1      10.102  -3.015  -0.305  1.00  0.00     0.118 C
BRANCH  10  11
HETATM   11  C9  UNL     1       9.471  -2.887   1.088  1.00  0.00     0.003 A
HETATM   12  C10 UNL     1       8.893  -1.574   1.481  1.00  0.00     0.007 A
HETATM   13  C11 UNL     1       8.013  -2.787   1.178  1.00  0.00     0.007 A
ENDBRANCH  10  11
ENDBRANCH   8  10
ENDBRANCH   1   8
TORSDOF 7
ENDMDL