MODEL 3
REMARK VINA RESULT: -6.561261183      0.838      1.474
REMARK  7 active torsions:
REMARK  status: ('A' for Active; 'I' for Inactive)
REMARK    1  A    between atoms: C2_2  and  C3_3
REMARK    2  A    between atoms: C3_3  and  N1_4
REMARK    3  A    between atoms: N1_4  and  C4_7
REMARK    4  A    between atoms: C4_7  and  C5_8
REMARK    5  A    between atoms: C5_8  and  C6_9
REMARK    6  A    between atoms: C6_9  and  C7_10
REMARK    7  A    between atoms: C7_10  and  C8_11
ROOT
HETATM    1  C5  UNL     1      10.972  -3.882   0.733  1.00  0.00     0.027 C
ENDROOT
BRANCH   1   2
HETATM    2  C4  UNL     1      10.091  -3.345  -0.355  1.00  0.00     0.232 C
BRANCH   2   3
HETATM    3  N1  UNL     1       9.229  -2.281   0.109  1.00  0.00    -0.072 N
ATOM      4  H12 UNL     1       8.653  -1.920  -0.651  1.00  0.00     0.277 HD
ATOM      5  H11 UNL     1       9.767  -1.441   0.322  1.00  0.00     0.277 HD
BRANCH   3   6
HETATM    6  C3  UNL     1       8.419  -2.672   1.227  1.00  0.00     0.259 C
BRANCH   6   7
HETATM    7  C2  UNL     1       7.091  -2.021   1.238  1.00  0.00    -0.010 C
HETATM    8  C1  UNL     1       6.008  -2.765   1.322  1.00  0.00     0.008 C
ENDBRANCH   6   7
ENDBRANCH   3   6
ENDBRANCH   2   3
ENDBRANCH   1   2
BRANCH   1   9
HETATM    9  C6  UNL     1      12.444  -3.816   0.393  1.00  0.00     0.002 C
BRANCH   9  10
HETATM   10  C7  UNL     1      13.062  -5.192   0.366  1.00  0.00     0.005 C
BRANCH  10  11
HETATM   11  C8  UNL     1      14.307  -5.246  -0.472  1.00  0.00    -0.014 C
HETATM   12  C9  UNL     1      14.902  -3.896  -0.743  1.00  0.00     0.004 C
HETATM   13  C10 UNL     1      16.245  -4.266  -1.337  1.00  0.00     0.000 C
HETATM   14  C11 UNL     1      16.578  -5.653  -0.830  1.00  0.00     0.000 C
HETATM   15  C12 UNL     1      15.443  -5.986   0.151  1.00  0.00     0.004 C
ENDBRANCH  10  11
ENDBRANCH   9  10
ENDBRANCH   1   9
TORSDOF 7
ENDMDL