MODEL 1
REMARK VINA RESULT: -6.485549358      0.000      0.000
REMARK  7 active torsions:
REMARK  status: ('A' for Active; 'I' for Inactive)
REMARK    1  A    between atoms: N1_2  and  C2_5
REMARK    2  A    between atoms: C2_5  and  C3_6
REMARK    3  A    between atoms: C3_6  and  C4_7
REMARK    4  A    between atoms: C5_8  and  C6_9
REMARK    5  A    between atoms: C6_9  and  C7_10
REMARK    6  A    between atoms: C7_10  and  C8_11
REMARK    7  A    between atoms: C8_11  and  C9_12
ROOT
HETATM    1  C4  UNL     1      10.516  -3.910   0.754  1.00  0.00    -0.029 C
HETATM    2  C5  UNL     1      11.782  -4.089   0.967  1.00  0.00    -0.031 C
ENDROOT
BRANCH   1   3
HETATM    3  C3  UNL     1       9.915  -3.076  -0.286  1.00  0.00     0.054 C
BRANCH   3   4
HETATM    4  C2  UNL     1       9.043  -2.051   0.476  1.00  0.00     0.235 C
BRANCH   4   5
HETATM    5  N1  UNL     1       8.199  -2.851   1.337  1.00  0.00    -0.079 N
HETATM    6  C1  UNL     1       6.820  -2.419   1.324  1.00  0.00     0.266 C
ATOM      7  H12 UNL     1       8.565  -2.876   2.289  1.00  0.00     0.276 HD
ATOM      8  H11 UNL     1       8.274  -3.842   1.105  1.00  0.00     0.276 HD
ENDBRANCH   4   5
ENDBRANCH   3   4
ENDBRANCH   1   3
BRANCH   2   9
HETATM    9  C6  UNL     1      12.830  -3.443   0.146  1.00  0.00     0.027 C
BRANCH   9  10
HETATM   10  C7  UNL     1      13.841  -4.529  -0.182  1.00  0.00     0.004 C
BRANCH  10  11
HETATM   11  C8  UNL     1      15.030  -3.972  -0.940  1.00  0.00     0.005 C
BRANCH  11  12
HETATM   12  C9  UNL     1      15.884  -5.170  -1.333  1.00  0.00    -0.014 A
HETATM   13  C10 UNL     1      17.374  -4.825  -1.378  1.00  0.00     0.005 A
HETATM   14  C11 UNL     1      16.798  -5.810  -0.390  1.00  0.00     0.005 A
ENDBRANCH  11  12
ENDBRANCH  10  11
ENDBRANCH   9  10
ENDBRANCH   2   9
TORSDOF 7
ENDMDL