MODEL 1
REMARK VINA RESULT: -5.997145322      0.000      0.000
REMARK  8 active torsions:
REMARK  status: ('A' for Active; 'I' for Inactive)
REMARK    1  A    between atoms: C2_2  and  C3_3
REMARK    2  A    between atoms: C3_3  and  C4_4
REMARK    3  A    between atoms: C4_4  and  N1_5
REMARK    4  A    between atoms: N1_5  and  C5_8
REMARK    5  A    between atoms: C5_8  and  C6_9
REMARK    6  A    between atoms: C6_9  and  C7_10
REMARK    7  A    between atoms: C7_10  and  C8_11
REMARK    8  A    between atoms: C8_11  and  C9_12
ROOT
HETATM    1  C5  UNL     1      10.081  -2.709  -0.294  1.00  0.00     0.233 C
ENDROOT
BRANCH   1   2
HETATM    2  N1  UNL     1       9.594  -1.427   0.200  1.00  0.00    -0.075 N
ATOM      3  H12 UNL     1       9.052  -0.936  -0.511  1.00  0.00     0.277 HD
ATOM      4  H11 UNL     1      10.356  -0.757   0.311  1.00  0.00     0.277 HD
BRANCH   2   5
HETATM    5  C4  UNL     1       8.844  -1.578   1.422  1.00  0.00     0.236 C
BRANCH   5   6
HETATM    6  C3  UNL     1       7.781  -2.666   1.276  1.00  0.00     0.054 C
BRANCH   6   7
HETATM    7  C2  UNL     1       6.419  -2.111   1.324  1.00  0.00    -0.035 C
HETATM    8  C1  UNL     1       5.362  -2.903   1.296  1.00  0.00     0.007 C
ENDBRANCH   6   7
ENDBRANCH   5   6
ENDBRANCH   2   5
ENDBRANCH   1   2
BRANCH   1   9
HETATM    9  C6  UNL     1      11.551  -2.841  -0.153  1.00  0.00     0.037 C
BRANCH   9  10
HETATM   10  C7  UNL     1      11.989  -4.076   0.668  1.00  0.00    -0.039 A
HETATM   11  C11 UNL     1      10.909  -4.784   1.314  1.00  0.00     0.010 A
HETATM   12  C12 UNL     1      11.842  -3.913   2.143  1.00  0.00     0.010 A
BRANCH  10  13
HETATM   13  C8  UNL     1      13.273  -4.635   0.195  1.00  0.00     0.009 C
BRANCH  13  14
HETATM   14  C9  UNL     1      14.217  -3.817  -0.571  1.00  0.00    -0.004 C
HETATM   15  C10 UNL     1      15.524  -4.473  -0.924  1.00  0.00     0.005 C
ENDBRANCH  13  14
ENDBRANCH  10  13
ENDBRANCH   9  10
ENDBRANCH   1   9
TORSDOF 8
ENDMDL