MODEL 1
REMARK VINA RESULT: -6.520390959      0.000      0.000
REMARK  7 active torsions:
REMARK  status: ('A' for Active; 'I' for Inactive)
REMARK    1  A    between atoms: C2_2  and  C3_3
REMARK    2  A    between atoms: C3_3  and  C4_4
REMARK    3  A    between atoms: C4_4  and  N1_5
REMARK    4  A    between atoms: N1_5  and  C5_7
REMARK    5  A    between atoms: C5_7  and  C6_8
REMARK    6  A    between atoms: C6_8  and  C7_9
REMARK    7  A    between atoms: C7_9  and  C8_10
ROOT
HETATM    1  C5  UNL     1      11.913  -3.703   1.216  1.00  0.00     0.113 C
ENDROOT
BRANCH   1   2
HETATM    2  N1  UNL     1      10.629  -4.091   0.748  1.00  0.00    -0.421 N
ATOM      3  H1  UNL     1      10.132  -4.902   1.117  1.00  0.00     0.153 HD
BRANCH   2   4
HETATM    4  C4  UNL     1      10.088  -3.263  -0.275  1.00  0.00     0.117 C
BRANCH   4   5
HETATM    5  C3  UNL     1       9.084  -2.250   0.155  1.00  0.00     0.045 C
BRANCH   5   6
HETATM    6  C2  UNL     1       8.247  -2.606   1.301  1.00  0.00    -0.035 C
HETATM    7  C1  UNL     1       6.943  -2.707   1.242  1.00  0.00     0.007 C
ENDBRANCH   5   6
ENDBRANCH   4   5
ENDBRANCH   2   4
ENDBRANCH   1   2
BRANCH   1   8
HETATM    8  C6  UNL     1      12.952  -3.496   0.136  1.00  0.00     0.020 C
BRANCH   8   9
HETATM    9  C7  UNL     1      13.676  -4.805  -0.065  1.00  0.00     0.006 C
BRANCH   9  10
HETATM   10  C8  UNL     1      15.074  -4.655  -0.530  1.00  0.00    -0.014 C
HETATM   11  C9  UNL     1      16.015  -5.809  -0.243  1.00  0.00     0.009 C
HETATM   12  C10 UNL     1      16.713  -5.417  -1.555  1.00  0.00    -0.018 C
HETATM   13  C11 UNL     1      17.634  -4.258  -1.289  1.00  0.00     0.010 C
HETATM   14  C12 UNL     1      15.345  -4.907  -2.001  1.00  0.00     0.009 C
ENDBRANCH   9  10
ENDBRANCH   8   9
ENDBRANCH   1   8
TORSDOF 7
ENDMDL