MODEL 1
REMARK VINA RESULT: -5.716608438      0.000      0.000
REMARK  8 active torsions:
REMARK  status: ('A' for Active; 'I' for Inactive)
REMARK    1  A    between atoms: C2_2  and  C3_3
REMARK    2  A    between atoms: C3_3  and  C4_4
REMARK    3  A    between atoms: C4_4  and  C5_5
REMARK    4  A    between atoms: C5_5  and  C6_6
REMARK    5  A    between atoms: C5_5  and  C8_8
REMARK    6  A    between atoms: C8_8  and  C9_9
REMARK    7  A    between atoms: C9_9  and  C10_10
REMARK    8  A    between atoms: C10_10  and  N1_11
ROOT
HETATM    1  C5  UNL     1      12.518  -2.959   0.351  1.00  0.00    -0.015 C
ENDROOT
BRANCH   1   2
HETATM    2  C4  UNL     1      13.710  -3.154  -0.540  1.00  0.00     0.008 C
BRANCH   2   3
HETATM    3  C3  UNL     1      14.330  -4.513  -0.465  1.00  0.00     0.027 C
BRANCH   3   4
HETATM    4  C2  UNL     1      15.577  -4.603  -1.271  1.00  0.00    -0.037 C
HETATM    5  C1  UNL     1      16.577  -5.352  -0.828  1.00  0.00     0.007 C
ENDBRANCH   3   4
ENDBRANCH   2   3
ENDBRANCH   1   2
BRANCH   1   6
HETATM    6  C6  UNL     1      11.967  -4.322   0.697  1.00  0.00     0.000 C
HETATM    7  C7  UNL     1      11.644  -4.437   2.171  1.00  0.00     0.005 C
ENDBRANCH   1   6
BRANCH   1   8
HETATM    8  C8  UNL     1      11.518  -2.108  -0.385  1.00  0.00     0.006 C
BRANCH   8   9
HETATM    9  C9  UNL     1      10.196  -2.768  -0.569  1.00  0.00     0.028 C
BRANCH   9  10
HETATM   10  C10 UNL     1       9.155  -1.989   0.206  1.00  0.00     0.231 C
BRANCH  10  11
HETATM   11  N1  UNL     1       8.581  -2.732   1.296  1.00  0.00    -0.079 N
HETATM   12  C11 UNL     1       7.130  -2.527   1.284  1.00  0.00     0.266 C
ATOM     13  H12 UNL     1       8.838  -3.720   1.274  1.00  0.00     0.276 HD
ATOM     14  H11 UNL     1       9.002  -2.498   2.194  1.00  0.00     0.276 HD
ENDBRANCH  10  11
ENDBRANCH   9  10
ENDBRANCH   8   9
ENDBRANCH   1   8
TORSDOF 8
ENDMDL