MODEL 3
REMARK VINA RESULT: -4.748941980      3.371      7.046
REMARK  5 active torsions:
REMARK  status: ('A' for Active; 'I' for Inactive)
REMARK    1  A    between atoms: C2_2  and  C3_3
REMARK    2  A    between atoms: C3_3  and  C4_4
REMARK    3  A    between atoms: C4_4  and  C5_5
REMARK    4  A    between atoms: C5_5  and  N1_6
REMARK    5  A    between atoms: N1_6  and  C6_8
ROOT
HETATM    1  N1  UNL     1      -6.969  -6.728 -18.896  1.00  0.00    -0.390 N
ATOM      2  H1  UNL     1      -7.074  -6.160 -19.736  1.00  0.00     0.159 HD
ENDROOT
BRANCH   1   3
HETATM    3  C5  UNL     1      -5.659  -6.972 -18.351  1.00  0.00     0.120 C
BRANCH   3   4
HETATM    4  C4  UNL     1      -5.451  -6.150 -17.073  1.00  0.00     0.023 C
BRANCH   4   5
HETATM    5  C3  UNL     1      -5.818  -4.735 -17.389  1.00  0.00     0.028 C
BRANCH   5   6
HETATM    6  C2  UNL     1      -4.684  -3.788 -17.425  1.00  0.00    -0.037 C
HETATM    7  C1  UNL     1      -4.706  -2.739 -16.614  1.00  0.00     0.007 C
ENDBRANCH   5   6
ENDBRANCH   4   5
ENDBRANCH   3   4
ENDBRANCH   1   3
BRANCH   1   8
HETATM    8  C6  UNL     1      -8.114  -7.279 -18.260  1.00  0.00     0.027 A
HETATM    9  C7  UNL     1      -8.792  -8.410 -18.193  1.00  0.00     0.029 A
HETATM   10  C8  UNL     1      -9.757  -7.855 -17.267  1.00  0.00     0.004 A
HETATM   11  C9  UNL     1      -9.106  -6.715 -17.310  1.00  0.00     0.029 A
ENDBRANCH   1   8
TORSDOF 5
ENDMDL