MODEL 5
REMARK VINA RESULT: -4.763925563      3.029      7.443
REMARK  6 active torsions:
REMARK  status: ('A' for Active; 'I' for Inactive)
REMARK    1  A    between atoms: C2_2  and  C3_3
REMARK    2  A    between atoms: C3_3  and  C4_4
REMARK    3  A    between atoms: C4_4  and  N1_5
REMARK    4  A    between atoms: N1_5  and  C5_8
REMARK    5  A    between atoms: C5_8  and  C6_9
REMARK    6  A    between atoms: C7_10  and  C8_11
ROOT
HETATM    1  N1  UNL     1      -4.792  -5.176 -16.837  1.00  0.00    -0.072 N
ATOM      2  H11 UNL     1      -4.578  -5.058 -15.847  1.00  0.00     0.277 HD
ATOM      3  H12 UNL     1      -3.856  -5.384 -17.183  1.00  0.00     0.277 HD
ENDROOT
BRANCH   1   4
HETATM    4  C4  UNL     1      -5.294  -3.962 -17.406  1.00  0.00     0.236 C
BRANCH   4   5
HETATM    5  C3  UNL     1      -4.705  -2.774 -16.640  1.00  0.00     0.054 C
BRANCH   5   6
HETATM    6  C2  UNL     1      -3.478  -3.180 -15.946  1.00  0.00    -0.035 C
HETATM    7  C1  UNL     1      -2.438  -2.320 -15.924  1.00  0.00     0.007 C
ENDBRANCH   5   6
ENDBRANCH   4   5
ENDBRANCH   1   4
BRANCH   1   8
HETATM    8  C5  UNL     1      -5.691  -6.302 -17.047  1.00  0.00     0.259 C
BRANCH   8   9
HETATM    9  C6  UNL     1      -6.596  -5.992 -18.150  1.00  0.00    -0.003 C
HETATM   10  C7  UNL     1      -7.685  -6.611 -18.431  1.00  0.00    -0.025 C
BRANCH  10  11
HETATM   11  C8  UNL     1      -8.223  -7.755 -17.680  1.00  0.00    -0.001 C
HETATM   12  C9  UNL     1      -9.582  -7.374 -17.106  1.00  0.00     0.013 C
HETATM   13  C10 UNL     1      -8.370  -8.968 -18.594  1.00  0.00     0.013 C
ENDBRANCH  10  11
ENDBRANCH   8   9
ENDBRANCH   1   8
TORSDOF 6
ENDMDL