MODEL 3
REMARK VINA RESULT: -4.537254457      3.866      8.564
REMARK  5 active torsions:
REMARK  status: ('A' for Active; 'I' for Inactive)
REMARK    1  A    between atoms: C1_1  and  C2_2
REMARK    2  A    between atoms: C1_1  and  C6_9
REMARK    3  A    between atoms: C2_2  and  N1_3
REMARK    4  A    between atoms: N1_3  and  C3_6
REMARK    5  A    between atoms: C6_9  and  C7_10
ROOT
HETATM    1  C2  UNL     1      -6.296  -6.290 -18.513  1.00  0.00     0.232 C
ENDROOT
BRANCH   1   2
HETATM    2  C1  UNL     1      -6.209  -5.225 -17.438  1.00  0.00     0.028 C
BRANCH   2   3
HETATM    3  C6  UNL     1      -4.762  -4.791 -17.390  1.00  0.00     0.006 C
BRANCH   3   4
HETATM    4  C7  UNL     1      -4.566  -3.324 -17.357  1.00  0.00    -0.014 A
HETATM    5  C8  UNL     1      -4.733  -2.493 -16.170  1.00  0.00     0.005 A
HETATM    6  C9  UNL     1      -3.344  -2.881 -16.517  1.00  0.00     0.005 A
ENDBRANCH   3   4
ENDBRANCH   2   3
ENDBRANCH   1   2
BRANCH   1   7
HETATM    7  N1  UNL     1      -7.676  -6.662 -18.734  1.00  0.00    -0.071 N
ATOM      8  H12 UNL     1      -8.246  -5.852 -18.978  1.00  0.00     0.277 HD
ATOM      9  H11 UNL     1      -7.783  -7.196 -19.596  1.00  0.00     0.277 HD
BRANCH   7  10
HETATM   10  C3  UNL     1      -8.222  -7.372 -17.601  1.00  0.00     0.186 A
HETATM   11  C4  UNL     1      -9.548  -6.840 -17.103  1.00  0.00     0.035 A
HETATM   12  C5  UNL     1      -9.515  -8.151 -17.831  1.00  0.00     0.035 A
ENDBRANCH   7  10
ENDBRANCH   1   7
TORSDOF 5
ENDMDL