MODEL 5
REMARK VINA RESULT: -4.992894801      1.238      1.914
REMARK  5 active torsions:
REMARK  status: ('A' for Active; 'I' for Inactive)
REMARK    1  A    between atoms: C2_2  and  C3_3
REMARK    2  A    between atoms: C3_3  and  C4_4
REMARK    3  A    between atoms: C4_4  and  N1_5
REMARK    4  A    between atoms: N1_5  and  C5_7
REMARK    5  A    between atoms: C5_7  and  C6_8
ROOT
HETATM    1  C6  UNL     1      -7.179  -6.606 -17.758  1.00  0.00    -0.006 A
HETATM    2  C7  UNL     1      -6.586  -5.444 -17.357  1.00  0.00     0.015 A
HETATM    3  C8  UNL     1      -5.256  -5.209 -17.649  1.00  0.00     0.018 A
HETATM    4  C9  UNL     1      -4.563  -6.176 -18.347  1.00  0.00     0.087 A
HETATM    5  N2  UNL     1      -5.139  -7.335 -18.751  1.00  0.00    -0.374 N
ATOM      6  H2  UNL     1      -4.600  -8.032 -19.266  1.00  0.00     0.164 HD
HETATM    7  C10 UNL     1      -6.432  -7.547 -18.459  1.00  0.00     0.100 A
ENDROOT
BRANCH   1   8
HETATM    8  C5  UNL     1      -8.579  -6.953 -17.503  1.00  0.00     0.095 C
BRANCH   8   9
HETATM    9  N1  UNL     1      -8.948  -8.144 -18.149  1.00  0.00    -0.398 N
ATOM     10  H1  UNL     1      -8.248  -8.734 -18.600  1.00  0.00     0.158 HD
BRANCH   9  11
HETATM   11  C4  UNL     1     -10.316  -8.508 -18.159  1.00  0.00     0.122 C
BRANCH  11  12
HETATM   12  C3  UNL     1     -10.489  -9.649 -19.132  1.00  0.00     0.046 C
BRANCH  12  13
HETATM   13  C2  UNL     1     -11.887 -10.067 -19.315  1.00  0.00    -0.035 C
HETATM   14  C1  UNL     1     -12.299 -11.249 -19.703  1.00  0.00     0.007 C
ENDBRANCH  12  13
ENDBRANCH  11  12
ENDBRANCH   9  11
ENDBRANCH   8   9
ENDBRANCH   1   8
TORSDOF 5
ENDMDL