MODEL 3
REMARK VINA RESULT: -5.009345284      3.777      7.315
REMARK  6 active torsions:
REMARK  status: ('A' for Active; 'I' for Inactive)
REMARK    1  A    between atoms: C2_2  and  C3_3
REMARK    2  A    between atoms: C3_3  and  C4_4
REMARK    3  A    between atoms: C4_4  and  N1_5
REMARK    4  A    between atoms: N1_5  and  C5_8
REMARK    5  A    between atoms: C5_8  and  C6_9
REMARK    6  A    between atoms: C6_9  and  C7_10
ROOT
HETATM    1  N1  UNL     1      -4.262  -6.353 -17.768  1.00  0.00    -0.075 N
ATOM      2  H11 UNL     1      -3.873  -7.197 -17.347  1.00  0.00     0.277 HD
ATOM      3  H12 UNL     1      -3.404  -5.921 -18.111  1.00  0.00     0.277 HD
ENDROOT
BRANCH   1   4
HETATM    4  C4  UNL     1      -4.871  -5.533 -16.776  1.00  0.00     0.236 C
BRANCH   4   5
HETATM    5  C3  UNL     1      -5.694  -4.394 -17.369  1.00  0.00     0.054 C
BRANCH   5   6
HETATM    6  C2  UNL     1      -4.895  -3.132 -17.390  1.00  0.00    -0.035 C
HETATM    7  C1  UNL     1      -4.276  -2.694 -16.293  1.00  0.00     0.007 C
ENDBRANCH   5   6
ENDBRANCH   4   5
ENDBRANCH   1   4
BRANCH   1   8
HETATM    8  C5  UNL     1      -5.137  -6.691 -18.871  1.00  0.00     0.232 C
BRANCH   8   9
HETATM    9  C6  UNL     1      -5.960  -7.855 -18.447  1.00  0.00     0.032 C
BRANCH   9  10
HETATM   10  C7  UNL     1      -7.291  -8.007 -19.117  1.00  0.00    -0.013 C
HETATM   11  C8  UNL     1      -8.032  -6.669 -18.947  1.00  0.00     0.005 C
HETATM   12  C9  UNL     1      -8.621  -7.284 -17.663  1.00  0.00     0.001 C
HETATM   13  C10 UNL     1      -8.401  -8.642 -18.335  1.00  0.00     0.005 C
ENDBRANCH   9  10
ENDBRANCH   8   9
ENDBRANCH   1   8
TORSDOF 6
ENDMDL