MODEL 5
REMARK VINA RESULT: -4.656812916      1.711      2.930
REMARK  7 active torsions:
REMARK  status: ('A' for Active; 'I' for Inactive)
REMARK    1  A    between atoms: C2_2  and  C3_3
REMARK    2  A    between atoms: C3_3  and  C4_4
REMARK    3  A    between atoms: C4_4  and  C5_5
REMARK    4  A    between atoms: C5_5  and  C6_6
REMARK    5  A    between atoms: C5_5  and  C8_12
REMARK    6  A    between atoms: C6_6  and  C7_7
REMARK    7  A    between atoms: C7_7  and  N1_8
ROOT
HETATM    1  C5  UNL     1      -5.754  -5.598 -18.200  1.00  0.00    -0.009 C
ENDROOT
BRANCH   1   2
HETATM    2  C4  UNL     1      -7.044  -6.215 -17.575  1.00  0.00     0.009 C
BRANCH   2   3
HETATM    3  C3  UNL     1      -7.919  -6.688 -18.669  1.00  0.00     0.027 C
BRANCH   3   4
HETATM    4  C2  UNL     1      -8.472  -8.072 -18.362  1.00  0.00    -0.037 C
HETATM    5  C1  UNL     1      -7.858  -9.159 -18.808  1.00  0.00     0.007 C
ENDBRANCH   3   4
ENDBRANCH   2   3
ENDBRANCH   1   2
BRANCH   1   6
HETATM    6  C6  UNL     1      -4.938  -6.738 -18.633  1.00  0.00     0.032 C
BRANCH   6   7
HETATM    7  C7  UNL     1      -4.454  -7.725 -17.628  1.00  0.00     0.230 C
BRANCH   7   8
HETATM    8  N1  UNL     1      -4.105  -9.011 -18.241  1.00  0.00    -0.079 N
ATOM      9  H13 UNL     1      -3.437  -9.524 -17.665  1.00  0.00     0.274 HD
ATOM     10  H12 UNL     1      -4.888  -9.664 -18.202  1.00  0.00     0.274 HD
ATOM     11  H11 UNL     1      -3.762  -8.901 -19.196  1.00  0.00     0.274 HD
ENDBRANCH   7   8
ENDBRANCH   6   7
ENDBRANCH   1   6
BRANCH   1  12
HETATM   12  C8  UNL     1      -5.238  -4.685 -17.156  1.00  0.00    -0.010 A
HETATM   13  C9  UNL     1      -5.073  -3.203 -17.454  1.00  0.00     0.005 A
HETATM   14  C10 UNL     1      -3.902  -4.053 -17.232  1.00  0.00     0.005 A
ENDBRANCH   1  12
TORSDOF 7
ENDMDL