MODEL 5
REMARK VINA RESULT: -4.667333705      3.513      7.508
REMARK  5 active torsions:
REMARK  status: ('A' for Active; 'I' for Inactive)
REMARK    1  A    between atoms: C2_2  and  C3_3
REMARK    2  A    between atoms: C4_4  and  C5_5
REMARK    3  A    between atoms: C5_5  and  N1_6
REMARK    4  A    between atoms: N1_6  and  C6_9
REMARK    5  A    between atoms: C6_9  and  C7_10
ROOT
HETATM    1  N1  UNL     1      -5.669  -7.107 -18.907  1.00  0.00    -0.072 N
ATOM      2  H11 UNL     1      -5.025  -7.490 -19.598  1.00  0.00     0.277 HD
ATOM      3  H12 UNL     1      -5.980  -6.282 -19.421  1.00  0.00     0.277 HD
ENDROOT
BRANCH   1   4
HETATM    4  C5  UNL     1      -4.980  -6.741 -17.689  1.00  0.00     0.259 C
BRANCH   4   5
HETATM    5  C4  UNL     1      -4.706  -5.305 -17.572  1.00  0.00    -0.004 C
HETATM    6  C3  UNL     1      -5.565  -4.319 -17.396  1.00  0.00    -0.029 C
BRANCH   6   7
HETATM    7  C2  UNL     1      -5.091  -2.891 -17.303  1.00  0.00     0.022 C
HETATM    8  C1  UNL     1      -3.968  -2.898 -16.273  1.00  0.00     0.009 C
ENDBRANCH   6   7
ENDBRANCH   4   5
ENDBRANCH   1   4
BRANCH   1   9
HETATM    9  C6  UNL     1      -6.778  -8.021 -18.645  1.00  0.00     0.237 C
BRANCH   9  10
HETATM   10  C7  UNL     1      -8.100  -7.308 -18.677  1.00  0.00     0.011 A
HETATM   11  C8  UNL     1      -9.218  -8.063 -17.903  1.00  0.00     0.007 A
HETATM   12  C9  UNL     1      -8.710  -6.725 -17.464  1.00  0.00     0.007 A
ENDBRANCH   9  10
ENDBRANCH   1   9
TORSDOF 5
ENDMDL