MODEL 3
REMARK VINA RESULT: -4.446299409      2.165      2.781
REMARK  6 active torsions:
REMARK  status: ('A' for Active; 'I' for Inactive)
REMARK    1  A    between atoms: C2_2  and  C3_3
REMARK    2  A    between atoms: C3_3  and  C4_4
REMARK    3  A    between atoms: C4_4  and  C5_5
REMARK    4  A    between atoms: C5_5  and  C6_6
REMARK    5  A    between atoms: C6_6  and  C7_7
REMARK    6  A    between atoms: C7_7  and  N1_8
ROOT
HETATM    1  C5  UNL     1      -5.452  -5.864 -17.419  1.00  0.00    -0.039 A
HETATM    2  C8  UNL     1      -4.708  -7.153 -17.641  1.00  0.00     0.010 A
HETATM    3  C9  UNL     1      -4.981  -6.791 -16.252  1.00  0.00     0.010 A
ENDROOT
BRANCH   1   4
HETATM    4  C4  UNL     1      -6.931  -5.869 -17.564  1.00  0.00     0.013 C
BRANCH   4   5
HETATM    5  C3  UNL     1      -7.546  -6.507 -18.752  1.00  0.00     0.027 C
BRANCH   5   6
HETATM    6  C2  UNL     1      -8.473  -7.617 -18.272  1.00  0.00    -0.037 C
HETATM    7  C1  UNL     1      -9.242  -7.485 -17.206  1.00  0.00     0.007 C
ENDBRANCH   5   6
ENDBRANCH   4   5
ENDBRANCH   1   4
BRANCH   1   8
HETATM    8  C6  UNL     1      -4.609  -4.644 -17.628  1.00  0.00     0.036 C
BRANCH   8   9
HETATM    9  C7  UNL     1      -5.160  -3.317 -17.328  1.00  0.00     0.230 C
BRANCH   9  10
HETATM   10  N1  UNL     1      -4.222  -2.715 -16.322  1.00  0.00    -0.079 N
ATOM     11  H13 UNL     1      -3.888  -3.379 -15.623  1.00  0.00     0.274 HD
ATOM     12  H12 UNL     1      -3.308  -2.475 -16.705  1.00  0.00     0.274 HD
ATOM     13  H11 UNL     1      -4.724  -1.920 -15.927  1.00  0.00     0.274 HD
ENDBRANCH   9  10
ENDBRANCH   8   9
ENDBRANCH   1   8
TORSDOF 6
ENDMDL