MODEL 4
REMARK VINA RESULT: -4.837638586      4.061      6.617
REMARK  6 active torsions:
REMARK  status: ('A' for Active; 'I' for Inactive)
REMARK    1  A    between atoms: C2_2  and  C3_3
REMARK    2  A    between atoms: C3_3  and  N1_4
REMARK    3  A    between atoms: N1_4  and  C4_7
REMARK    4  A    between atoms: C4_7  and  C5_8
REMARK    5  A    between atoms: C5_8  and  C6_9
REMARK    6  A    between atoms: C6_9  and  C7_10
ROOT
HETATM    1  C4  UNL     1      -4.376  -4.984 -17.567  1.00  0.00     0.232 C
ENDROOT
BRANCH   1   2
HETATM    2  N1  UNL     1      -3.896  -5.890 -18.550  1.00  0.00    -0.072 N
ATOM      3  H12 UNL     1      -3.600  -5.384 -19.385  1.00  0.00     0.277 HD
ATOM      4  H11 UNL     1      -4.666  -6.434 -18.938  1.00  0.00     0.277 HD
BRANCH   2   5
HETATM    5  C3  UNL     1      -2.846  -6.761 -18.095  1.00  0.00     0.259 C
BRANCH   5   6
HETATM    6  C2  UNL     1      -3.363  -7.987 -17.453  1.00  0.00    -0.010 C
HETATM    7  C1  UNL     1      -3.997  -8.917 -18.148  1.00  0.00     0.008 C
ENDBRANCH   5   6
ENDBRANCH   2   5
ENDBRANCH   1   2
BRANCH   1   8
HETATM    8  C5  UNL     1      -5.873  -4.876 -17.457  1.00  0.00     0.028 C
BRANCH   8   9
HETATM    9  C6  UNL     1      -6.584  -6.182 -17.350  1.00  0.00     0.006 C
BRANCH   9  10
HETATM   10  C7  UNL     1      -7.516  -6.447 -18.506  1.00  0.00    -0.014 C
HETATM   11  C8  UNL     1      -8.821  -7.031 -17.948  1.00  0.00     0.005 C
HETATM   12  C9  UNL     1      -8.186  -8.408 -18.195  1.00  0.00     0.001 C
HETATM   13  C10 UNL     1      -7.337  -7.724 -19.248  1.00  0.00     0.005 C
ENDBRANCH   9  10
ENDBRANCH   8   9
ENDBRANCH   1   8
TORSDOF 6
ENDMDL