MODEL 3
REMARK VINA RESULT: -8.011149681      3.799      5.912
REMARK  4 active torsions:
REMARK  status: ('A' for Active; 'I' for Inactive)
REMARK    1  A    between atoms: C4_5  and  C5_6
REMARK    2  A    between atoms: C5_6  and  C6_7
REMARK    3  A    between atoms: C12_13  and  O1_14
REMARK    4  A    between atoms: C13_16  and  O2_17
ROOT
HETATM    1  C1  UNL     1       6.971  -4.212  19.881  1.00  0.00     0.018 C
HETATM    2  C2  UNL     1       7.339  -4.992  18.644  1.00  0.00     0.058 C
HETATM    3  C3  UNL     1       6.361  -4.794  17.546  1.00  0.00     0.023 C
HETATM    4 CL1  UNL     1       4.609  -4.548  17.818  1.00  0.00    -0.088 Cl
HETATM    5  C4  UNL     1       6.998  -4.790  16.401  1.00  0.00    -0.030 C
HETATM    6  C12 UNL     1       8.494  -4.961  16.648  1.00  0.00     0.178 C
HETATM    7  C13 UNL     1       8.615  -4.434  18.071  1.00  0.00     0.160 C
ENDROOT
BRANCH   5   8
HETATM    8  C5  UNL     1       6.531  -4.642  15.037  1.00  0.00     0.043 C
BRANCH   8   9
HETATM    9  C6  UNL     1       6.562  -5.753  14.084  1.00  0.00    -0.011 C
HETATM   10  C7  UNL     1       7.586  -5.684  12.987  1.00  0.00     0.005 C
HETATM   11  C8  UNL     1       6.901  -5.271  11.663  1.00  0.00     0.000 C
HETATM   12  C9  UNL     1       6.014  -6.407  11.196  1.00  0.00     0.000 C
HETATM   13  C10 UNL     1       5.137  -6.829  12.327  1.00  0.00     0.000 C
HETATM   14  C11 UNL     1       5.148  -5.858  13.486  1.00  0.00     0.005 C
ENDBRANCH   8   9
ENDBRANCH   5   8
BRANCH   6  15
HETATM   15  O1  UNL     1       9.125  -4.020  15.844  1.00  0.00    -0.389 OA
ATOM     16  H1  UNL     1       9.874  -3.713  16.340  1.00  0.00     0.210 HD
ENDBRANCH   6  15
BRANCH   7  17
HETATM   17  O2  UNL     1       8.506  -3.044  18.069  1.00  0.00    -0.392 OA
ATOM     18  H2  UNL     1       9.371  -2.687  17.906  1.00  0.00     0.210 HD
ENDBRANCH   7  17
TORSDOF 4
ENDMDL