MODEL 5
REMARK VINA RESULT: -7.591726953      2.827      6.537
REMARK  3 active torsions:
REMARK  status: ('A' for Active; 'I' for Inactive)
REMARK    1  A    between atoms: C2_2  and  C4_4
REMARK    2  A    between atoms: C6_8  and  N2_9
REMARK    3  A    between atoms: N2_9  and  C7_11
ROOT
HETATM    1  C4  UNL     1       8.926  -4.332  20.317  1.00  0.00     0.032 C
HETATM    2  C5  UNL     1       9.431  -3.401  19.252  1.00  0.00     0.128 C
HETATM    3  N1  UNL     1       8.373  -3.408  18.269  1.00  0.00    -0.378 N
ATOM      4  H1  UNL     1       8.325  -2.755  17.487  1.00  0.00     0.160 HD
HETATM    5  C6  UNL     1       7.498  -4.324  18.484  1.00  0.00     0.092 C
HETATM    6  C13 UNL     1       7.823  -5.130  19.697  1.00  0.00     0.155 C
HETATM    7 CL1  UNL     1       6.422  -5.328  20.758  1.00  0.00    -0.116 Cl
ENDROOT
BRANCH   5   8
HETATM    8  N2  UNL     1       6.377  -4.497  17.628  1.00  0.00    -0.374 N
ATOM      9  H2  UNL     1       5.710  -3.731  17.532  1.00  0.00     0.161 HD
BRANCH   8  10
HETATM   10  C7  UNL     1       6.148  -5.714  16.892  1.00  0.00     0.082 C
HETATM   11  C8  UNL     1       5.126  -6.613  17.548  1.00  0.00     0.025 C
HETATM   12  C9  UNL     1       3.728  -6.086  17.358  1.00  0.00     0.002 C
HETATM   13  C10 UNL     1       3.372  -6.087  15.889  1.00  0.00     0.000 C
HETATM   14  C11 UNL     1       4.580  -6.292  15.020  1.00  0.00     0.002 C
HETATM   15  C12 UNL     1       5.769  -5.466  15.469  1.00  0.00     0.025 C
ENDBRANCH   8  10
ENDBRANCH   5   8
BRANCH   1  16
HETATM   16  C2  UNL     1       8.569  -3.657  21.590  1.00  0.00    -0.015 C
HETATM   17  C1  UNL     1       9.043  -4.505  22.748  1.00  0.00     0.010 C
HETATM   18  C3  UNL     1       9.190  -2.293  21.749  1.00  0.00     0.010 C
ENDBRANCH   1  16
TORSDOF 3
ENDMDL