MODEL 3
REMARK VINA RESULT: -7.734462768      1.280      1.810
REMARK  3 active torsions:
REMARK  status: ('A' for Active; 'I' for Inactive)
REMARK    1  A    between atoms: C4_4  and  C5_5
REMARK    2  A    between atoms: C5_5  and  C6_6
REMARK    3  A    between atoms: C8_10  and  N2_11
ROOT
HETATM    1  C6  UNL     1       6.572  -4.571  19.306  1.00  0.00     0.074 C
HETATM    2  C7  UNL     1       7.218  -4.603  20.674  1.00  0.00     0.031 A
HETATM    3  N1  UNL     1       6.736  -5.051  21.800  1.00  0.00    -0.339 N
ATOM      4  H1  UNL     1       5.799  -5.452  21.840  1.00  0.00     0.168 HD
HETATM    5  C8  UNL     1       7.486  -4.977  22.895  1.00  0.00     0.142 A
HETATM    6  S1  UNL     1       8.923  -4.257  22.344  1.00  0.00    -0.057 SA
HETATM    7  C9  UNL     1       8.480  -4.078  20.686  1.00  0.00     0.009 A
HETATM    8  C10 UNL     1       9.135  -3.520  19.447  1.00  0.00     0.051 C
HETATM    9  C11 UNL     1       8.947  -4.598  18.405  1.00  0.00     0.043 C
HETATM   10  C12 UNL     1       7.538  -5.014  18.261  1.00  0.00     0.180 C
HETATM   11  F1  UNL     1       7.012  -4.563  17.038  1.00  0.00    -0.249 F
ENDROOT
BRANCH   1  12
HETATM   12  C5  UNL     1       5.362  -5.486  19.247  1.00  0.00     0.041 C
BRANCH  12  13
HETATM   13  C4  UNL     1       4.563  -5.327  18.015  1.00  0.00    -0.024 C
HETATM   14  C2  UNL     1       3.882  -6.330  17.461  1.00  0.00    -0.091 C
HETATM   15  C1  UNL     1       3.917  -7.674  18.098  1.00  0.00     0.042 C
HETATM   16  C3  UNL     1       3.087  -6.135  16.221  1.00  0.00     0.042 C
ENDBRANCH  12  13
ENDBRANCH   1  12
BRANCH   5  17
HETATM   17  N2  UNL     1       7.209  -5.360  24.115  1.00  0.00    -0.380 N
ATOM     18  H22 UNL     1       6.449  -5.972  24.414  1.00  0.00     0.158 HD
ATOM     19  H21 UNL     1       7.685  -5.130  24.988  1.00  0.00     0.158 HD
ENDBRANCH   5  17
TORSDOF 3
ENDMDL