MODEL 5
REMARK VINA RESULT: -8.173061514      4.029      6.100
REMARK  2 active torsions:
REMARK  status: ('A' for Active; 'I' for Inactive)
REMARK    1  A    between atoms: C4_7  and  N2_8
REMARK    2  A    between atoms: N2_8  and  C5_10
ROOT
HETATM    1  C1  UNL     1       8.744  -5.450  25.697  1.00  0.00     0.070 C
HETATM    2  C2  UNL     1       8.680  -5.311  24.229  1.00  0.00     0.030 A
HETATM    3  N1  UNL     1       8.273  -6.305  23.425  1.00  0.00    -0.324 N
ATOM      4  H1  UNL     1       7.998  -7.190  23.851  1.00  0.00     0.169 HD
HETATM    5  C3  UNL     1       8.211  -6.192  22.091  1.00  0.00     0.272 A
HETATM    6  O1  UNL     1       7.805  -7.206  21.433  1.00  0.00    -0.266 OA
HETATM    7  C4  UNL     1       8.571  -5.025  21.477  1.00  0.00     0.105 A
HETATM    8  C11 UNL     1       8.996  -3.972  22.249  1.00  0.00    -0.006 A
HETATM    9  C12 UNL     1       9.392  -2.704  21.636  1.00  0.00     0.052 C
HETATM   10  C13 UNL     1       9.049  -4.119  23.615  1.00  0.00     0.064 A
HETATM   11 CL1  UNL     1       9.596  -2.757  24.585  1.00  0.00    -0.082 Cl
ENDROOT
BRANCH   7  12
HETATM   12  N2  UNL     1       8.524  -4.894  20.056  1.00  0.00    -0.380 N
ATOM     13  H2  UNL     1       9.244  -5.373  19.516  1.00  0.00     0.160 HD
BRANCH  12  14
HETATM   14  C5  UNL     1       7.539  -4.139  19.324  1.00  0.00     0.082 C
HETATM   15  C6  UNL     1       6.161  -4.637  19.678  1.00  0.00     0.025 C
HETATM   16  C7  UNL     1       5.282  -4.502  18.472  1.00  0.00     0.002 C
HETATM   17  C8  UNL     1       5.827  -5.477  17.421  1.00  0.00     0.000 C
HETATM   18  C9  UNL     1       7.150  -4.971  16.977  1.00  0.00     0.002 C
HETATM   19  C10 UNL     1       7.776  -3.959  17.882  1.00  0.00     0.025 C
ENDBRANCH  12  14
ENDBRANCH   7  12
TORSDOF 2
ENDMDL