MODEL 5
REMARK VINA RESULT: -6.770134274      5.323      7.185
REMARK  4 active torsions:
REMARK  status: ('A' for Active; 'I' for Inactive)
REMARK    1  A    between atoms: C2_2  and  N1_3
REMARK    2  A    between atoms: N1_3  and  C3_5
REMARK    3  A    between atoms: C3_5  and  C4_9
REMARK    4  A    between atoms: C7_13  and  C8_14
ROOT
HETATM    1  C3  UNL     1       5.123  -6.022  14.142  1.00  0.00     0.108 C
HETATM    2  N2  UNL     1       3.898  -5.537  14.008  1.00  0.00    -0.385 N
ATOM      3  H21 UNL     1       3.686  -4.821  14.703  1.00  0.00     0.157 HD
ATOM      4  H22 UNL     1       3.345  -5.952  13.258  1.00  0.00     0.157 HD
ENDROOT
BRANCH   1   5
HETATM    5  N1  UNL     1       5.413  -7.002  13.191  1.00  0.00    -0.367 N
ATOM      6  H1  UNL     1       5.530  -7.962  13.517  1.00  0.00     0.162 HD
BRANCH   5   7
HETATM    7  C2  UNL     1       5.562  -6.743  11.752  1.00  0.00     0.028 A
HETATM    8  C1  UNL     1       4.216  -6.649  11.010  1.00  0.00     0.038 C
HETATM    9  C11 UNL     1       6.683  -7.340  11.012  1.00  0.00     0.033 A
HETATM   10  C12 UNL     1       6.588  -5.830  11.220  1.00  0.00     0.033 A
ENDBRANCH   5   7
ENDBRANCH   1   5
BRANCH   1  11
HETATM   11  C4  UNL     1       5.902  -5.438  15.199  1.00  0.00     0.040 A
HETATM   12  C5  UNL     1       7.041  -4.633  14.997  1.00  0.00     0.157 A
HETATM   13  O1  UNL     1       7.502  -4.324  16.164  1.00  0.00    -0.333 OA
HETATM   14  C6  UNL     1       6.790  -4.840  17.111  1.00  0.00     0.151 A
HETATM   15  C7  UNL     1       5.723  -5.581  16.554  1.00  0.00     0.003 A
BRANCH  15  16
HETATM   16  C8  UNL     1       4.710  -6.259  17.375  1.00  0.00     0.059 C
HETATM   17  C9  UNL     1       4.976  -5.832  18.858  1.00  0.00     0.037 C
HETATM   18  C10 UNL     1       4.718  -7.731  17.394  1.00  0.00     0.037 C
HETATM   19 CL1  UNL     1       3.051  -5.643  17.102  1.00  0.00    -0.115 Cl
ENDBRANCH  15  16
ENDBRANCH   1  11
TORSDOF 4
ENDMDL