MODEL 4
REMARK VINA RESULT: -7.057122884      4.591      7.394
REMARK  2 active torsions:
REMARK  status: ('A' for Active; 'I' for Inactive)
REMARK    1  A    between atoms: N1_2  and  N2_3
REMARK    2  A    between atoms: N2_3  and  C2_4
ROOT
HETATM    1  C2  UNL     1       8.395  -5.321  24.657  1.00  0.00     0.124 C
HETATM    2  C3  UNL     1       9.175  -4.797  25.826  1.00  0.00     0.027 C
HETATM    3  C4  UNL     1      10.292  -3.855  25.356  1.00  0.00     0.002 C
HETATM    4  C5  UNL     1       9.552  -2.556  25.008  1.00  0.00     0.004 C
HETATM    5  C6  UNL     1       8.386  -2.881  24.104  1.00  0.00     0.036 C
HETATM    6  C7  UNL     1       8.434  -4.242  23.588  1.00  0.00    -0.051 C
HETATM    7  C8  UNL     1       8.439  -4.603  22.345  1.00  0.00    -0.033 C
HETATM    8  C9  UNL     1       8.394  -6.105  22.080  1.00  0.00     0.040 C
HETATM    9  C10 UNL     1       7.935  -6.323  20.658  1.00  0.00     0.005 C
HETATM   10  C11 UNL     1       6.643  -5.635  20.384  1.00  0.00     0.004 C
HETATM   11  C12 UNL     1       6.764  -4.313  19.665  1.00  0.00     0.029 C
HETATM   12  C13 UNL     1       7.824  -3.454  20.228  1.00  0.00    -0.002 C
HETATM   13  C14 UNL     1       8.526  -3.562  21.335  1.00  0.00     0.036 C
HETATM   14 CL1  UNL     1       9.764  -2.327  21.650  1.00  0.00    -0.084 Cl
ENDROOT
BRANCH   1  15
HETATM   15  N2  UNL     1       7.015  -5.463  25.000  1.00  0.00    -0.140 NA
BRANCH  15  16
HETATM   16  N1  UNL     1       6.704  -6.631  25.643  1.00  0.00    -0.153 NA
HETATM   17  C1  UNL     1       5.412  -6.455  26.296  1.00  0.00     0.154 C
ENDBRANCH  15  16
ENDBRANCH   1  15
TORSDOF 2
ENDMDL