MODEL 2
REMARK VINA RESULT: -7.652529457      5.601      7.527
REMARK  3 active torsions:
REMARK  status: ('A' for Active; 'I' for Inactive)
REMARK    1  A    between atoms: C1_4  and  N2_5
REMARK    2  A    between atoms: C1_4  and  C10_15
REMARK    3  A    between atoms: N2_5  and  C2_7
ROOT
HETATM    1  N2  UNL     1       6.055  -4.699  15.542  1.00  0.00    -0.371 N
ATOM      2  H2  UNL     1       5.509  -3.841  15.463  1.00  0.00     0.161 HD
ENDROOT
BRANCH   1   3
HETATM    3  C1  UNL     1       6.958  -5.028  14.508  1.00  0.00     0.112 C
HETATM    4  N1  UNL     1       8.209  -4.805  14.660  1.00  0.00    -0.385 N
ATOM      5  H12 UNL     1       8.526  -4.389  15.536  1.00  0.00     0.157 HD
ATOM      6  H11 UNL     1       8.861  -5.044  13.913  1.00  0.00     0.157 HD
BRANCH   3   7
HETATM    7  C10 UNL     1       6.505  -5.621  13.259  1.00  0.00     0.048 A
HETATM    8  C11 UNL     1       7.196  -5.867  12.103  1.00  0.00     0.023 A
HETATM    9  C12 UNL     1       6.530  -6.429  11.090  1.00  0.00     0.009 A
HETATM   10  C13 UNL     1       5.206  -6.719  11.285  1.00  0.00     0.050 A
HETATM   11  S1  UNL     1       4.940  -6.191  12.885  1.00  0.00    -0.098 SA
ENDBRANCH   3   7
ENDBRANCH   1   3
BRANCH   1  12
HETATM   12  C2  UNL     1       5.878  -5.535  16.712  1.00  0.00     0.087 C
HETATM   13  C3  UNL     1       5.539  -6.920  16.261  1.00  0.00     0.030 C
HETATM   14  C4  UNL     1       4.457  -7.451  17.185  1.00  0.00    -0.013 C
HETATM   15  C5  UNL     1       4.974  -7.279  18.599  1.00  0.00     0.005 C
HETATM   16  C9  UNL     1       3.186  -6.643  17.044  1.00  0.00     0.005 C
HETATM   17  C6  UNL     1       4.961  -5.791  18.953  1.00  0.00     0.007 C
HETATM   18  C7  UNL     1       4.858  -4.972  17.659  1.00  0.00     0.008 C
HETATM   19  C8  UNL     1       3.444  -5.158  17.159  1.00  0.00     0.007 C
ENDBRANCH   1  12
TORSDOF 3
ENDMDL