MODEL 4
REMARK VINA RESULT: -7.347170535      3.317      6.385
REMARK  3 active torsions:
REMARK  status: ('A' for Active; 'I' for Inactive)
REMARK    1  A    between atoms: C2_2  and  N1_4
REMARK    2  A    between atoms: N1_4  and  C4_6
REMARK    3  A    between atoms: C14_17  and  O1_18
ROOT
HETATM    1  C4  UNL     1       6.968  -4.699  20.503  1.00  0.00     0.108 C
HETATM    2  C5  UNL     1       5.800  -5.387  19.839  1.00  0.00     0.027 C
HETATM    3  C6  UNL     1       5.255  -4.642  18.647  1.00  0.00     0.002 C
HETATM    4  C7  UNL     1       5.201  -5.597  17.463  1.00  0.00     0.000 C
HETATM    5  C8  UNL     1       5.720  -4.997  16.192  1.00  0.00     0.000 C
HETATM    6  C9  UNL     1       7.030  -5.657  15.761  1.00  0.00     0.000 C
HETATM    7  C10 UNL     1       8.193  -4.703  15.844  1.00  0.00     0.000 C
HETATM    8  C11 UNL     1       9.101  -5.036  17.029  1.00  0.00     0.003 C
HETATM    9  C12 UNL     1       9.006  -3.948  18.075  1.00  0.00     0.040 C
HETATM   10  C13 UNL     1       9.251  -4.409  19.471  1.00  0.00     0.200 C
HETATM   11  F1  UNL     1       9.492  -3.320  20.291  1.00  0.00    -0.247 F
HETATM   12  C14 UNL     1       8.251  -5.359  20.040  1.00  0.00     0.174 C
ENDROOT
BRANCH   1  13
HETATM   13  N1  UNL     1       6.856  -4.870  21.927  1.00  0.00    -0.411 N
ATOM     14  H1  UNL     1       6.276  -5.604  22.336  1.00  0.00     0.154 HD
BRANCH  13  15
HETATM   15  C2  UNL     1       7.596  -3.963  22.735  1.00  0.00     0.068 C
HETATM   16  C1  UNL     1       7.225  -4.191  24.194  1.00  0.00     0.031 C
HETATM   17  C3  UNL     1       7.294  -2.510  22.405  1.00  0.00     0.031 C
ENDBRANCH  13  15
ENDBRANCH   1  13
BRANCH  12  18
HETATM   18  O1  UNL     1       8.892  -6.000  21.129  1.00  0.00    -0.391 OA
ATOM     19  H1  UNL     1       9.593  -6.558  20.815  1.00  0.00     0.210 HD
ENDBRANCH  12  18
TORSDOF 3
ENDMDL