MODEL 1
REMARK VINA RESULT: -8.405911795      0.000      0.000
REMARK  3 active torsions:
REMARK  status: ('A' for Active; 'I' for Inactive)
REMARK    1  A    between atoms: C4_5  and  C5_6
REMARK    2  A    between atoms: N2_7  and  C6_9
REMARK    3  A    between atoms: C12_15  and  O1_16
ROOT
HETATM    1  N1  UNL     1       9.475  -4.194  26.273  1.00  0.00    -0.190 NA
HETATM    2  C1  UNL     1       9.423  -3.908  25.146  1.00  0.00     0.117 C
HETATM    3  C2  UNL     1       9.333  -3.559  23.752  1.00  0.00     0.116 A
HETATM    4  C3  UNL     1       9.097  -4.427  22.695  1.00  0.00     0.058 A
HETATM    5  C4  UNL     1       9.098  -3.637  21.537  1.00  0.00     0.033 A
HETATM    6  C12 UNL     1       9.333  -2.334  21.924  1.00  0.00     0.152 A
HETATM    7  N3  UNL     1       9.472  -2.306  23.256  1.00  0.00    -0.328 N
ATOM      8  H3  UNL     1       9.655  -1.470  23.811  1.00  0.00     0.168 HD
ENDROOT
BRANCH   5   9
HETATM    9  C5  UNL     1       8.887  -4.125  20.192  1.00  0.00     0.099 C
HETATM   10  N2  UNL     1       8.106  -3.484  19.410  1.00  0.00    -0.393 N
ATOM     11  H2  UNL     1       7.650  -2.641  19.762  1.00  0.00     0.159 HD
BRANCH  10  12
HETATM   12  C6  UNL     1       7.841  -3.892  18.067  1.00  0.00     0.081 C
HETATM   13  C7  UNL     1       8.953  -4.791  17.567  1.00  0.00     0.025 C
HETATM   14  C8  UNL     1       8.747  -4.955  16.073  1.00  0.00     0.002 C
HETATM   15  C9  UNL     1       7.399  -5.540  15.798  1.00  0.00     0.000 C
HETATM   16  C10 UNL     1       6.269  -4.825  16.462  1.00  0.00     0.002 C
HETATM   17  C11 UNL     1       6.554  -4.708  17.962  1.00  0.00     0.025 C
ENDBRANCH  10  12
ENDBRANCH   5   9
BRANCH   6  18
HETATM   18  O1  UNL     1       9.406  -1.264  21.055  1.00  0.00    -0.345 OA
ATOM     19  H1  UNL     1       9.193  -0.367  21.287  1.00  0.00     0.219 HD
ENDBRANCH   6  18
TORSDOF 3
ENDMDL