MODEL 5
REMARK VINA RESULT: -5.752384836      2.394      5.188
REMARK  4 active torsions:
REMARK  status: ('A' for Active; 'I' for Inactive)
REMARK    1  A    between atoms: C5_6  and  N1_7
REMARK    2  A    between atoms: N1_7  and  C6_9
REMARK    3  A    between atoms: C6_9  and  N2_11
REMARK    4  A    between atoms: N2_11  and  C7_13
ROOT
HETATM    1  N1  UNL     1       8.405  -5.401  20.663  1.00  0.00    -0.332 N
ATOM      2  H1  UNL     1       8.869  -6.293  20.491  1.00  0.00     0.168 HD
ENDROOT
BRANCH   1   3
HETATM    3  C5  UNL     1       7.386  -5.044  19.705  1.00  0.00     0.047 A
HETATM    4  C2  UNL     1       7.715  -4.436  18.525  1.00  0.00    -0.028 A
HETATM    5  C1  UNL     1       9.155  -4.113  18.111  1.00  0.00     0.051 C
HETATM    6  C3  UNL     1       6.700  -4.116  17.687  1.00  0.00     0.058 A
HETATM    7  S1  UNL     1       5.315  -4.632  18.488  1.00  0.00    -0.111 SA
HETATM    8  C4  UNL     1       6.060  -5.267  19.918  1.00  0.00     0.079 A
ENDBRANCH   1   3
BRANCH   1   9
HETATM    9  C6  UNL     1       8.847  -4.713  21.780  1.00  0.00     0.173 C
HETATM   10  S2  UNL     1       9.065  -3.105  21.837  1.00  0.00    -0.041 SA
BRANCH   9  11
HETATM   11  N2  UNL     1       9.125  -5.483  22.994  1.00  0.00    -0.345 N
ATOM     12  H2  UNL     1       9.982  -6.030  23.063  1.00  0.00     0.163 HD
BRANCH  11  13
HETATM   13  C7  UNL     1       8.199  -5.472  24.082  1.00  0.00     0.102 C
HETATM   14  C8  UNL     1       7.954  -6.847  24.658  1.00  0.00     0.056 C
HETATM   15  C9  UNL     1       8.735  -4.579  25.167  1.00  0.00     0.056 C
HETATM   16 CL1  UNL     1       6.625  -4.837  23.555  1.00  0.00    -0.096 Cl
ENDBRANCH  11  13
ENDBRANCH   9  11
ENDBRANCH   1   9
TORSDOF 4
ENDMDL