MODEL 5
REMARK VINA RESULT: -8.792317706      3.103      5.827
REMARK  13 active torsions:
REMARK  status: ('A' for Active; 'I' for Inactive)
REMARK    1  A    between atoms: C6_8  and  C7_9
REMARK    2  A    between atoms: C7_9  and  C8_10
REMARK    3  A    between atoms: C12_14  and  O1_15
REMARK    4  A    between atoms: O1_15  and  C13_16
REMARK    5  A    between atoms: C13_16  and  C14_17
REMARK    6  A    between atoms: C15_20  and  O4_21
REMARK    7  A    between atoms: O4_21  and  C16_22
REMARK    8  A    between atoms: C16_22  and  C17_23
REMARK    9  A    between atoms: C17_23  and  O5_24
REMARK   10  A    between atoms: O5_24  and  C18_25
REMARK   11  A    between atoms: C18_25  and  C19_26
REMARK   12  A    between atoms: C19_26  and  N2_27
REMARK   13  A    between atoms: C27_37  and  O6_38
ROOT
HETATM    1  C8  UNL     1      17.893  22.604  16.647  1.00  0.00     0.000 A
HETATM    2  C9  UNL     1      17.674  21.549  17.495  1.00  0.00     0.028 A
HETATM    3  C10 UNL     1      16.375  21.097  17.723  1.00  0.00    -0.006 A
HETATM    4  C11 UNL     1      16.125  20.039  18.575  1.00  0.00     0.055 A
HETATM    5  C12 UNL     1      14.836  19.606  18.792  1.00  0.00     0.121 A
HETATM    6  C15 UNL     1      13.750  20.217  18.163  1.00  0.00     0.177 A
HETATM    7  N3  UNL     1      14.024  21.239  17.343  1.00  0.00    -0.334 N
ATOM      8  H3  UNL     1      13.248  21.703  16.870  1.00  0.00     0.168 HD
HETATM    9  C25 UNL     1      15.291  21.690  17.109  1.00  0.00     0.047 A
HETATM   10  C26 UNL     1      15.543  22.748  16.260  1.00  0.00     0.067 A
HETATM   11  C27 UNL     1      16.830  23.210  16.024  1.00  0.00     0.078 A
ENDROOT
BRANCH   6  12
HETATM   12  O4  UNL     1      12.462  19.785  18.379  1.00  0.00    -0.332 OA
BRANCH  12  13
HETATM   13  C16 UNL     1      11.470  19.538  17.444  1.00  0.00     0.203 C
BRANCH  13  14
HETATM   14  C17 UNL     1      11.268  18.098  17.115  1.00  0.00     0.194 C
BRANCH  14  15
HETATM   15  O5  UNL     1      10.950  17.846  15.864  1.00  0.00    -0.387 OA
BRANCH  15  16
HETATM   16  C18 UNL     1      11.685  17.649  14.798  1.00  0.00     0.198 C
BRANCH  16  17
HETATM   17  C19 UNL     1      11.871  18.712  13.772  1.00  0.00     0.298 C
BRANCH  17  18
HETATM   18  N2  UNL     1      12.507  19.877  14.448  1.00  0.00     0.090 N
HETATM   19  C20 UNL     1      11.903  21.113  14.042  1.00  0.00     0.272 C
HETATM   20  C21 UNL     1      12.909  22.228  13.880  1.00  0.00     0.030 C
HETATM   21  C22 UNL     1      13.935  21.958  12.812  1.00  0.00     0.003 C
HETATM   22  C23 UNL     1      14.101  20.475  12.664  1.00  0.00     0.030 C
HETATM   23  C24 UNL     1      13.893  19.856  14.028  1.00  0.00     0.272 C
ENDBRANCH  17  18
ENDBRANCH  16  17
ENDBRANCH  15  16
ENDBRANCH  14  15
ENDBRANCH  13  14
ENDBRANCH  12  13
ENDBRANCH   6  12
BRANCH   5  24
HETATM   24  O1  UNL     1      14.530  18.563  19.628  1.00  0.00    -0.336 OA
BRANCH  24  25
HETATM   25  C13 UNL     1      14.403  18.549  21.003  1.00  0.00     0.288 C
BRANCH  25  26
HETATM   26  C14 UNL     1      13.148  18.022  21.540  1.00  0.00     0.198 C
HETATM   27  O2  UNL     1      13.099  17.138  22.438  1.00  0.00    -0.646 OA
HETATM   28  O3  UNL     1      11.925  18.477  21.078  1.00  0.00    -0.646 OA
ENDBRANCH  25  26
ENDBRANCH  24  25
ENDBRANCH   5  24
BRANCH  11  29
HETATM   29  O6  UNL     1      17.069  24.282  15.162  1.00  0.00    -0.360 OA
ATOM     30  H6  UNL     1      17.910  24.344  14.725  1.00  0.00     0.217 HD
ENDBRANCH  11  29
BRANCH   1  31
HETATM   31  C7  UNL     1      19.263  23.089  16.413  1.00  0.00     0.044 C
BRANCH  31  32
HETATM   32  C6  UNL     1      19.876  23.847  17.313  1.00  0.00     0.042 A
HETATM   33  C2  UNL     1      20.067  25.193  17.237  1.00  0.00    -0.017 A
HETATM   34  C1  UNL     1      19.704  26.026  16.289  1.00  0.00     0.026 C
HETATM   35  C3  UNL     1      20.753  25.565  18.399  1.00  0.00     0.037 A
HETATM   36  C4  UNL     1      20.942  24.411  19.126  1.00  0.00     0.006 A
HETATM   37  C5  UNL     1      21.629  24.326  20.438  1.00  0.00     0.068 C
HETATM   38  N1  UNL     1      20.405  23.397  18.448  1.00  0.00    -0.359 N
ATOM     39  H1  UNL     1      20.400  22.424  18.753  1.00  0.00     0.166 HD
ENDBRANCH  31  32
ENDBRANCH   1  31
TORSDOF 13
ENDMDL