MODEL 5
REMARK VINA RESULT: -8.819726320      2.116      4.879
REMARK  15 active torsions:
REMARK  status: ('A' for Active; 'I' for Inactive)
REMARK       I    between atoms: C2_2  and  N1_4
REMARK    1  A    between atoms: N1_4  and  C3_6
REMARK    2  A    between atoms: C3_6  and  C4_7
REMARK    3  A    between atoms: C4_7  and  C5_8
REMARK    4  A    between atoms: C5_8  and  N2_9
REMARK       I    between atoms: N2_9  and  C6_11
REMARK       I    between atoms: C6_11  and  N5_16
REMARK    5  A    between atoms: N5_16  and  C9_18
REMARK    6  A    between atoms: C9_18  and  C10_19
REMARK    7  A    between atoms: C11_20  and  C12_21
REMARK    8  A    between atoms: C12_21  and  C13_22
REMARK    9  A    between atoms: C13_22  and  C14_23
REMARK   10  A    between atoms: C14_23  and  O2_24
REMARK   11  A    between atoms: C14_23  and  C15_26
REMARK   12  A    between atoms: C17_28  and  C18_29
REMARK   13  A    between atoms: C18_29  and  O3_30
REMARK   14  A    between atoms: C18_29  and  O4_32
REMARK   15  A    between atoms: O4_32  and  C19_33
ROOT
HETATM    1  N2  UNL     1      12.600  19.668  17.146  1.00  0.00    -0.226 N
ATOM      2  H2  UNL     1      13.156  19.531  17.990  1.00  0.00     0.177 HD
HETATM    3  C6  UNL     1      13.363  20.084  16.071  1.00  0.00     0.685 C
HETATM    4  N3  UNL     1      13.147  19.799  14.822  1.00  0.00    -0.126 N
ATOM      5  H3  UNL     1      13.840  20.197  14.188  1.00  0.00     0.197 HD
HETATM    6  C7  UNL     1      12.198  19.086  14.198  1.00  0.00     0.196 C
HETATM    7  N4  UNL     1      11.370  18.508  13.670  1.00  0.00    -0.171 NA
HETATM    8  N5  UNL     1      14.421  20.981  16.342  1.00  0.00    -0.218 N
HETATM    9  C8  UNL     1      15.219  20.628  17.565  1.00  0.00     0.169 C
ENDROOT
BRANCH   1  10
HETATM   10  C5  UNL     1      11.246  19.390  17.344  1.00  0.00     0.139 C
BRANCH  10  11
HETATM   11  C4  UNL     1      11.077  17.846  17.419  1.00  0.00     0.040 C
BRANCH  11  12
HETATM   12  C3  UNL     1      11.239  17.312  18.763  1.00  0.00     0.124 C
BRANCH  12  13
HETATM   13  N1  UNL     1      12.567  17.362  19.296  1.00  0.00    -0.361 N
HETATM   14  C2  UNL     1      12.867  18.011  20.511  1.00  0.00     0.213 C
HETATM   15  C1  UNL     1      14.201  18.095  21.146  1.00  0.00     0.117 C
HETATM   16  O1  UNL     1      11.904  18.588  21.155  1.00  0.00    -0.274 OA
ATOM     17  H1  UNL     1      13.323  16.912  18.779  1.00  0.00     0.162 HD
ENDBRANCH  12  13
ENDBRANCH  11  12
ENDBRANCH  10  11
ENDBRANCH   1  10
BRANCH   8  18
HETATM   18  C9  UNL     1      14.805  22.126  15.614  1.00  0.00     0.167 C
BRANCH  18  19
HETATM   19  C10 UNL     1      16.144  22.722  15.803  1.00  0.00    -0.010 C
HETATM   20  C11 UNL     1      16.224  23.691  16.777  1.00  0.00    -0.018 C
BRANCH  20  21
HETATM   21  C12 UNL     1      17.303  24.355  17.142  1.00  0.00     0.109 C
BRANCH  21  22
HETATM   22  C13 UNL     1      17.962  23.408  18.188  1.00  0.00    -0.148 C
BRANCH  22  23
HETATM   23  C14 UNL     1      18.493  22.674  19.030  1.00  0.00     0.189 C
BRANCH  23  24
HETATM   24  O2  UNL     1      18.878  21.465  18.696  1.00  0.00    -0.384 OA
ATOM     25  H2  UNL     1      18.243  20.760  18.653  1.00  0.00     0.211 HD
ENDBRANCH  23  24
BRANCH  23  26
HETATM   26  C15 UNL     1      18.782  22.987  20.439  1.00  0.00     0.035 A
HETATM   27  C16 UNL     1      18.669  24.394  20.930  1.00  0.00     0.018 A
HETATM   28  C17 UNL     1      20.031  23.789  20.771  1.00  0.00     0.049 A
BRANCH  28  29
HETATM   29  C18 UNL     1      20.897  24.150  19.671  1.00  0.00     0.261 C
BRANCH  29  30
HETATM   30  O3  UNL     1      21.990  23.467  19.372  1.00  0.00    -0.371 OA
ATOM     31  H3  UNL     1      22.567  23.108  20.036  1.00  0.00     0.212 HD
ENDBRANCH  29  30
BRANCH  29  32
HETATM   32  O4  UNL     1      20.699  25.234  18.829  1.00  0.00    -0.356 OA
BRANCH  32  33
HETATM   33  C19 UNL     1      21.419  25.443  17.646  1.00  0.00     0.129 C
HETATM   34  C20 UNL     1      21.650  26.884  17.357  1.00  0.00     0.062 C
HETATM   35  C21 UNL     1      22.436  26.999  16.088  1.00  0.00     0.021 C
HETATM   36  C22 UNL     1      22.857  28.411  15.792  1.00  0.00     0.037 C
HETATM   37  C23 UNL     1      23.756  26.248  16.397  1.00  0.00     0.037 C
HETATM   38  N6  UNL     1      21.828  26.375  14.955  1.00  0.00    -0.405 N
HETATM   39  C24 UNL     1      20.709  25.579  15.214  1.00  0.00     0.021 C
ATOM     40  H6  UNL     1      22.189  26.505  14.011  1.00  0.00     0.154 HD
HETATM   41  C25 UNL     1      20.549  24.559  14.093  1.00  0.00     0.037 C
HETATM   42  C26 UNL     1      19.431  26.454  15.160  1.00  0.00     0.037 C
HETATM   43  C27 UNL     1      20.751  24.769  16.477  1.00  0.00     0.062 C
ENDBRANCH  32  33
ENDBRANCH  29  32
ENDBRANCH  28  29
ENDBRANCH  23  26
ENDBRANCH  22  23
ENDBRANCH  21  22
ENDBRANCH  20  21
ENDBRANCH  18  19
ENDBRANCH   8  18
TORSDOF 15
ENDMDL