MODEL 3
REMARK VINA RESULT: -8.336051136      2.691      9.207
REMARK  14 active torsions:
REMARK  status: ('A' for Active; 'I' for Inactive)
REMARK    1  A    between atoms: C2_2  and  C3_3
REMARK    2  A    between atoms: C3_3  and  N1_4
REMARK       I    between atoms: N1_4  and  C4_5
REMARK    3  A    between atoms: C4_5  and  C5_7
REMARK    4  A    between atoms: C5_7  and  C6_8
REMARK    5  A    between atoms: C6_8  and  C7_9
REMARK    6  A    between atoms: C7_9  and  C8_10
REMARK    7  A    between atoms: C8_10  and  C9_11
REMARK    8  A    between atoms: C16_19  and  C17_20
REMARK    9  A    between atoms: C19_22  and  C20_23
REMARK   10  A    between atoms: C20_23  and  O2_24
REMARK   11  A    between atoms: C22_26  and  O3_27
REMARK   12  A    between atoms: C23_29  and  O4_30
REMARK   13  A    between atoms: C24_32  and  O5_33
REMARK   14  A    between atoms: O5_33  and  C25_34
ROOT
HETATM    1  C9  UNL     1      18.449  22.975  17.687  1.00  0.00     0.022 C
HETATM    2  C10 UNL     1      18.105  21.756  16.874  1.00  0.00     0.014 C
HETATM    3  C11 UNL     1      16.940  21.891  15.930  1.00  0.00     0.006 C
HETATM    4  C12 UNL     1      16.781  23.280  15.533  1.00  0.00    -0.008 A
HETATM    5  C13 UNL     1      17.288  24.050  14.442  1.00  0.00     0.012 A
HETATM    6  C14 UNL     1      18.266  23.763  15.425  1.00  0.00     0.024 A
HETATM    7  C15 UNL     1      18.509  24.240  16.815  1.00  0.00     0.239 C
HETATM    8  N2  UNL     1      19.869  24.472  17.065  1.00  0.00     0.107 N
HETATM    9  C16 UNL     1      20.341  25.482  17.922  1.00  0.00     0.260 C
HETATM   10  C24 UNL     1      20.715  24.918  19.266  1.00  0.00     0.167 C
HETATM   11  C27 UNL     1      20.657  23.432  18.981  1.00  0.00     0.071 C
HETATM   12  C28 UNL     1      19.909  23.187  17.753  1.00  0.00     0.237 C
ENDROOT
BRANCH   9  13
HETATM   13  C17 UNL     1      21.549  26.189  17.359  1.00  0.00     0.053 C
HETATM   14  C18 UNL     1      22.154  25.511  16.159  1.00  0.00     0.019 C
HETATM   15  C19 UNL     1      23.173  26.563  15.702  1.00  0.00     0.041 C
HETATM   16  C22 UNL     1      22.750  27.872  16.331  1.00  0.00     0.153 C
HETATM   17  C23 UNL     1      21.308  27.576  16.834  1.00  0.00     0.153 C
BRANCH  15  18
HETATM   18  C20 UNL     1      24.521  26.126  16.219  1.00  0.00     0.174 C
BRANCH  18  19
HETATM   19  O2  UNL     1      25.568  26.756  15.557  1.00  0.00    -0.395 OA
HETATM   20  C21 UNL     1      26.793  26.162  15.673  1.00  0.00     0.201 C
ENDBRANCH  18  19
ENDBRANCH  15  18
BRANCH  16  21
HETATM   21  O3  UNL     1      22.649  28.921  15.440  1.00  0.00    -0.393 OA
ATOM     22  H3  UNL     1      23.067  29.722  15.733  1.00  0.00     0.210 HD
ENDBRANCH  16  21
BRANCH  17  23
HETATM   23  O4  UNL     1      20.450  27.624  15.750  1.00  0.00    -0.393 OA
ATOM     24  H4  UNL     1      20.330  28.496  15.392  1.00  0.00     0.210 HD
ENDBRANCH  17  23
ENDBRANCH   9  13
BRANCH  10  25
HETATM   25  O5  UNL     1      22.015  25.317  19.619  1.00  0.00    -0.314 OA
BRANCH  25  26
HETATM   26  C25 UNL     1      22.842  24.659  20.531  1.00  0.00     0.255 C
HETATM   27  C26 UNL     1      24.092  24.004  20.127  1.00  0.00     0.126 C
HETATM   28  O6  UNL     1      22.408  24.671  21.753  1.00  0.00    -0.266 OA
ENDBRANCH  25  26
ENDBRANCH  10  25
BRANCH   1  29
HETATM   29  C8  UNL     1      17.549  23.195  18.845  1.00  0.00     0.014 C
BRANCH  29  30
HETATM   30  C7  UNL     1      17.221  21.970  19.662  1.00  0.00     0.001 C
BRANCH  30  31
HETATM   31  C6  UNL     1      15.769  21.577  19.587  1.00  0.00     0.010 C
BRANCH  31  32
HETATM   32  C5  UNL     1      15.541  20.224  18.969  1.00  0.00     0.119 C
BRANCH  32  33
HETATM   33  C4  UNL     1      14.171  20.124  18.379  1.00  0.00     0.290 C
HETATM   34  N1  UNL     1      13.241  19.275  19.055  1.00  0.00    -0.388 NA
HETATM   35  O1  UNL     1      13.950  20.800  17.339  1.00  0.00    -0.257 OA
BRANCH  34  36
HETATM   36  C3  UNL     1      12.379  18.510  19.652  1.00  0.00     0.158 C
BRANCH  36  37
HETATM   37  C2  UNL     1      12.721  17.769  20.948  1.00  0.00     0.055 C
HETATM   38  C1  UNL     1      13.823  18.500  21.646  1.00  0.00     0.011 C
ENDBRANCH  36  37
ENDBRANCH  34  36
ENDBRANCH  32  33
ENDBRANCH  31  32
ENDBRANCH  30  31
ENDBRANCH  29  30
ENDBRANCH   1  29
TORSDOF 14
ENDMDL