MODEL 3
REMARK VINA RESULT: -8.510282243      2.839     10.091
REMARK  14 active torsions:
REMARK  status: ('A' for Active; 'I' for Inactive)
REMARK    1  A    between atoms: C2_2  and  C3_3
REMARK    2  A    between atoms: C3_3  and  C4_4
REMARK    3  A    between atoms: C4_4  and  C5_5
REMARK    4  A    between atoms: C8_10  and  N2_11
REMARK    5  A    between atoms: C9_14  and  C10_15
REMARK    6  A    between atoms: C10_15  and  O1_16
REMARK    7  A    between atoms: C10_15  and  N3_18
REMARK    8  A    between atoms: N3_18  and  C11_20
REMARK    9  A    between atoms: C11_20  and  C12_21
REMARK   10  A    between atoms: C12_21  and  C13_22
REMARK   11  A    between atoms: C13_22  and  N4_23
REMARK   12  A    between atoms: C18_29  and  S1_30
REMARK   13  A    between atoms: S1_30  and  C19_31
REMARK   14  A    between atoms: C19_31  and  C20_32
REMARK       I    between atoms: C20_32  and  N5_34
ROOT
HETATM    1  C5  UNL     1      13.299  18.926  19.287  1.00  0.00    -0.035 A
HETATM    2  C6  UNL     1      12.736  19.654  18.235  1.00  0.00     0.096 A
HETATM    3  N1  UNL     1      13.290  20.825  17.832  1.00  0.00    -0.362 N
ATOM      4  H1  UNL     1      12.850  21.326  17.059  1.00  0.00     0.165 HD
HETATM    5  C7  UNL     1      14.385  21.359  18.394  1.00  0.00     0.087 A
HETATM    6  C8  UNL     1      14.909  22.549  17.944  1.00  0.00     0.072 A
HETATM    7  C9  UNL     1      16.064  23.076  18.558  1.00  0.00     0.076 A
HETATM    8  C18 UNL     1      16.638  22.383  19.600  1.00  0.00     0.087 A
HETATM    9  N6  UNL     1      16.054  21.206  19.986  1.00  0.00    -0.348 N
ATOM     10  H6  UNL     1      16.486  20.697  20.758  1.00  0.00     0.166 HD
HETATM   11  C23 UNL     1      14.972  20.677  19.434  1.00  0.00     0.069 A
HETATM   12  C24 UNL     1      14.422  19.465  19.871  1.00  0.00    -0.025 A
HETATM   13  C25 UNL     1      15.077  18.784  20.992  1.00  0.00     0.051 C
ENDROOT
BRANCH   7  14
HETATM   14  C10 UNL     1      16.570  24.312  18.038  1.00  0.00     0.151 C
BRANCH  14  15
HETATM   15  O1  UNL     1      16.057  25.390  18.562  1.00  0.00    -0.346 OA
ATOM     16  H1  UNL     1      16.594  25.819  19.218  1.00  0.00     0.219 HD
ENDBRANCH  14  15
BRANCH  14  17
HETATM   17  N3  UNL     1      17.520  24.598  17.060  1.00  0.00    -0.370 N
ATOM     18  H3  UNL     1      18.505  24.485  17.300  1.00  0.00     0.161 HD
BRANCH  17  19
HETATM   19  C11 UNL     1      17.189  25.052  15.713  1.00  0.00     0.127 C
BRANCH  19  20
HETATM   20  C12 UNL     1      18.342  24.888  14.765  1.00  0.00     0.064 C
BRANCH  20  21
HETATM   21  C13 UNL     1      18.769  26.236  14.228  1.00  0.00     0.065 C
BRANCH  21  22
HETATM   22  N4  UNL     1      20.143  26.502  14.268  1.00  0.00    -0.370 N
HETATM   23  C14 UNL     1      20.864  26.320  15.463  1.00  0.00     0.089 C
HETATM   24  C15 UNL     1      21.441  27.590  16.037  1.00  0.00     0.212 C
HETATM   25  O2  UNL     1      21.251  28.701  15.270  1.00  0.00    -0.385 OA
HETATM   26  C16 UNL     1      21.434  28.555  13.915  1.00  0.00     0.188 C
HETATM   27  C17 UNL     1      20.667  27.408  13.317  1.00  0.00     0.153 C
ENDBRANCH  21  22
ENDBRANCH  20  21
ENDBRANCH  19  20
ENDBRANCH  17  19
ENDBRANCH  14  17
ENDBRANCH   7  14
BRANCH   6  28
HETATM   28  N2  UNL     1      14.383  23.205  16.972  1.00  0.00    -0.396 N
ATOM     29  H22 UNL     1      14.864  23.207  16.073  1.00  0.00     0.156 HD
ATOM     30  H21 UNL     1      13.506  23.717  17.074  1.00  0.00     0.156 HD
ENDBRANCH   6  28
BRANCH   8  31
HETATM   31  S1  UNL     1      18.069  22.970  20.471  1.00  0.00    -0.102 SA
BRANCH  31  32
HETATM   32  C19 UNL     1      19.576  22.469  19.661  1.00  0.00     0.183 C
BRANCH  32  33
HETATM   33  C20 UNL     1      20.291  23.490  18.891  1.00  0.00     0.228 C
HETATM   34  O3  UNL     1      20.175  23.609  17.664  1.00  0.00    -0.273 OA
HETATM   35  N5  UNL     1      21.147  24.372  19.589  1.00  0.00    -0.360 N
HETATM   36  C21 UNL     1      21.869  25.389  18.871  1.00  0.00     0.152 C
HETATM   37  C22 UNL     1      21.291  24.265  21.018  1.00  0.00     0.152 C
ENDBRANCH  32  33
ENDBRANCH  31  32
ENDBRANCH   8  31
BRANCH   1  38
HETATM   38  C4  UNL     1      12.670  17.641  19.671  1.00  0.00     0.040 C
BRANCH  38  39
HETATM   39  C3  UNL     1      11.268  17.497  19.152  1.00  0.00     0.004 C
BRANCH  39  40
HETATM   40  C2  UNL     1      10.993  16.275  18.345  1.00  0.00    -0.004 C
HETATM   41  C1  UNL     1      10.850  16.763  16.889  1.00  0.00     0.005 C
ENDBRANCH  39  40
ENDBRANCH  38  39
ENDBRANCH   1  38
TORSDOF 14
ENDMDL