MODEL 2
REMARK VINA RESULT: -8.705342734      2.453      8.160
REMARK  12 active torsions:
REMARK  status: ('A' for Active; 'I' for Inactive)
REMARK    1  A    between atoms: C3_3  and  O1_4
REMARK    2  A    between atoms: O1_4  and  C4_5
REMARK    3  A    between atoms: C7_10  and  N2_11
REMARK       I    between atoms: N2_11  and  C8_13
REMARK    4  A    between atoms: C8_13  and  C9_15
REMARK    5  A    between atoms: C9_15  and  C10_16
REMARK    6  A    between atoms: C10_16  and  C11_17
REMARK       I    between atoms: C11_17  and  N3_19
REMARK    7  A    between atoms: N3_19  and  C12_21
REMARK    8  A    between atoms: C12_21  and  C13_22
REMARK    9  A    between atoms: C13_22  and  C14_23
REMARK   10  A    between atoms: C14_23  and  C15_24
REMARK       I    between atoms: C15_24  and  N4_26
REMARK   11  A    between atoms: N4_26  and  C16_28
REMARK   12  A    between atoms: C24_37  and  O5_38
ROOT
HETATM    1  C1  UNL     1      19.169  23.863  15.551  1.00  0.00     0.014 C
HETATM    2  C2  UNL     1      18.317  24.446  16.168  1.00  0.00    -0.091 C
HETATM    3  C3  UNL     1      17.273  25.153  16.947  1.00  0.00     0.268 C
ENDROOT
BRANCH   3   4
HETATM    4  O1  UNL     1      17.278  24.597  18.221  1.00  0.00    -0.337 OA
BRANCH   4   5
HETATM    5  C4  UNL     1      16.823  23.302  18.529  1.00  0.00     0.105 A
HETATM    6  C5  UNL     1      15.570  22.933  18.183  1.00  0.00     0.070 A
HETATM    7  C6  UNL     1      15.062  21.647  18.469  1.00  0.00     0.054 A
HETATM    8  N1  UNL     1      13.865  21.190  18.175  1.00  0.00    -0.335 N
HETATM    9  C22 UNL     1      15.921  20.805  19.117  1.00  0.00     0.038 A
HETATM   10  C7  UNL     1      13.558  19.938  18.524  1.00  0.00     0.152 A
ATOM     11  H1  UNL     1      13.186  21.778  17.692  1.00  0.00     0.168 HD
HETATM   12  S1  UNL     1      14.983  19.390  19.282  1.00  0.00    -0.052 SA
HETATM   13  C23 UNL     1      17.223  21.202  19.472  1.00  0.00     0.060 A
HETATM   14  C24 UNL     1      17.684  22.457  19.180  1.00  0.00     0.102 A
BRANCH  10  15
HETATM   15  N2  UNL     1      12.418  19.320  18.312  1.00  0.00    -0.307 N
HETATM   16  C8  UNL     1      12.016  18.305  19.208  1.00  0.00     0.224 C
HETATM   17  O2  UNL     1      11.578  18.532  20.360  1.00  0.00    -0.273 OA
ATOM     18  H2  UNL     1      11.834  19.569  17.515  1.00  0.00     0.171 HD
BRANCH  16  19
HETATM   19  C9  UNL     1      12.115  16.895  18.760  1.00  0.00     0.112 C
BRANCH  19  20
HETATM   20  C10 UNL     1      10.737  16.340  18.594  1.00  0.00     0.112 C
BRANCH  20  21
HETATM   21  C11 UNL     1      10.603  15.647  17.257  1.00  0.00     0.221 C
HETATM   22  O3  UNL     1      10.406  14.435  17.290  1.00  0.00    -0.273 OA
HETATM   23  N3  UNL     1      10.713  16.399  16.084  1.00  0.00    -0.341 N
ATOM     24  H3  UNL     1      10.899  17.395  16.206  1.00  0.00     0.167 HD
BRANCH  23  25
HETATM   25  C12 UNL     1      10.598  15.950  14.755  1.00  0.00     0.064 C
BRANCH  25  26
HETATM   26  C13 UNL     1      11.499  16.401  13.686  1.00  0.00     0.054 C
BRANCH  26  27
HETATM   27  C14 UNL     1      11.268  17.728  13.073  1.00  0.00     0.108 C
BRANCH  27  28
HETATM   28  C15 UNL     1      11.997  18.768  13.895  1.00  0.00     0.218 C
HETATM   29  O4  UNL     1      11.652  18.973  15.072  1.00  0.00    -0.274 OA
HETATM   30  N4  UNL     1      13.059  19.498  13.338  1.00  0.00    -0.356 N
ATOM     31  H4  UNL     1      13.326  19.325  12.369  1.00  0.00     0.162 HD
BRANCH  30  32
HETATM   32  C16 UNL     1      13.793  20.501  14.113  1.00  0.00     0.084 C
HETATM   33  C17 UNL     1      12.844  21.575  14.503  1.00  0.00     0.025 C
HETATM   34  C18 UNL     1      13.565  22.900  14.563  1.00  0.00     0.002 C
HETATM   35  C19 UNL     1      14.977  22.649  15.033  1.00  0.00     0.000 C
HETATM   36  C20 UNL     1      15.774  21.997  13.915  1.00  0.00     0.002 C
HETATM   37  C21 UNL     1      14.917  20.963  13.208  1.00  0.00     0.025 C
ENDBRANCH  30  32
ENDBRANCH  27  28
ENDBRANCH  26  27
ENDBRANCH  25  26
ENDBRANCH  23  25
ENDBRANCH  20  21
ENDBRANCH  19  20
ENDBRANCH  16  19
ENDBRANCH  10  15
BRANCH  14  38
HETATM   38  O5  UNL     1      18.944  22.857  19.517  1.00  0.00    -0.353 OA
HETATM   39  C25 UNL     1      19.241  23.295  20.847  1.00  0.00     0.210 C
ENDBRANCH  14  38
ENDBRANCH   4   5
ENDBRANCH   3   4
TORSDOF 12
ENDMDL