MODEL 4
REMARK VINA RESULT: -8.300772072      1.800      2.614
REMARK  13 active torsions:
REMARK  status: ('A' for Active; 'I' for Inactive)
REMARK    1  A    between atoms: C3_3  and  C4_4
REMARK    2  A    between atoms: C4_4  and  C5_5
REMARK    3  A    between atoms: C6_6  and  O1_7
REMARK    4  A    between atoms: N1_11  and  C9_12
REMARK    5  A    between atoms: C9_12  and  C10_13
REMARK       I    between atoms: C10_13  and  N2_15
REMARK    6  A    between atoms: N2_15  and  C11_17
REMARK    7  A    between atoms: C11_17  and  C12_18
REMARK    8  A    between atoms: C12_18  and  N3_19
REMARK    9  A    between atoms: N3_19  and  C13_20
REMARK   10  A    between atoms: N3_19  and  C15_22
REMARK   11  A    between atoms: C17_24  and  O3_25
REMARK   12  A    between atoms: N4_31  and  C22_32
REMARK   13  A    between atoms: C27_37  and  O4_38
ROOT
HETATM    1  C5  UNL     1      17.874  24.069  18.392  1.00  0.00     0.051 A
HETATM    2  C6  UNL     1      18.773  23.113  18.853  1.00  0.00     0.102 A
HETATM    3  C7  UNL     1      18.071  22.062  19.389  1.00  0.00     0.044 A
HETATM    4  C8  UNL     1      18.678  20.842  19.987  1.00  0.00     0.071 C
HETATM    5  N1  UNL     1      16.760  22.350  19.268  1.00  0.00    -0.320 N
HETATM    6  C17 UNL     1      16.608  23.546  18.676  1.00  0.00     0.156 A
ENDROOT
BRANCH   1   7
HETATM    7  C4  UNL     1      18.164  25.344  17.798  1.00  0.00     0.033 C
BRANCH   7   8
HETATM    8  C3  UNL     1      19.143  25.714  17.021  1.00  0.00    -0.001 A
HETATM    9  C2  UNL     1      20.445  26.119  17.281  1.00  0.00     0.041 A
HETATM   10  C1  UNL     1      21.026  26.250  18.437  1.00  0.00     0.044 C
HETATM   11  N4  UNL     1      21.094  26.394  16.108  1.00  0.00    -0.315 N
HETATM   12  C20 UNL     1      20.241  26.175  15.116  1.00  0.00     0.020 A
HETATM   13  C18 UNL     1      19.034  25.759  15.618  1.00  0.00    -0.027 A
HETATM   14  C21 UNL     1      20.538  26.355  13.650  1.00  0.00     0.069 C
HETATM   15  C19 UNL     1      17.804  25.408  14.870  1.00  0.00     0.051 C
BRANCH  11  16
HETATM   16  C22 UNL     1      22.433  26.825  15.990  1.00  0.00     0.043 A
HETATM   17  C23 UNL     1      22.759  28.165  15.757  1.00  0.00     0.037 A
HETATM   18  C24 UNL     1      24.069  28.578  15.647  1.00  0.00    -0.057 A
HETATM   19  C25 UNL     1      24.443  29.993  15.400  1.00  0.00     0.048 C
HETATM   20  C26 UNL     1      25.084  27.654  15.769  1.00  0.00     0.043 A
HETATM   21  C27 UNL     1      24.805  26.308  16.002  1.00  0.00     0.070 A
HETATM   22  C29 UNL     1      23.486  25.933  16.106  1.00  0.00     0.066 A
BRANCH  21  23
HETATM   23  O4  UNL     1      25.819  25.372  16.127  1.00  0.00    -0.356 OA
HETATM   24  C28 UNL     1      26.125  24.865  17.408  1.00  0.00     0.210 C
ENDBRANCH  21  23
ENDBRANCH  11  16
ENDBRANCH   7   8
ENDBRANCH   1   7
BRANCH   2  25
HETATM   25  O1  UNL     1      20.142  23.262  18.756  1.00  0.00    -0.358 OA
ATOM     26  H1  UNL     1      20.553  24.005  18.330  1.00  0.00     0.217 HD
ENDBRANCH   2  25
BRANCH   6  27
HETATM   27  O3  UNL     1      15.439  24.235  18.352  1.00  0.00    -0.345 OA
ATOM     28  H3  UNL     1      14.586  23.820  18.392  1.00  0.00     0.219 HD
ENDBRANCH   6  27
BRANCH   5  29
HETATM   29  C9  UNL     1      15.681  21.494  19.707  1.00  0.00     0.234 C
BRANCH  29  30
HETATM   30  C10 UNL     1      15.126  20.744  18.540  1.00  0.00     0.235 C
HETATM   31  O2  UNL     1      15.790  19.739  18.186  1.00  0.00    -0.272 OA
HETATM   32  N2  UNL     1      13.941  21.162  17.904  1.00  0.00    -0.358 N
ATOM     33  H2  UNL     1      13.460  21.993  18.248  1.00  0.00     0.162 HD
BRANCH  32  34
HETATM   34  C11 UNL     1      13.389  20.451  16.785  1.00  0.00     0.142 C
BRANCH  34  35
HETATM   35  C12 UNL     1      13.364  21.287  15.563  1.00  0.00     0.141 C
BRANCH  35  36
HETATM   36  N3  UNL     1      14.533  21.329  14.770  1.00  0.00    -0.393 N
BRANCH  36  37
HETATM   37  C13 UNL     1      14.603  20.719  13.526  1.00  0.00     0.054 C
HETATM   38  C14 UNL     1      14.556  21.513  12.289  1.00  0.00     0.054 C
ENDBRANCH  36  37
BRANCH  36  39
HETATM   39  C15 UNL     1      15.386  22.456  14.994  1.00  0.00     0.117 C
HETATM   40  C16 UNL     1      16.725  21.959  15.487  1.00  0.00     0.026 C
ENDBRANCH  36  39
ENDBRANCH  35  36
ENDBRANCH  34  35
ENDBRANCH  32  34
ENDBRANCH  29  30
ENDBRANCH   5  29
TORSDOF 13
ENDMDL