MODEL 1
REMARK VINA RESULT: -8.678336677      0.000      0.000
REMARK  11 active torsions:
REMARK  status: ('A' for Active; 'I' for Inactive)
REMARK    1  A    between atoms: C2_2  and  O1_3
REMARK    2  A    between atoms: O1_3  and  C3_4
REMARK    3  A    between atoms: C6_11  and  C7_12
REMARK       I    between atoms: C7_12  and  N3_14
REMARK    4  A    between atoms: N3_14  and  C8_16
REMARK    5  A    between atoms: C15_23  and  C16_24
REMARK       I    between atoms: C16_24  and  N4_26
REMARK    6  A    between atoms: N4_26  and  C18_28
REMARK    7  A    between atoms: C18_28  and  C19_29
REMARK    8  A    between atoms: C19_29  and  O4_30
REMARK    9  A    between atoms: C21_32  and  C22_33
REMARK   10  A    between atoms: C22_33  and  C23_34
REMARK   11  A    between atoms: C23_34  and  N5_35
REMARK       I    between atoms: N5_35  and  C24_37
ROOT
HETATM    1  C8  UNL     1      19.731  24.871  17.569  1.00  0.00     0.042 A
HETATM    2  C9  UNL     1      20.513  24.179  18.428  1.00  0.00     0.032 A
HETATM    3  C10 UNL     1      20.089  23.112  19.185  1.00  0.00     0.033 A
HETATM    4  C11 UNL     1      18.776  22.732  19.049  1.00  0.00     0.046 A
HETATM    5  C12 UNL     1      17.909  23.403  18.179  1.00  0.00     0.017 A
HETATM    6  C13 UNL     1      18.379  24.470  17.439  1.00  0.00    -0.022 A
HETATM    7  C14 UNL     1      17.561  25.242  16.500  1.00  0.00     0.051 C
HETATM    8  C15 UNL     1      16.684  22.779  18.275  1.00  0.00     0.068 A
HETATM    9  C21 UNL     1      16.814  21.730  19.207  1.00  0.00     0.029 A
HETATM   10  N6  UNL     1      18.074  21.745  19.638  1.00  0.00    -0.353 N
HETATM   11  C26 UNL     1      18.671  20.863  20.631  1.00  0.00     0.156 C
ENDROOT
BRANCH   1  12
HETATM   12  N3  UNL     1      20.184  25.986  16.779  1.00  0.00    -0.322 N
HETATM   13  C7  UNL     1      21.113  25.989  15.749  1.00  0.00     0.262 C
HETATM   14  O2  UNL     1      21.681  24.928  15.396  1.00  0.00    -0.267 OA
ATOM     15  H3  UNL     1      19.767  26.889  17.006  1.00  0.00     0.169 HD
BRANCH  13  16
HETATM   16  C6  UNL     1      21.501  27.203  15.008  1.00  0.00     0.108 A
HETATM   17  C3  UNL     1      22.556  28.060  15.189  1.00  0.00     0.175 A
HETATM   18  N1  UNL     1      22.481  29.045  14.235  1.00  0.00    -0.279 N
HETATM   19  N2  UNL     1      21.428  28.828  13.481  1.00  0.00    -0.302 N
ATOM     20  H1  UNL     1      23.137  29.819  14.129  1.00  0.00     0.189 HD
HETATM   21  C4  UNL     1      20.812  27.719  13.923  1.00  0.00     0.042 A
ATOM     22  H2  UNL     1      21.129  29.404  12.694  1.00  0.00     0.186 HD
HETATM   23  C5  UNL     1      19.562  27.109  13.344  1.00  0.00     0.071 C
BRANCH  17  24
HETATM   24  O1  UNL     1      23.547  27.972  16.163  1.00  0.00    -0.334 OA
BRANCH  24  25
HETATM   25  C2  UNL     1      24.839  27.505  15.822  1.00  0.00     0.173 C
HETATM   26  C1  UNL     1      25.079  26.101  16.260  1.00  0.00     0.034 C
ENDBRANCH  24  25
ENDBRANCH  17  24
ENDBRANCH  13  16
ENDBRANCH   1  12
BRANCH   8  27
HETATM   27  C16 UNL     1      15.447  23.116  17.608  1.00  0.00     0.256 C
HETATM   28  O3  UNL     1      14.597  23.901  18.156  1.00  0.00    -0.267 OA
HETATM   29  N4  UNL     1      15.081  22.624  16.317  1.00  0.00    -0.350 N
HETATM   30  C17 UNL     1      13.792  23.001  15.711  1.00  0.00     0.153 C
BRANCH  29  31
HETATM   31  C18 UNL     1      15.904  21.773  15.498  1.00  0.00     0.151 C
BRANCH  31  32
HETATM   32  C19 UNL     1      15.898  22.085  14.039  1.00  0.00     0.186 C
BRANCH  32  33
HETATM   33  O4  UNL     1      15.415  20.977  13.297  1.00  0.00    -0.394 OA
HETATM   34  C20 UNL     1      14.471  21.406  12.381  1.00  0.00     0.201 C
ENDBRANCH  32  33
ENDBRANCH  31  32
ENDBRANCH  29  31
ENDBRANCH   8  27
BRANCH   9  35
HETATM   35  C22 UNL     1      15.738  20.815  19.652  1.00  0.00     0.078 C
BRANCH  35  36
HETATM   36  C23 UNL     1      15.464  19.659  18.767  1.00  0.00     0.128 C
BRANCH  36  37
HETATM   37  N5  UNL     1      14.247  18.945  18.957  1.00  0.00    -0.361 N
HETATM   38  C24 UNL     1      13.930  18.103  20.036  1.00  0.00     0.213 C
HETATM   39  C25 UNL     1      12.623  17.420  20.102  1.00  0.00     0.117 C
HETATM   40  O5  UNL     1      14.764  17.934  20.951  1.00  0.00    -0.274 OA
ATOM     41  H5  UNL     1      13.534  19.055  18.236  1.00  0.00     0.162 HD
ENDBRANCH  36  37
ENDBRANCH  35  36
ENDBRANCH   9  35
TORSDOF 11
ENDMDL