MODEL 5
REMARK VINA RESULT: -7.910763571      4.153      8.784
REMARK  16 active torsions:
REMARK  status: ('A' for Active; 'I' for Inactive)
REMARK    1  A    between atoms: C2_2  and  C3_3
REMARK    2  A    between atoms: C3_3  and  N1_4
REMARK    3  A    between atoms: N1_4  and  C4_6
REMARK    4  A    between atoms: C4_6  and  N2_8
REMARK    5  A    between atoms: N2_8  and  C6_10
REMARK    6  A    between atoms: C6_10  and  C7_11
REMARK    7  A    between atoms: C7_11  and  C8_12
REMARK    8  A    between atoms: C8_12  and  C9_13
REMARK    9  A    between atoms: C9_13  and  N3_14
REMARK   10  A    between atoms: N3_14  and  C10_16
REMARK   11  A    between atoms: N4_25  and  C19_26
REMARK   12  A    between atoms: C19_26  and  C20_27
REMARK   13  A    between atoms: C20_27  and  C21_28
REMARK   14  A    between atoms: C21_28  and  O1_29
REMARK   15  A    between atoms: O1_29  and  C22_30
REMARK   16  A    between atoms: C24_35  and  N6_36
ROOT
HETATM    1  C10 UNL     1      17.895  23.591  15.536  1.00  0.00     0.046 C
HETATM    2  C11 UNL     1      18.265  22.976  16.713  1.00  0.00     0.063 C
HETATM    3  C12 UNL     1      18.789  23.561  17.834  1.00  0.00     0.080 A
HETATM    4  C13 UNL     1      19.369  24.794  18.054  1.00  0.00     0.079 A
HETATM    5  C14 UNL     1      19.538  25.751  17.066  1.00  0.00     0.063 C
HETATM    6  C15 UNL     1      19.220  25.742  15.724  1.00  0.00     0.049 A
HETATM    7  C16 UNL     1      18.479  24.770  15.058  1.00  0.00     0.019 A
HETATM    8  C17 UNL     1      18.434  25.208  13.747  1.00  0.00     0.033 A
HETATM    9  C18 UNL     1      19.123  26.401  13.618  1.00  0.00     0.092 A
HETATM   10  N4  UNL     1      19.591  26.697  14.849  1.00  0.00    -0.356 N
HETATM   11  N5  UNL     1      19.739  24.913  19.348  1.00  0.00    -0.190 N
ATOM     12  H5  UNL     1      20.191  25.716  19.786  1.00  0.00     0.184 HD
HETATM   13  C24 UNL     1      19.386  23.742  19.943  1.00  0.00     0.678 A
HETATM   14  N7  UNL     1      18.818  22.950  19.014  1.00  0.00    -0.186 N
HETATM   15  C25 UNL     1      18.335  21.632  19.332  1.00  0.00     0.175 C
ENDROOT
BRANCH   1  16
HETATM   16  N3  UNL     1      16.999  23.113  14.799  1.00  0.00    -0.369 N
ATOM     17  H3  UNL     1      16.932  23.559  13.884  1.00  0.00     0.165 HD
BRANCH  16  18
HETATM   18  C9  UNL     1      16.068  22.076  14.999  1.00  0.00     0.061 C
BRANCH  18  19
HETATM   19  C8  UNL     1      15.375  21.616  13.723  1.00  0.00     0.046 C
BRANCH  19  20
HETATM   20  C7  UNL     1      13.913  21.751  13.737  1.00  0.00     0.025 C
BRANCH  20  21
HETATM   21  C6  UNL     1      13.119  21.603  14.952  1.00  0.00     0.125 C
BRANCH  21  22
HETATM   22  N2  UNL     1      12.708  20.317  15.419  1.00  0.00    -0.363 N
HETATM   23  C5  UNL     1      12.357  19.263  14.501  1.00  0.00     0.152 C
BRANCH  22  24
HETATM   24  C4  UNL     1      12.647  20.120  16.842  1.00  0.00     0.169 C
HETATM   25  S1  UNL     1      11.320  19.248  17.376  1.00  0.00    -0.041 SA
BRANCH  24  26
HETATM   26  N1  UNL     1      13.518  20.544  17.828  1.00  0.00    -0.364 N
ATOM     27  H1  UNL     1      13.140  21.270  18.437  1.00  0.00     0.162 HD
BRANCH  26  28
HETATM   28  C3  UNL     1      14.853  20.148  18.148  1.00  0.00     0.148 C
BRANCH  28  29
HETATM   29  C2  UNL     1      14.992  19.236  19.295  1.00  0.00    -0.018 C
HETATM   30  C1  UNL     1      15.017  19.586  20.553  1.00  0.00     0.008 C
ENDBRANCH  28  29
ENDBRANCH  26  28
ENDBRANCH  24  26
ENDBRANCH  22  24
ENDBRANCH  21  22
ENDBRANCH  20  21
ENDBRANCH  19  20
ENDBRANCH  18  19
ENDBRANCH  16  18
ENDBRANCH   1  16
BRANCH  10  31
HETATM   31  C19 UNL     1      20.382  27.879  15.172  1.00  0.00     0.130 C
BRANCH  31  32
HETATM   32  C20 UNL     1      21.738  27.815  14.494  1.00  0.00     0.047 C
BRANCH  32  33
HETATM   33  C21 UNL     1      22.810  28.125  15.517  1.00  0.00     0.180 C
BRANCH  33  34
HETATM   34  O1  UNL     1      22.469  27.611  16.790  1.00  0.00    -0.322 OA
BRANCH  34  35
HETATM   35  C22 UNL     1      23.156  26.605  17.422  1.00  0.00     0.254 C
HETATM   36  C23 UNL     1      24.431  26.116  16.820  1.00  0.00     0.126 C
HETATM   37  O2  UNL     1      22.674  26.145  18.481  1.00  0.00    -0.266 OA
ENDBRANCH  34  35
ENDBRANCH  33  34
ENDBRANCH  32  33
ENDBRANCH  31  32
ENDBRANCH  10  31
BRANCH  13  38
HETATM   38  N6  UNL     1      19.599  23.519  21.195  1.00  0.00    -0.234 N
ATOM     39  H62 UNL     1      20.470  23.299  21.678  1.00  0.00     0.174 HD
ATOM     40  H61 UNL     1      18.849  23.544  21.886  1.00  0.00     0.174 HD
ENDBRANCH  13  38
TORSDOF 16
ENDMDL