MODEL 3
REMARK VINA RESULT: -8.489102413      0.708      1.082
REMARK  15 active torsions:
REMARK  status: ('A' for Active; 'I' for Inactive)
REMARK    1  A    between atoms: C2_2  and  C3_3
REMARK    2  A    between atoms: C3_3  and  C4_4
REMARK    3  A    between atoms: C4_4  and  C5_5
REMARK    4  A    between atoms: C5_5  and  C6_6
REMARK    5  A    between atoms: C6_6  and  N1_7
REMARK    6  A    between atoms: C10_11  and  C11_12
REMARK    7  A    between atoms: C12_13  and  C13_14
REMARK    8  A    between atoms: C13_14  and  N2_15
REMARK    9  A    between atoms: N2_15  and  C14_17
REMARK   10  A    between atoms: C17_22  and  S1_23
REMARK   11  A    between atoms: S1_23  and  C18_24
REMARK   12  A    between atoms: C18_24  and  C19_25
REMARK   13  A    between atoms: C19_25  and  C20_26
REMARK   14  A    between atoms: C19_25  and  O2_29
REMARK   15  A    between atoms: C20_26  and  O1_27
ROOT
HETATM    1  C14 UNL     1      14.057  21.409  16.668  1.00  0.00     0.121 A
HETATM    2  N3  UNL     1      14.561  21.022  17.855  1.00  0.00    -0.327 N
ATOM      3  H3  UNL     1      15.429  21.376  18.257  1.00  0.00     0.169 HD
HETATM    4  C15 UNL     1      13.770  20.107  18.439  1.00  0.00     0.127 A
HETATM    5  C16 UNL     1      12.721  19.916  17.568  1.00  0.00     0.097 A
HETATM    6  C17 UNL     1      12.858  20.708  16.445  1.00  0.00     0.064 A
HETATM    7  C22 UNL     1      11.746  19.023  17.961  1.00  0.00     0.262 A
HETATM    8  O3  UNL     1      10.771  18.830  17.195  1.00  0.00    -0.267 OA
HETATM    9  N4  UNL     1      11.873  18.397  19.149  1.00  0.00    -0.312 N
ATOM     10  H4  UNL     1      11.151  17.735  19.436  1.00  0.00     0.170 HD
HETATM   11  C23 UNL     1      12.921  18.613  19.970  1.00  0.00     0.087 A
HETATM   12  N5  UNL     1      13.896  19.475  19.633  1.00  0.00    -0.322 N
HETATM   13  C24 UNL     1      14.910  19.537  20.676  1.00  0.00     0.132 C
HETATM   14  C25 UNL     1      14.744  18.177  21.333  1.00  0.00     0.028 C
HETATM   15  C26 UNL     1      13.237  18.029  21.299  1.00  0.00     0.078 C
ENDROOT
BRANCH   1  16
HETATM   16  N2  UNL     1      14.576  22.347  15.750  1.00  0.00    -0.365 N
ATOM     17  H2  UNL     1      14.161  23.274  15.658  1.00  0.00     0.162 HD
BRANCH  16  18
HETATM   18  C13 UNL     1      15.708  21.962  14.947  1.00  0.00     0.216 C
BRANCH  18  19
HETATM   19  C12 UNL     1      16.915  22.724  15.254  1.00  0.00    -0.081 C
HETATM   20  C11 UNL     1      17.909  23.356  15.480  1.00  0.00    -0.064 C
BRANCH  20  21
HETATM   21  C10 UNL     1      19.108  24.122  15.721  1.00  0.00     0.033 A
HETATM   22  C9  UNL     1      19.840  24.644  14.668  1.00  0.00     0.023 A
HETATM   23  C8  UNL     1      20.982  25.358  14.931  1.00  0.00     0.019 A
HETATM   24  C7  UNL     1      21.365  25.531  16.249  1.00  0.00     0.090 A
HETATM   25  N1  UNL     1      20.683  25.040  17.291  1.00  0.00    -0.365 N
HETATM   26  C27 UNL     1      19.545  24.332  17.008  1.00  0.00     0.111 A
BRANCH  25  27
HETATM   27  C6  UNL     1      21.064  25.184  18.683  1.00  0.00     0.128 C
BRANCH  27  28
HETATM   28  C5  UNL     1      20.888  23.930  19.491  1.00  0.00     0.020 C
BRANCH  28  29
HETATM   29  C4  UNL     1      19.951  24.051  20.654  1.00  0.00     0.002 C
BRANCH  29  30
HETATM   30  C3  UNL     1      18.824  23.065  20.644  1.00  0.00    -0.000 C
BRANCH  30  31
HETATM   31  C2  UNL     1      19.174  21.899  19.714  1.00  0.00    -0.005 C
HETATM   32  C1  UNL     1      17.976  21.460  18.911  1.00  0.00     0.005 C
ENDBRANCH  30  31
ENDBRANCH  29  30
ENDBRANCH  28  29
ENDBRANCH  27  28
ENDBRANCH  25  27
ENDBRANCH  20  21
ENDBRANCH  18  19
ENDBRANCH  16  18
ENDBRANCH   1  16
BRANCH   6  33
HETATM   33  S1  UNL     1      11.761  20.883  15.065  1.00  0.00    -0.122 SA
BRANCH  33  34
HETATM   34  C18 UNL     1      12.142  19.836  13.685  1.00  0.00     0.113 C
BRANCH  34  35
HETATM   35  C19 UNL     1      13.420  19.103  13.638  1.00  0.00     0.154 C
BRANCH  35  36
HETATM   36  C20 UNL     1      13.013  17.749  12.913  1.00  0.00     0.196 C
BRANCH  36  37
HETATM   37  O1  UNL     1      14.122  16.998  12.655  1.00  0.00    -0.398 OA
ATOM     38  H1  UNL     1      14.631  16.875  13.448  1.00  0.00     0.209 HD
ENDBRANCH  36  37
ENDBRANCH  35  36
BRANCH  35  39
HETATM   39  O2  UNL     1      14.381  19.601  12.768  1.00  0.00    -0.388 OA
HETATM   40  C21 UNL     1      14.100  20.867  12.284  1.00  0.00     0.202 C
ENDBRANCH  35  39
ENDBRANCH  34  35
ENDBRANCH  33  34
ENDBRANCH   6  33
TORSDOF 15
ENDMDL