MODEL 4
REMARK VINA RESULT: -8.641664068      1.881      2.214
REMARK  12 active torsions:
REMARK  status: ('A' for Active; 'I' for Inactive)
REMARK    1  A    between atoms: C2_2  and  C3_3
REMARK    2  A    between atoms: C4_4  and  C5_5
REMARK       I    between atoms: C5_5  and  N1_7
REMARK    3  A    between atoms: N1_7  and  C6_9
REMARK    4  A    between atoms: C10_13  and  C11_14
REMARK       I    between atoms: C11_14  and  N2_16
REMARK    5  A    between atoms: N2_16  and  C12_18
REMARK    6  A    between atoms: C12_18  and  C13_19
REMARK       I    between atoms: C13_19  and  N3_21
REMARK    7  A    between atoms: N3_21  and  C14_23
REMARK    8  A    between atoms: C14_23  and  C15_24
REMARK    9  A    between atoms: C15_24  and  O4_25
REMARK   10  A    between atoms: N5_29  and  C17_30
REMARK   11  A    between atoms: N6_33  and  C20_34
REMARK   12  A    between atoms: C20_34  and  C21_35
ROOT
HETATM    1  C3  UNL     1      16.863  22.389  17.177  1.00  0.00     0.052 A
HETATM    2  C4  UNL     1      15.742  21.572  17.110  1.00  0.00     0.090 A
HETATM    3  C10 UNL     1      15.340  21.566  15.812  1.00  0.00     0.134 A
HETATM    4  N4  UNL     1      16.223  22.380  15.143  1.00  0.00    -0.287 N
ATOM      5  H4  UNL     1      16.182  22.581  14.143  1.00  0.00     0.188 HD
HETATM    6  N5  UNL     1      17.113  22.858  15.951  1.00  0.00    -0.259 N
ENDROOT
BRANCH   3   7
HETATM    7  C11 UNL     1      14.291  20.809  15.161  1.00  0.00     0.271 C
HETATM    8  O2  UNL     1      14.454  20.200  14.118  1.00  0.00    -0.266 OA
HETATM    9  N2  UNL     1      12.984  20.782  15.798  1.00  0.00    -0.347 N
ATOM     10  H2  UNL     1      12.793  21.273  16.672  1.00  0.00     0.163 HD
BRANCH   9  11
HETATM   11  C12 UNL     1      11.987  20.024  15.117  1.00  0.00     0.225 C
BRANCH  11  12
HETATM   12  C13 UNL     1      11.331  19.028  15.983  1.00  0.00     0.235 C
HETATM   13  O3  UNL     1      10.645  19.471  16.990  1.00  0.00    -0.272 OA
HETATM   14  N3  UNL     1      11.431  17.651  15.748  1.00  0.00    -0.358 N
ATOM     15  H3  UNL     1      11.959  17.297  14.950  1.00  0.00     0.162 HD
BRANCH  14  16
HETATM   16  C14 UNL     1      10.759  16.722  16.678  1.00  0.00     0.148 C
BRANCH  16  17
HETATM   17  C15 UNL     1      10.190  15.592  15.872  1.00  0.00     0.186 C
BRANCH  17  18
HETATM   18  O4  UNL     1      10.512  14.337  16.365  1.00  0.00    -0.394 OA
HETATM   19  C16 UNL     1       9.704  14.013  17.436  1.00  0.00     0.201 C
ENDBRANCH  17  18
ENDBRANCH  16  17
ENDBRANCH  14  16
ENDBRANCH  11  12
ENDBRANCH   9  11
ENDBRANCH   3   7
BRANCH   2  20
HETATM   20  C5  UNL     1      15.160  20.871  18.240  1.00  0.00     0.256 C
HETATM   21  O1  UNL     1      14.648  21.579  19.187  1.00  0.00    -0.267 OA
HETATM   22  N1  UNL     1      15.078  19.483  18.425  1.00  0.00    -0.349 N
ATOM     23  H1  UNL     1      15.447  18.852  17.713  1.00  0.00     0.163 HD
BRANCH  22  24
HETATM   24  C6  UNL     1      14.472  18.944  19.620  1.00  0.00     0.022 C
HETATM   25  C7  UNL     1      14.835  17.483  19.723  1.00  0.00     0.037 C
HETATM   26  C8  UNL     1      14.993  19.623  20.872  1.00  0.00     0.037 C
HETATM   27  C9  UNL     1      12.967  19.095  19.532  1.00  0.00     0.037 C
ENDBRANCH  22  24
ENDBRANCH   2  20
BRANCH   1  28
HETATM   28  C2  UNL     1      17.690  22.706  18.365  1.00  0.00     0.056 C
HETATM   29  C1  UNL     1      18.553  21.576  18.818  1.00  0.00     0.011 C
ENDBRANCH   1  28
BRANCH   6  30
HETATM   30  C17 UNL     1      18.197  23.742  15.619  1.00  0.00     0.063 A
HETATM   31  C18 UNL     1      19.504  23.469  15.952  1.00  0.00     0.049 A
HETATM   32  C19 UNL     1      20.473  24.361  15.595  1.00  0.00     0.097 A
HETATM   33  N6  UNL     1      20.183  25.502  14.924  1.00  0.00    -0.321 N
HETATM   34  C25 UNL     1      18.918  25.791  14.588  1.00  0.00     0.249 A
HETATM   35  O5  UNL     1      18.634  26.853  13.960  1.00  0.00    -0.268 OA
HETATM   36  C26 UNL     1      17.924  24.904  14.939  1.00  0.00     0.106 A
BRANCH  33  37
HETATM   37  C20 UNL     1      21.246  26.418  14.562  1.00  0.00     0.159 C
BRANCH  37  38
HETATM   38  C21 UNL     1      22.356  26.380  15.550  1.00  0.00    -0.005 C
HETATM   39  C22 UNL     1      23.119  27.431  15.735  1.00  0.00    -0.090 C
HETATM   40  C23 UNL     1      22.921  28.697  14.980  1.00  0.00     0.042 C
HETATM   41  C24 UNL     1      24.221  27.366  16.730  1.00  0.00     0.042 C
ENDBRANCH  37  38
ENDBRANCH  33  37
ENDBRANCH   6  30
TORSDOF 12
ENDMDL