MODEL 1
REMARK VINA RESULT: -8.477426513      0.000      0.000
REMARK  13 active torsions:
REMARK  status: ('A' for Active; 'I' for Inactive)
REMARK    1  A    between atoms: C2_2  and  C3_3
REMARK    2  A    between atoms: C3_3  and  C4_4
REMARK    3  A    between atoms: C4_4  and  N1_5
REMARK       I    between atoms: N1_5  and  C5_7
REMARK    4  A    between atoms: C5_7  and  C6_9
REMARK    5  A    between atoms: C6_9  and  N2_10
REMARK    6  A    between atoms: C6_9  and  C21_34
REMARK       I    between atoms: N2_10  and  C7_12
REMARK    7  A    between atoms: C7_12  and  C8_14
REMARK    8  A    between atoms: C8_14  and  N3_15
REMARK    9  A    between atoms: C8_14  and  C18_31
REMARK       I    between atoms: N3_15  and  C9_17
REMARK   10  A    between atoms: C9_17  and  C10_19
REMARK       I    between atoms: N4_23  and  C13_24
REMARK   11  A    between atoms: C13_24  and  O5_26
REMARK   12  A    between atoms: O5_26  and  C14_27
REMARK   13  A    between atoms: C21_34  and  C23_36
ROOT
HETATM    1  C8  UNL     1      14.372  21.752  16.169  1.00  0.00     0.180 C
ENDROOT
BRANCH   1   2
HETATM    2  C7  UNL     1      13.984  21.175  17.441  1.00  0.00     0.241 C
HETATM    3  N2  UNL     1      13.372  19.949  17.724  1.00  0.00    -0.346 N
ATOM      4  H2  UNL     1      13.134  19.330  16.949  1.00  0.00     0.163 HD
HETATM    5  O2  UNL     1      14.234  21.894  18.482  1.00  0.00    -0.271 OA
BRANCH   3   6
HETATM    6  C6  UNL     1      13.054  19.509  19.116  1.00  0.00     0.180 C
BRANCH   6   7
HETATM    7  C5  UNL     1      11.951  18.548  19.089  1.00  0.00     0.240 C
HETATM    8  N1  UNL     1      11.601  17.712  17.997  1.00  0.00    -0.359 N
ATOM      9  H1  UNL     1      12.170  17.792  17.154  1.00  0.00     0.162 HD
HETATM   10  O1  UNL     1      11.221  18.416  20.123  1.00  0.00    -0.271 OA
BRANCH   8  11
HETATM   11  C4  UNL     1      10.529  16.771  17.964  1.00  0.00     0.122 C
BRANCH  11  12
HETATM   12  C3  UNL     1      10.189  16.238  16.610  1.00  0.00     0.019 C
BRANCH  12  13
HETATM   13  C2  UNL     1       9.791  14.783  16.702  1.00  0.00    -0.003 C
HETATM   14  C1  UNL     1       9.374  14.367  18.081  1.00  0.00     0.005 C
ENDBRANCH  12  13
ENDBRANCH  11  12
ENDBRANCH   8  11
ENDBRANCH   6   7
BRANCH   6  15
HETATM   15  C21 UNL     1      14.335  19.086  19.729  1.00  0.00     0.013 C
HETATM   16  C22 UNL     1      14.609  17.599  19.548  1.00  0.00     0.012 C
BRANCH  15  17
HETATM   17  C23 UNL     1      14.634  19.495  21.129  1.00  0.00     0.002 C
HETATM   18  C24 UNL     1      13.918  18.793  22.222  1.00  0.00     0.005 C
ENDBRANCH  15  17
ENDBRANCH   6  15
ENDBRANCH   3   6
ENDBRANCH   1   2
BRANCH   1  19
HETATM   19  N3  UNL     1      15.843  21.765  16.038  1.00  0.00    -0.346 N
HETATM   20  C9  UNL     1      16.570  22.972  16.163  1.00  0.00     0.242 C
HETATM   21  O3  UNL     1      15.921  24.027  16.382  1.00  0.00    -0.271 OA
ATOM     22  H3  UNL     1      16.340  20.893  15.855  1.00  0.00     0.163 HD
BRANCH  20  23
HETATM   23  C10 UNL     1      18.027  23.075  16.054  1.00  0.00     0.191 C
HETATM   24  C11 UNL     1      18.770  22.016  16.843  1.00  0.00     0.110 C
HETATM   25  S1  UNL     1      18.909  22.904  18.448  1.00  0.00    -0.146 SA
HETATM   26  C12 UNL     1      18.795  24.585  17.774  1.00  0.00     0.203 C
HETATM   27  N4  UNL     1      18.550  24.367  16.386  1.00  0.00    -0.305 N
HETATM   28  C13 UNL     1      18.810  25.391  15.396  1.00  0.00     0.365 C
HETATM   29  O4  UNL     1      18.593  25.197  14.171  1.00  0.00    -0.238 OA
BRANCH  28  30
HETATM   30  O5  UNL     1      19.308  26.618  15.749  1.00  0.00    -0.294 OA
BRANCH  30  31
HETATM   31  C14 UNL     1      20.673  26.981  15.630  1.00  0.00     0.061 C
HETATM   32  C15 UNL     1      20.858  28.171  14.709  1.00  0.00     0.046 C
HETATM   33  C16 UNL     1      21.542  25.827  15.199  1.00  0.00     0.046 C
HETATM   34  C17 UNL     1      21.165  27.444  17.006  1.00  0.00     0.046 C
ENDBRANCH  30  31
ENDBRANCH  28  30
ENDBRANCH  20  23
ENDBRANCH   1  19
BRANCH   1  35
HETATM   35  C18 UNL     1      13.782  21.101  14.939  1.00  0.00     0.009 C
HETATM   36  C19 UNL     1      14.644  21.293  13.743  1.00  0.00     0.012 C
HETATM   37  C20 UNL     1      12.348  21.466  14.718  1.00  0.00     0.012 C
ENDBRANCH   1  35
TORSDOF 13
ENDMDL