MODEL 1
REMARK VINA RESULT: -7.341263856      0.000      0.000
REMARK  16 active torsions:
REMARK  status: ('A' for Active; 'I' for Inactive)
REMARK    1  A    between atoms: C2_2  and  C3_3
REMARK    2  A    between atoms: C3_3  and  N1_4
REMARK    3  A    between atoms: C3_3  and  C10_17
REMARK       I    between atoms: N1_4  and  C4_6
REMARK       I    between atoms: N3_8  and  C5_10
REMARK    4  A    between atoms: C5_10  and  O2_12
REMARK    5  A    between atoms: O2_12  and  C6_13
REMARK    6  A    between atoms: C10_17  and  C11_18
REMARK    7  A    between atoms: C10_17  and  N6_28
REMARK       I    between atoms: C11_18  and  N4_20
REMARK    8  A    between atoms: N4_20  and  C12_22
REMARK    9  A    between atoms: N6_28  and  C15_29
REMARK   10  A    between atoms: N6_28  and  C20_34
REMARK   11  A    between atoms: C15_29  and  C16_30
REMARK   12  A    between atoms: C16_30  and  C17_31
REMARK   13  A    between atoms: C17_31  and  C18_32
REMARK   14  A    between atoms: C20_34  and  C21_35
REMARK   15  A    between atoms: C21_35  and  O5_37
REMARK   16  A    between atoms: O5_37  and  C22_38
ROOT
HETATM    1  C10 UNL     1      14.421  21.210  17.888  1.00  0.00     0.107 C
ENDROOT
BRANCH   1   2
HETATM    2  C3  UNL     1      14.089  21.699  16.509  1.00  0.00     0.162 C
BRANCH   2   3
HETATM    3  C2  UNL     1      14.514  23.117  16.415  1.00  0.00    -0.006 C
HETATM    4  C1  UNL     1      15.488  23.540  15.624  1.00  0.00     0.009 C
ENDBRANCH   2   3
BRANCH   2   5
HETATM    5  N1  UNL     1      14.765  20.981  15.445  1.00  0.00    -0.351 N
HETATM    6  C4  UNL     1      13.992  20.654  14.301  1.00  0.00     0.193 C
HETATM    7  N2  UNL     1      14.424  20.921  12.981  1.00  0.00    -0.063 NA
HETATM    8  N3  UNL     1      12.851  20.089  14.470  1.00  0.00    -0.277 N
HETATM    9  C5  UNL     1      12.017  19.728  13.374  1.00  0.00     0.367 C
ATOM     10  H3  UNL     1      12.533  19.891  15.419  1.00  0.00     0.173 HD
HETATM   11  O1  UNL     1      10.906  20.254  13.185  1.00  0.00    -0.238 OA
ATOM     12  H1  UNL     1      15.749  20.725  15.516  1.00  0.00     0.163 HD
BRANCH   9  13
HETATM   13  O2  UNL     1      12.454  18.773  12.500  1.00  0.00    -0.294 OA
BRANCH  13  14
HETATM   14  C6  UNL     1      11.975  17.471  12.399  1.00  0.00     0.061 C
HETATM   15  C7  UNL     1      11.320  16.931  13.622  1.00  0.00     0.046 C
HETATM   16  C8  UNL     1      11.006  17.330  11.225  1.00  0.00     0.046 C
HETATM   17  C9  UNL     1      13.173  16.563  12.090  1.00  0.00     0.046 C
ENDBRANCH  13  14
ENDBRANCH   9  13
ENDBRANCH   2   5
ENDBRANCH   1   2
BRANCH   1  18
HETATM   18  C11 UNL     1      15.794  21.513  18.295  1.00  0.00     0.272 C
HETATM   19  O3  UNL     1      16.757  20.991  17.624  1.00  0.00    -0.266 OA
HETATM   20  N4  UNL     1      16.158  22.348  19.378  1.00  0.00    -0.302 N
ATOM     21  H4  UNL     1      15.470  22.611  20.083  1.00  0.00     0.171 HD
BRANCH  20  22
HETATM   22  C12 UNL     1      17.394  22.776  19.458  1.00  0.00     0.151 A
HETATM   23  N5  UNL     1      18.475  22.052  19.740  1.00  0.00    -0.346 N
HETATM   24  C13 UNL     1      19.629  22.649  19.773  1.00  0.00     0.097 A
ATOM     25  H5  UNL     1      18.400  21.052  19.925  1.00  0.00     0.167 HD
HETATM   26  C14 UNL     1      19.672  23.992  19.516  1.00  0.00     0.070 A
HETATM   27  S1  UNL     1      18.024  24.347  19.233  1.00  0.00    -0.064 SA
ENDBRANCH  20  22
ENDBRANCH   1  18
BRANCH   1  28
HETATM   28  N6  UNL     1      13.925  20.000  18.329  1.00  0.00    -0.348 N
BRANCH  28  29
HETATM   29  C15 UNL     1      14.667  18.851  18.541  1.00  0.00     0.064 C
BRANCH  29  30
HETATM   30  C16 UNL     1      14.401  18.169  19.845  1.00  0.00     0.044 C
BRANCH  30  31
HETATM   31  C17 UNL     1      14.862  19.045  21.021  1.00  0.00     0.005 C
BRANCH  31  32
HETATM   32  C18 UNL     1      13.877  18.892  22.170  1.00  0.00    -0.004 C
HETATM   33  C19 UNL     1      12.950  17.735  21.963  1.00  0.00     0.005 C
ENDBRANCH  31  32
ENDBRANCH  30  31
ENDBRANCH  29  30
ENDBRANCH  28  29
BRANCH  28  34
HETATM   34  C20 UNL     1      12.588  19.998  18.866  1.00  0.00     0.239 C
BRANCH  34  35
HETATM   35  C21 UNL     1      11.609  19.240  18.066  1.00  0.00     0.277 C
HETATM   36  O4  UNL     1      11.434  19.512  16.825  1.00  0.00    -0.263 OA
BRANCH  35  37
HETATM   37  O5  UNL     1      10.825  18.216  18.561  1.00  0.00    -0.321 OA
BRANCH  37  38
HETATM   38  C22 UNL     1      11.253  16.872  18.487  1.00  0.00     0.174 C
HETATM   39  C23 UNL     1      10.244  16.105  17.672  1.00  0.00     0.034 C
ENDBRANCH  37  38
ENDBRANCH  35  37
ENDBRANCH  34  35
ENDBRANCH  28  34
ENDBRANCH   1  28
TORSDOF 16
ENDMDL