MODEL 3
REMARK VINA RESULT: -8.380539949      2.439      4.077
REMARK  13 active torsions:
REMARK  status: ('A' for Active; 'I' for Inactive)
REMARK    1  A    between atoms: C2_2  and  N1_3
REMARK    2  A    between atoms: N1_3  and  C3_5
REMARK    3  A    between atoms: N3_9  and  C5_11
REMARK    4  A    between atoms: C5_11  and  C6_12
REMARK    5  A    between atoms: C6_12  and  C7_13
REMARK    6  A    between atoms: C7_13  and  N4_14
REMARK    7  A    between atoms: C13_24  and  C14_25
REMARK    8  A    between atoms: C16_27  and  C17_28
REMARK    9  A    between atoms: C17_28  and  C18_29
REMARK   10  A    between atoms: C18_29  and  N7_30
REMARK   11  A    between atoms: N7_30  and  C19_31
REMARK   12  A    between atoms: N7_30  and  C21_33
REMARK   13  A    between atoms: C25_37  and  N8_38
ROOT
HETATM    1  C3  UNL     1      14.842  22.506  18.265  1.00  0.00     0.147 A
HETATM    2  N2  UNL     1      14.014  22.273  17.190  1.00  0.00    -0.175 N
ATOM      3  H2  UNL     1      13.173  21.713  17.326  1.00  0.00     0.186 HD
HETATM    4  C4  UNL     1      14.281  22.757  15.974  1.00  0.00     0.681 A
HETATM    5  N3  UNL     1      13.566  22.564  14.927  1.00  0.00    -0.226 N
ATOM      6  H3  UNL     1      13.853  22.979  14.040  1.00  0.00     0.177 HD
HETATM    7  N5  UNL     1      15.416  23.511  15.799  1.00  0.00    -0.174 N
ATOM      8  H5  UNL     1      15.629  23.887  14.876  1.00  0.00     0.186 HD
HETATM    9  C12 UNL     1      16.249  23.762  16.816  1.00  0.00     0.153 A
HETATM   10  N6  UNL     1      17.416  24.451  16.918  1.00  0.00    -0.325 N
ATOM     11  H6  UNL     1      17.878  24.938  16.150  1.00  0.00     0.169 HD
HETATM   12  C13 UNL     1      17.878  24.396  18.198  1.00  0.00     0.120 A
HETATM   13  N9  UNL     1      16.985  23.679  18.840  1.00  0.00    -0.336 N
ATOM     14  H9  UNL     1      17.058  23.461  19.833  1.00  0.00     0.168 HD
HETATM   15  C26 UNL     1      15.968  23.258  18.074  1.00  0.00     0.123 A
ENDROOT
BRANCH  12  16
HETATM   16  C14 UNL     1      19.137  24.985  18.647  1.00  0.00     0.042 A
HETATM   17  C15 UNL     1      19.758  25.916  17.800  1.00  0.00     0.025 A
HETATM   18  C16 UNL     1      20.961  26.517  18.074  1.00  0.00    -0.055 A
HETATM   19  C23 UNL     1      21.601  26.194  19.245  1.00  0.00     0.010 A
HETATM   20  C24 UNL     1      21.039  25.293  20.108  1.00  0.00     0.037 A
HETATM   21  C25 UNL     1      19.792  24.683  19.805  1.00  0.00     0.116 A
BRANCH  18  22
HETATM   22  C17 UNL     1      21.576  27.519  17.123  1.00  0.00     0.068 C
BRANCH  22  23
HETATM   23  C18 UNL     1      22.324  26.719  16.119  1.00  0.00     0.277 C
BRANCH  23  24
HETATM   24  N7  UNL     1      21.733  26.537  14.838  1.00  0.00     0.088 N
BRANCH  24  25
HETATM   25  C19 UNL     1      21.248  25.178  14.743  1.00  0.00     0.268 C
HETATM   26  C20 UNL     1      19.851  25.083  14.229  1.00  0.00     0.037 C
ENDBRANCH  24  25
BRANCH  24  27
HETATM   27  C21 UNL     1      20.766  27.465  14.409  1.00  0.00     0.268 C
HETATM   28  C22 UNL     1      21.235  28.627  13.597  1.00  0.00     0.037 C
ENDBRANCH  24  27
ENDBRANCH  23  24
ENDBRANCH  22  23
ENDBRANCH  18  22
BRANCH  21  29
HETATM   29  N8  UNL     1      19.313  23.787  20.763  1.00  0.00    -0.115 N
HETATM   30  O1  UNL     1      19.003  24.045  21.913  1.00  0.00    -0.532 OA
HETATM   31  O2  UNL     1      19.255  22.438  20.389  1.00  0.00    -0.532 OA
ENDBRANCH  21  29
ENDBRANCH  12  16
BRANCH   1  32
HETATM   32  N1  UNL     1      14.515  22.009  19.376  1.00  0.00    -0.374 N
ATOM     33  H1  UNL     1      13.704  22.452  19.808  1.00  0.00     0.161 HD
BRANCH  32  34
HETATM   34  C2  UNL     1      15.064  20.957  20.129  1.00  0.00     0.116 C
HETATM   35  C1  UNL     1      14.616  19.605  19.563  1.00  0.00     0.026 C
ENDBRANCH  32  34
ENDBRANCH   1  32
BRANCH   5  36
HETATM   36  C5  UNL     1      12.363  21.772  14.982  1.00  0.00     0.143 C
BRANCH  36  37
HETATM   37  C6  UNL     1      12.634  20.312  14.907  1.00  0.00     0.065 C
BRANCH  37  38
HETATM   38  C7  UNL     1      13.376  19.833  13.706  1.00  0.00     0.064 C
BRANCH  38  39
HETATM   39  N4  UNL     1      12.711  19.056  12.757  1.00  0.00    -0.374 N
HETATM   40  C8  UNL     1      12.945  17.671  12.653  1.00  0.00     0.063 C
HETATM   41  C9  UNL     1      11.589  16.980  12.614  1.00  0.00     0.046 C
HETATM   42  C10 UNL     1      10.665  18.075  12.100  1.00  0.00     0.025 C
HETATM   43  C11 UNL     1      11.383  19.380  12.392  1.00  0.00     0.127 C
ENDBRANCH  38  39
ENDBRANCH  37  38
ENDBRANCH  36  37
ENDBRANCH   5  36
TORSDOF 13
ENDMDL