MODEL 1
REMARK VINA RESULT: -8.353270285      0.000      0.000
REMARK  14 active torsions:
REMARK  status: ('A' for Active; 'I' for Inactive)
REMARK    1  A    between atoms: C2_2  and  N1_3
REMARK    2  A    between atoms: N1_3  and  C3_5
REMARK    3  A    between atoms: C3_5  and  N2_6
REMARK    4  A    between atoms: C3_5  and  C17_31
REMARK    5  A    between atoms: N2_6  and  C4_8
REMARK    6  A    between atoms: C5_13  and  C6_14
REMARK       I    between atoms: C6_14  and  N5_16
REMARK    7  A    between atoms: N5_16  and  C7_18
REMARK    8  A    between atoms: C7_18  and  C8_19
REMARK    9  A    between atoms: C8_19  and  C9_20
REMARK   10  A    between atoms: C9_20  and  N6_21
REMARK   11  A    between atoms: N7_24  and  C12_25
REMARK   12  A    between atoms: C17_31  and  N8_32
REMARK   13  A    between atoms: N8_32  and  C18_34
REMARK   14  A    between atoms: C18_34  and  C19_35
ROOT
HETATM    1  C4  UNL     1      16.475  24.315  18.442  1.00  0.00     0.167 A
HETATM    2  N3  UNL     1      15.144  24.461  18.405  1.00  0.00    -0.278 N
ATOM      3  H3  UNL     1      14.724  25.374  18.235  1.00  0.00     0.189 HD
HETATM    4  N4  UNL     1      14.417  23.436  18.587  1.00  0.00    -0.287 N
ATOM      5  H4  UNL     1      13.401  23.524  18.562  1.00  0.00     0.188 HD
HETATM    6  C5  UNL     1      14.966  22.253  18.809  1.00  0.00     0.160 A
HETATM    7  S1  UNL     1      16.632  22.642  18.751  1.00  0.00    -0.028 SA
ENDROOT
BRANCH   1   8
HETATM    8  N2  UNL     1      17.370  25.263  18.275  1.00  0.00    -0.323 N
ATOM      9  H2  UNL     1      17.140  26.238  18.464  1.00  0.00     0.169 HD
BRANCH   8  10
HETATM   10  C3  UNL     1      18.687  24.889  17.820  1.00  0.00     0.107 C
BRANCH  10  11
HETATM   11  N1  UNL     1      19.353  24.103  18.544  1.00  0.00    -0.378 N
ATOM     12  H1  UNL     1      19.339  23.124  18.260  1.00  0.00     0.160 HD
BRANCH  11  13
HETATM   13  C2  UNL     1      20.125  24.397  19.710  1.00  0.00     0.116 C
HETATM   14  C1  UNL     1      19.399  24.144  21.013  1.00  0.00     0.026 C
ENDBRANCH  11  13
ENDBRANCH  10  11
BRANCH  10  15
HETATM   15  C17 UNL     1      19.113  25.449  16.537  1.00  0.00     0.084 C
HETATM   16  C22 UNL     1      20.062  24.485  15.824  1.00  0.00     0.039 C
HETATM   17  C23 UNL     1      19.832  24.689  14.357  1.00  0.00     0.003 C
HETATM   18  C24 UNL     1      18.683  25.684  14.242  1.00  0.00     0.003 C
HETATM   19  C25 UNL     1      17.934  25.398  15.559  1.00  0.00     0.039 C
BRANCH  15  20
HETATM   20  N8  UNL     1      19.596  26.777  16.528  1.00  0.00    -0.406 N
ATOM     21  H8  UNL     1      19.075  27.512  16.048  1.00  0.00     0.154 HD
BRANCH  20  22
HETATM   22  C18 UNL     1      20.807  27.076  17.192  1.00  0.00     0.118 C
BRANCH  22  23
HETATM   23  C19 UNL     1      21.746  27.835  16.235  1.00  0.00    -0.005 C
HETATM   24  C20 UNL     1      22.806  26.903  15.720  1.00  0.00     0.011 C
HETATM   25  C21 UNL     1      20.906  28.347  15.087  1.00  0.00     0.011 C
ENDBRANCH  22  23
ENDBRANCH  20  22
ENDBRANCH  15  20
ENDBRANCH  10  15
ENDBRANCH   8  10
ENDBRANCH   1   8
BRANCH   6  26
HETATM   26  C6  UNL     1      14.311  20.951  19.049  1.00  0.00     0.276 C
HETATM   27  O1  UNL     1      14.825  20.168  19.848  1.00  0.00    -0.265 OA
HETATM   28  N5  UNL     1      13.127  20.664  18.354  1.00  0.00    -0.355 N
ATOM     29  H5  UNL     1      12.754  21.358  17.706  1.00  0.00     0.162 HD
BRANCH  28  30
HETATM   30  C7  UNL     1      12.420  19.420  18.524  1.00  0.00     0.125 C
BRANCH  30  31
HETATM   31  C8  UNL     1      11.406  19.200  17.429  1.00  0.00     0.050 C
BRANCH  31  32
HETATM   32  C9  UNL     1      11.189  20.502  16.686  1.00  0.00     0.274 C
BRANCH  32  33
HETATM   33  N6  UNL     1      11.199  20.318  15.258  1.00  0.00     0.091 N
HETATM   34  C10 UNL     1      11.276  21.554  14.520  1.00  0.00     0.302 C
HETATM   35  C11 UNL     1      12.506  22.293  14.924  1.00  0.00     0.303 C
HETATM   36  N7  UNL     1      13.671  21.464  15.013  1.00  0.00     0.095 N
HETATM   37  C15 UNL     1      13.504  20.149  14.434  1.00  0.00     0.303 C
HETATM   38  C16 UNL     1      12.295  19.422  14.944  1.00  0.00     0.302 C
BRANCH  36  39
HETATM   39  C12 UNL     1      14.736  22.130  14.246  1.00  0.00     0.215 C
HETATM   40  C13 UNL     1      16.006  22.223  15.088  1.00  0.00     0.042 C
HETATM   41  C14 UNL     1      14.998  21.377  12.961  1.00  0.00     0.042 C
ENDBRANCH  36  39
ENDBRANCH  32  33
ENDBRANCH  31  32
ENDBRANCH  30  31
ENDBRANCH  28  30
ENDBRANCH   6  26
TORSDOF 14
ENDMDL