MODEL 1
REMARK VINA RESULT: -9.085028747      0.000      0.000
REMARK  12 active torsions:
REMARK  status: ('A' for Active; 'I' for Inactive)
REMARK    1  A    between atoms: O1_2  and  C2_3
REMARK    2  A    between atoms: C2_3  and  C3_4
REMARK    3  A    between atoms: C3_4  and  C4_5
REMARK    4  A    between atoms: C4_5  and  O2_6
REMARK    5  A    between atoms: O2_6  and  C5_7
REMARK    6  A    between atoms: C7_9  and  C8_10
REMARK    7  A    between atoms: C12_20  and  N4_21
REMARK    8  A    between atoms: N4_21  and  N5_23
REMARK       I    between atoms: N5_23  and  C13_25
REMARK    9  A    between atoms: C13_25  and  C14_27
REMARK   10  A    between atoms: C14_27  and  C15_28
REMARK   11  A    between atoms: C15_28  and  N6_29
REMARK   12  A    between atoms: C25_41  and  O4_42
ROOT
HETATM    1  C8  UNL     1      16.185  22.471  19.313  1.00  0.00     0.118 A
HETATM    2  N1  UNL     1      17.221  22.411  20.218  1.00  0.00    -0.326 N
ATOM      3  H1  UNL     1      17.280  21.626  20.866  1.00  0.00     0.169 HD
HETATM    4  C9  UNL     1      18.148  23.370  20.255  1.00  0.00     0.139 A
HETATM    5  N2  UNL     1      19.253  23.538  21.034  1.00  0.00    -0.337 N
ATOM      6  H2  UNL     1      19.581  22.918  21.776  1.00  0.00     0.168 HD
HETATM    7  C10 UNL     1      19.821  24.677  20.632  1.00  0.00     0.182 A
HETATM    8  N3  UNL     1      19.122  25.230  19.637  1.00  0.00    -0.346 N
ATOM      9  H3  UNL     1      19.343  26.101  19.156  1.00  0.00     0.167 HD
HETATM   10  C11 UNL     1      18.068  24.424  19.387  1.00  0.00     0.123 A
HETATM   11  C12 UNL     1      17.032  24.480  18.483  1.00  0.00     0.152 A
HETATM   12  N7  UNL     1      16.114  23.476  18.486  1.00  0.00    -0.325 N
ATOM     13  H7  UNL     1      15.343  23.510  17.818  1.00  0.00     0.169 HD
ENDROOT
BRANCH  11  14
HETATM   14  N4  UNL     1      16.864  25.422  17.673  1.00  0.00    -0.281 N
ATOM     15  H4  UNL     1      16.070  26.010  17.924  1.00  0.00     0.188 HD
BRANCH  14  16
HETATM   16  N5  UNL     1      17.470  25.840  16.566  1.00  0.00    -0.268 N
HETATM   17  C13 UNL     1      17.576  25.052  15.343  1.00  0.00     0.237 C
HETATM   18  O3  UNL     1      17.087  23.911  15.310  1.00  0.00    -0.272 OA
ATOM     19  H5  UNL     1      17.888  26.770  16.573  1.00  0.00     0.190 HD
BRANCH  17  20
HETATM   20  C14 UNL     1      18.252  25.627  14.179  1.00  0.00     0.124 C
BRANCH  20  21
HETATM   21  C15 UNL     1      19.695  25.465  14.024  1.00  0.00     0.137 C
BRANCH  21  22
HETATM   22  N6  UNL     1      20.592  26.219  14.821  1.00  0.00    -0.365 N
HETATM   23  C16 UNL     1      21.104  27.391  14.321  1.00  0.00     0.097 A
HETATM   24  C17 UNL     1      22.006  28.141  15.006  1.00  0.00    -0.046 A
HETATM   25  C18 UNL     1      22.524  29.402  14.415  1.00  0.00     0.049 C
HETATM   26  C19 UNL     1      22.434  27.732  16.241  1.00  0.00     0.016 A
HETATM   27  C20 UNL     1      21.935  26.560  16.761  1.00  0.00    -0.046 A
HETATM   28  C21 UNL     1      22.389  26.114  18.094  1.00  0.00     0.049 C
HETATM   29  C22 UNL     1      21.008  25.822  16.016  1.00  0.00     0.097 A
ENDBRANCH  21  22
ENDBRANCH  20  21
ENDBRANCH  17  20
ENDBRANCH  14  16
ENDBRANCH  11  14
BRANCH   1  30
HETATM   30  C7  UNL     1      15.180  21.378  19.340  1.00  0.00     0.011 A
HETATM   31  C6  UNL     1      14.281  21.252  18.304  1.00  0.00     0.054 A
HETATM   32  C5  UNL     1      13.310  20.237  18.251  1.00  0.00     0.102 A
HETATM   33  C25 UNL     1      13.312  19.341  19.341  1.00  0.00     0.101 A
HETATM   34  C24 UNL     1      14.194  19.442  20.385  1.00  0.00     0.040 A
HETATM   35  C23 UNL     1      15.130  20.475  20.370  1.00  0.00     0.018 A
BRANCH  32  36
HETATM   36  O2  UNL     1      12.460  20.081  17.318  1.00  0.00    -0.348 OA
BRANCH  36  37
HETATM   37  C4  UNL     1      11.592  19.921  16.350  1.00  0.00     0.178 C
BRANCH  37  38
HETATM   38  C3  UNL     1      11.877  20.476  15.004  1.00  0.00     0.053 C
BRANCH  38  39
HETATM   39  C2  UNL     1      13.254  20.667  14.540  1.00  0.00     0.169 C
BRANCH  39  40
HETATM   40  O1  UNL     1      13.979  21.762  14.749  1.00  0.00    -0.396 OA
HETATM   41  C1  UNL     1      13.437  22.945  15.069  1.00  0.00     0.201 C
ENDBRANCH  39  40
ENDBRANCH  38  39
ENDBRANCH  37  38
ENDBRANCH  36  37
ENDBRANCH  32  36
BRANCH  33  42
HETATM   42  O4  UNL     1      12.363  18.335  19.307  1.00  0.00    -0.353 OA
HETATM   43  C26 UNL     1      12.419  17.338  20.310  1.00  0.00     0.210 C
ENDBRANCH  33  42
ENDBRANCH   1  30
TORSDOF 12
ENDMDL