MODEL 5
REMARK VINA RESULT: -7.849440267      2.363      5.103
REMARK  14 active torsions:
REMARK  status: ('A' for Active; 'I' for Inactive)
REMARK    1  A    between atoms: C2_2  and  C3_3
REMARK    2  A    between atoms: C3_3  and  C5_5
REMARK    3  A    between atoms: C3_3  and  C22_30
REMARK    4  A    between atoms: C6_6  and  C7_7
REMARK    5  A    between atoms: C9_9  and  C10_10
REMARK    6  A    between atoms: C10_10  and  C11_11
REMARK    7  A    between atoms: N1_14  and  C12_15
REMARK    8  A    between atoms: C12_15  and  C13_16
REMARK    9  A    between atoms: C13_16  and  C14_17
REMARK   10  A    between atoms: C17_20  and  C18_21
REMARK   11  A    between atoms: C18_21  and  O3_22
REMARK   12  A    between atoms: C21_27  and  O5_28
REMARK   13  A    between atoms: C22_30  and  C23_31
REMARK   14  A    between atoms: C23_31  and  N2_32
ROOT
HETATM    1  C7  UNL     1      18.874  24.466  18.730  1.00  0.00     0.039 C
HETATM    2  C8  UNL     1      20.192  24.409  18.106  1.00  0.00     0.037 C
HETATM    3  C9  UNL     1      20.845  25.704  17.657  1.00  0.00     0.095 C
HETATM    4  N1  UNL     1      21.753  26.182  18.712  1.00  0.00    -0.375 N
HETATM    5  C17 UNL     1      21.037  26.681  19.814  1.00  0.00     0.177 C
HETATM    6  C19 UNL     1      20.901  25.492  20.765  1.00  0.00     0.154 C
HETATM    7  O4  UNL     1      21.639  25.669  21.712  1.00  0.00    -0.296 OA
HETATM    8  C20 UNL     1      20.175  24.231  20.890  1.00  0.00     0.113 C
HETATM    9  C21 UNL     1      18.841  24.208  20.224  1.00  0.00     0.133 C
ENDROOT
BRANCH   1  10
HETATM   10  C6  UNL     1      17.851  23.546  18.157  1.00  0.00    -0.023 C
HETATM   11  C5  UNL     1      16.732  23.869  17.576  1.00  0.00    -0.021 C
BRANCH  11  12
HETATM   12  C3  UNL     1      15.838  22.775  17.068  1.00  0.00    -0.025 C
HETATM   13  C4  UNL     1      14.600  22.623  17.927  1.00  0.00     0.019 C
BRANCH  12  14
HETATM   14  C2  UNL     1      16.610  21.479  17.053  1.00  0.00     0.009 C
HETATM   15  C1  UNL     1      15.939  20.419  17.899  1.00  0.00     0.006 C
ENDBRANCH  12  14
BRANCH  12  16
HETATM   16  C22 UNL     1      15.401  23.075  15.649  1.00  0.00     0.043 C
BRANCH  16  17
HETATM   17  C23 UNL     1      13.906  23.165  15.530  1.00  0.00     0.273 C
BRANCH  17  18
HETATM   18  N2  UNL     1      13.421  22.117  14.687  1.00  0.00     0.091 N
HETATM   19  C24 UNL     1      14.517  21.530  13.992  1.00  0.00     0.302 C
HETATM   20  C25 UNL     1      14.206  20.318  13.184  1.00  0.00     0.302 C
HETATM   21  N3  UNL     1      13.240  19.451  13.839  1.00  0.00     0.087 N
HETATM   22  C26 UNL     1      12.840  18.452  12.857  1.00  0.00     0.310 C
HETATM   23  C27 UNL     1      12.069  20.194  14.213  1.00  0.00     0.302 C
HETATM   24  C28 UNL     1      12.458  21.243  15.238  1.00  0.00     0.302 C
ENDBRANCH  17  18
ENDBRANCH  16  17
ENDBRANCH  12  16
ENDBRANCH  11  12
ENDBRANCH   1  10
BRANCH   9  25
HETATM   25  O5  UNL     1      18.291  22.951  20.465  1.00  0.00    -0.394 OA
ATOM     26  H5  UNL     1      18.965  22.368  20.793  1.00  0.00     0.210 HD
ENDBRANCH   9  25
BRANCH   3  27
HETATM   27  C10 UNL     1      19.919  26.661  17.048  1.00  0.00     0.138 C
BRANCH  27  28
HETATM   28  C11 UNL     1      20.267  27.224  15.723  1.00  0.00     0.174 C
HETATM   29  O1  UNL     1      20.618  26.336  14.860  1.00  0.00    -0.648 OA
HETATM   30  O2  UNL     1      20.243  28.541  15.365  1.00  0.00    -0.648 OA
ENDBRANCH  27  28
ENDBRANCH   3  27
BRANCH   4  31
HETATM   31  C12 UNL     1      22.873  26.834  18.185  1.00  0.00     0.060 C
BRANCH  31  32
HETATM   32  C13 UNL     1      23.691  26.001  17.253  1.00  0.00     0.048 C
BRANCH  32  33
HETATM   33  C14 UNL     1      24.039  26.754  15.976  1.00  0.00    -0.018 C
HETATM   34  C15 UNL     1      23.814  28.225  16.090  1.00  0.00     0.010 C
HETATM   35  C16 UNL     1      25.531  26.535  15.741  1.00  0.00     0.010 C
ENDBRANCH  32  33
ENDBRANCH  31  32
ENDBRANCH   4  31
BRANCH   5  36
HETATM   36  C18 UNL     1      21.556  27.824  20.618  1.00  0.00     0.197 C
BRANCH  36  37
HETATM   37  O3  UNL     1      20.611  28.572  21.286  1.00  0.00    -0.398 OA
ATOM     38  H3  UNL     1      20.927  29.079  22.026  1.00  0.00     0.209 HD
ENDBRANCH  36  37
ENDBRANCH   5  36
TORSDOF 14
ENDMDL