MODEL 3
REMARK VINA RESULT: -9.369748821      0.936      1.721
REMARK  13 active torsions:
REMARK  status: ('A' for Active; 'I' for Inactive)
REMARK    1  A    between atoms: C4_5  and  C5_6
REMARK    2  A    between atoms: C5_6  and  N2_7
REMARK    3  A    between atoms: N2_7  and  C6_8
REMARK       I    between atoms: N2_7  and  C15_20
REMARK    4  A    between atoms: C6_8  and  C7_9
REMARK    5  A    between atoms: C7_9  and  C8_10
REMARK    6  A    between atoms: C8_10  and  C9_11
REMARK    7  A    between atoms: C9_11  and  N3_12
REMARK    8  A    between atoms: C13_16  and  C14_17
REMARK    9  A    between atoms: C15_20  and  C16_22
REMARK   10  A    between atoms: C16_22  and  C17_23
REMARK   11  A    between atoms: C17_23  and  N4_24
REMARK   12  A    between atoms: C18_25  and  O4_26
REMARK   13  A    between atoms: C21_30  and  O5_31
ROOT
HETATM    1  N2  UNL     1      17.210  22.954  15.957  1.00  0.00    -0.351 N
HETATM    2  C15 UNL     1      18.271  23.918  15.754  1.00  0.00     0.224 C
HETATM    3  O3  UNL     1      19.368  23.653  16.274  1.00  0.00    -0.273 OA
ENDROOT
BRANCH   1   4
HETATM    4  C5  UNL     1      15.897  23.247  15.470  1.00  0.00     0.130 C
BRANCH   4   5
HETATM    5  C4  UNL     1      15.058  22.096  15.060  1.00  0.00     0.007 C
HETATM    6  C3  UNL     1      15.264  21.625  13.636  1.00  0.00     0.036 C
HETATM    7  C2  UNL     1      14.112  20.744  13.184  1.00  0.00     0.272 C
HETATM    8  N1  UNL     1      13.409  20.181  14.323  1.00  0.00     0.084 N
HETATM    9  C1  UNL     1      12.458  19.199  13.844  1.00  0.00     0.309 C
HETATM   10  C27 UNL     1      12.744  21.191  15.102  1.00  0.00     0.272 C
HETATM   11  C26 UNL     1      13.572  22.437  15.223  1.00  0.00     0.036 C
ENDBRANCH   4   5
ENDBRANCH   1   4
BRANCH   1  12
HETATM   12  C6  UNL     1      17.545  21.712  16.601  1.00  0.00     0.126 C
BRANCH  12  13
HETATM   13  C7  UNL     1      17.412  21.696  18.083  1.00  0.00     0.022 C
BRANCH  13  14
HETATM   14  C8  UNL     1      16.008  21.722  18.579  1.00  0.00     0.032 C
BRANCH  14  15
HETATM   15  C9  UNL     1      15.449  20.311  18.709  1.00  0.00     0.273 C
BRANCH  15  16
HETATM   16  N3  UNL     1      14.211  20.271  19.448  1.00  0.00     0.103 N
HETATM   17  C10 UNL     1      14.411  20.266  20.881  1.00  0.00     0.273 C
HETATM   18  C11 UNL     1      14.978  18.879  21.187  1.00  0.00     0.033 C
HETATM   19  C12 UNL     1      14.242  18.007  20.191  1.00  0.00     0.049 C
HETATM   20  C13 UNL     1      13.612  18.972  19.213  1.00  0.00     0.322 C
BRANCH  20  21
HETATM   21  C14 UNL     1      12.149  18.993  19.401  1.00  0.00     0.207 C
HETATM   22  O1  UNL     1      11.623  18.482  20.411  1.00  0.00    -0.646 OA
HETATM   23  O2  UNL     1      11.351  19.586  18.449  1.00  0.00    -0.646 OA
ENDBRANCH  20  21
ENDBRANCH  15  16
ENDBRANCH  14  15
ENDBRANCH  13  14
ENDBRANCH  12  13
ENDBRANCH   1  12
BRANCH   2  24
HETATM   24  C16 UNL     1      18.044  25.133  14.966  1.00  0.00     0.148 C
BRANCH  24  25
HETATM   25  C17 UNL     1      19.099  25.628  14.084  1.00  0.00     0.083 C
BRANCH  25  26
HETATM   26  N4  UNL     1      20.241  26.282  14.576  1.00  0.00    -0.286 N
HETATM   27  C18 UNL     1      20.401  27.574  14.867  1.00  0.00     0.155 A
HETATM   28  C19 UNL     1      21.673  27.779  15.375  1.00  0.00     0.004 A
HETATM   29  C20 UNL     1      22.322  26.562  15.397  1.00  0.00     0.004 A
HETATM   30  C25 UNL     1      22.449  28.948  15.873  1.00  0.00     0.044 C
HETATM   31  C21 UNL     1      21.399  25.668  14.895  1.00  0.00     0.155 A
HETATM   32  C22 UNL     1      23.729  26.464  15.902  1.00  0.00     0.044 C
HETATM   33  C23 UNL     1      24.566  27.641  15.510  1.00  0.00     0.005 C
HETATM   34  C24 UNL     1      23.800  28.869  15.151  1.00  0.00     0.005 C
BRANCH  27  35
HETATM   35  O4  UNL     1      19.530  28.660  14.731  1.00  0.00    -0.345 OA
ATOM     36  H4  UNL     1      19.619  29.567  14.997  1.00  0.00     0.219 HD
ENDBRANCH  27  35
BRANCH  31  37
HETATM   37  O5  UNL     1      21.632  24.323  14.739  1.00  0.00    -0.345 OA
ATOM     38  H5  UNL     1      22.088  23.780  15.372  1.00  0.00     0.219 HD
ENDBRANCH  31  37
ENDBRANCH  25  26
ENDBRANCH  24  25
ENDBRANCH   2  24
TORSDOF 13
ENDMDL