MODEL 2
REMARK VINA RESULT: -8.826208987      2.390      6.042
REMARK  12 active torsions:
REMARK  status: ('A' for Active; 'I' for Inactive)
REMARK    1  A    between atoms: C4_7  and  N3_8
REMARK    2  A    between atoms: N3_8  and  C5_10
REMARK    3  A    between atoms: C5_10  and  C6_11
REMARK    4  A    between atoms: C6_11  and  C7_12
REMARK    5  A    between atoms: C7_12  and  C8_13
REMARK    6  A    between atoms: N4_16  and  C11_17
REMARK    7  A    between atoms: C11_17  and  C12_18
REMARK    8  A    between atoms: C12_18  and  C13_19
REMARK    9  A    between atoms: C16_22  and  N5_23
REMARK       I    between atoms: N5_23  and  C17_25
REMARK   10  A    between atoms: C17_25  and  C18_27
REMARK   11  A    between atoms: C18_27  and  C19_28
REMARK   12  A    between atoms: C19_28  and  C20_29
ROOT
HETATM    1  C8  UNL     1      20.839  26.493  15.713  1.00  0.00    -0.011 C
HETATM    2  C9  UNL     1      19.663  27.135  15.072  1.00  0.00     0.035 C
HETATM    3  C10 UNL     1      18.996  26.281  14.011  1.00  0.00     0.272 C
HETATM    4  N4  UNL     1      18.687  24.969  14.472  1.00  0.00     0.088 N
HETATM    5  C23 UNL     1      19.763  24.357  15.220  1.00  0.00     0.272 C
HETATM    6  C24 UNL     1      21.055  25.128  15.078  1.00  0.00     0.035 C
ENDROOT
BRANCH   1   7
HETATM    7  C7  UNL     1      22.097  27.321  15.639  1.00  0.00     0.006 C
BRANCH   7   8
HETATM    8  C6  UNL     1      23.313  26.486  15.835  1.00  0.00     0.020 C
BRANCH   8   9
HETATM    9  C5  UNL     1      23.955  26.792  17.177  1.00  0.00     0.121 C
BRANCH   9  10
HETATM   10  N3  UNL     1      23.612  25.799  18.162  1.00  0.00    -0.373 N
ATOM     11  H3  UNL     1      24.124  24.917  18.134  1.00  0.00     0.161 HD
BRANCH  10  12
HETATM   12  C4  UNL     1      22.717  25.931  19.072  1.00  0.00     0.145 A
HETATM   13  C3  UNL     1      21.630  25.101  19.238  1.00  0.00     0.107 A
HETATM   14  N2  UNL     1      21.232  24.022  18.565  1.00  0.00    -0.347 N
HETATM   15  C26 UNL     1      20.689  25.294  20.246  1.00  0.00     0.083 A
HETATM   16  C2  UNL     1      20.092  23.566  19.131  1.00  0.00     0.183 A
ATOM     17  H2  UNL     1      21.706  23.611  17.761  1.00  0.00     0.167 HD
HETATM   18  N1  UNL     1      19.744  24.342  20.173  1.00  0.00    -0.344 N
HETATM   19  C1  UNL     1      18.579  24.185  21.046  1.00  0.00     0.157 C
HETATM   20  C25 UNL     1      20.876  26.365  21.099  1.00  0.00     0.139 A
HETATM   21  N8  UNL     1      21.941  27.156  20.914  1.00  0.00    -0.308 N
HETATM   22  N7  UNL     1      22.828  26.951  19.942  1.00  0.00    -0.284 N
ATOM     23  H8  UNL     1      22.078  27.947  21.543  1.00  0.00     0.186 HD
ATOM     24  H7  UNL     1      23.619  27.589  19.855  1.00  0.00     0.188 HD
ENDBRANCH  10  12
ENDBRANCH   9  10
ENDBRANCH   8   9
ENDBRANCH   7   8
ENDBRANCH   1   7
BRANCH   4  25
HETATM   25  C11 UNL     1      17.428  24.818  15.158  1.00  0.00     0.272 C
BRANCH  25  26
HETATM   26  C12 UNL     1      17.446  23.816  16.249  1.00  0.00     0.034 C
BRANCH  26  27
HETATM   27  C13 UNL     1      17.168  22.437  15.787  1.00  0.00    -0.013 C
HETATM   28  C14 UNL     1      17.751  21.386  16.709  1.00  0.00     0.007 C
HETATM   29  C15 UNL     1      17.053  21.497  18.032  1.00  0.00     0.025 C
HETATM   30  C16 UNL     1      15.571  21.352  17.958  1.00  0.00     0.084 C
HETATM   31  C21 UNL     1      14.992  21.411  16.582  1.00  0.00     0.025 C
HETATM   32  C22 UNL     1      15.762  22.060  15.518  1.00  0.00     0.007 C
BRANCH  30  33
HETATM   33  N5  UNL     1      15.172  20.127  18.620  1.00  0.00    -0.356 N
HETATM   34  C17 UNL     1      14.890  20.006  19.999  1.00  0.00     0.218 C
HETATM   35  O1  UNL     1      14.999  21.056  20.689  1.00  0.00    -0.274 OA
ATOM     36  H5  UNL     1      15.090  19.287  18.046  1.00  0.00     0.162 HD
BRANCH  34  37
HETATM   37  C18 UNL     1      14.495  18.727  20.581  1.00  0.00     0.111 C
BRANCH  37  38
HETATM   38  C19 UNL     1      13.502  17.937  19.803  1.00  0.00     0.109 C
BRANCH  38  39
HETATM   39  C20 UNL     1      12.132  18.480  19.906  1.00  0.00     0.231 C
HETATM   40  N6  UNL     1      11.446  18.760  18.711  1.00  0.00    -0.062 NA
HETATM   41  O2  UNL     1      11.631  18.670  21.048  1.00  0.00    -0.277 OA
ENDBRANCH  38  39
ENDBRANCH  37  38
ENDBRANCH  34  37
ENDBRANCH  30  33
ENDBRANCH  26  27
ENDBRANCH  25  26
ENDBRANCH   4  25
TORSDOF 12
ENDMDL