MODEL 1
REMARK VINA RESULT: -8.616047607      0.000      0.000
REMARK  14 active torsions:
REMARK  status: ('A' for Active; 'I' for Inactive)
REMARK    1  A    between atoms: C2_2  and  C3_3
REMARK    2  A    between atoms: C3_3  and  C4_4
REMARK    3  A    between atoms: C4_4  and  C5_5
REMARK    4  A    between atoms: C5_5  and  O1_6
REMARK    5  A    between atoms: C5_5  and  C6_8
REMARK       I    between atoms: C6_8  and  N1_10
REMARK    6  A    between atoms: N1_10  and  C7_12
REMARK    7  A    between atoms: C8_17  and  C9_18
REMARK    8  A    between atoms: C9_18  and  C10_19
REMARK    9  A    between atoms: C10_19  and  C11_20
REMARK   10  A    between atoms: C11_20  and  C12_21
REMARK   11  A    between atoms: C12_21  and  C13_22
REMARK   12  A    between atoms: C14_24  and  N4_25
REMARK       I    between atoms: N4_25  and  C15_27
REMARK   13  A    between atoms: C15_27  and  C16_29
REMARK   14  A    between atoms: C16_29  and  C17_30
ROOT
HETATM    1  C10 UNL     1      18.571  25.530  13.666  1.00  0.00     0.007 C
ENDROOT
BRANCH   1   2
HETATM    2  C9  UNL     1      17.611  26.241  14.596  1.00  0.00     0.066 C
BRANCH   2   3
HETATM    3  C8  UNL     1      17.158  25.271  15.647  1.00  0.00     0.069 A
HETATM    4  N3  UNL     1      16.700  25.515  16.866  1.00  0.00    -0.296 N
HETATM    5  N2  UNL     1      16.362  24.562  17.625  1.00  0.00    -0.279 N
ATOM      6  H3  UNL     1      16.621  26.477  17.195  1.00  0.00     0.187 HD
HETATM    7  C7  UNL     1      16.469  23.309  17.186  1.00  0.00     0.167 A
ATOM      8  H2  UNL     1      16.010  24.751  18.563  1.00  0.00     0.189 HD
HETATM    9  S2  UNL     1      17.090  23.555  15.605  1.00  0.00    -0.038 SA
BRANCH   7  10
HETATM   10  N1  UNL     1      16.165  22.204  17.827  1.00  0.00    -0.304 N
HETATM   11  C6  UNL     1      14.932  22.115  18.503  1.00  0.00     0.256 C
HETATM   12  O2  UNL     1      14.214  23.096  18.773  1.00  0.00    -0.270 OA
ATOM     13  H1  UNL     1      16.814  21.417  17.834  1.00  0.00     0.171 HD
BRANCH  11  14
HETATM   14  C5  UNL     1      14.463  20.734  18.921  1.00  0.00     0.233 C
BRANCH  14  15
HETATM   15  C4  UNL     1      15.195  20.398  20.157  1.00  0.00     0.010 C
BRANCH  15  16
HETATM   16  C3  UNL     1      14.659  19.580  21.229  1.00  0.00    -0.028 C
BRANCH  16  17
HETATM   17  C2  UNL     1      14.234  18.186  21.095  1.00  0.00     0.022 C
HETATM   18  C1  UNL     1      12.873  17.796  21.548  1.00  0.00     0.009 C
ENDBRANCH  16  17
ENDBRANCH  15  16
ENDBRANCH  14  15
BRANCH  14  19
HETATM   19  O1  UNL     1      14.559  19.884  17.854  1.00  0.00    -0.382 OA
ATOM     20  H1  UNL     1      15.237  20.042  17.207  1.00  0.00     0.211 HD
ENDBRANCH  14  19
ENDBRANCH  11  14
ENDBRANCH   7  10
ENDBRANCH   2   3
ENDBRANCH   1   2
BRANCH   1  21
HETATM   21  C11 UNL     1      19.957  25.866  14.169  1.00  0.00     0.006 C
BRANCH  21  22
HETATM   22  C12 UNL     1      20.193  27.348  14.333  1.00  0.00     0.048 C
BRANCH  22  23
HETATM   23  C13 UNL     1      20.862  27.487  15.681  1.00  0.00     0.008 A
HETATM   24  S1  UNL     1      20.334  26.902  17.192  1.00  0.00    -0.057 SA
HETATM   25  C14 UNL     1      21.616  27.487  18.155  1.00  0.00     0.151 A
HETATM   26  N6  UNL     1      22.392  28.106  17.263  1.00  0.00    -0.339 N
HETATM   27  C22 UNL     1      22.032  28.118  16.009  1.00  0.00     0.020 A
ATOM     28  H6  UNL     1      23.255  28.564  17.558  1.00  0.00     0.168 HD
HETATM   29  C23 UNL     1      22.844  28.788  14.905  1.00  0.00     0.069 C
BRANCH  25  30
HETATM   30  N4  UNL     1      21.832  27.393  19.447  1.00  0.00    -0.307 N
HETATM   31  C15 UNL     1      22.565  26.304  19.940  1.00  0.00     0.229 C
HETATM   32  O3  UNL     1      23.582  26.614  20.663  1.00  0.00    -0.273 OA
ATOM     33  H4  UNL     1      21.471  28.103  20.084  1.00  0.00     0.171 HD
BRANCH  31  34
HETATM   34  C16 UNL     1      22.308  24.879  19.735  1.00  0.00     0.160 C
BRANCH  34  35
HETATM   35  C17 UNL     1      20.943  24.495  20.233  1.00  0.00     0.019 A
HETATM   36  C18 UNL     1      20.425  24.648  21.495  1.00  0.00     0.027 A
HETATM   37  C19 UNL     1      19.133  24.154  21.526  1.00  0.00     0.019 A
HETATM   38  C20 UNL     1      18.884  23.700  20.251  1.00  0.00     0.090 A
HETATM   39  N5  UNL     1      19.974  23.906  19.477  1.00  0.00    -0.364 N
HETATM   40  C21 UNL     1      20.105  23.564  18.087  1.00  0.00     0.155 C
ENDBRANCH  34  35
ENDBRANCH  31  34
ENDBRANCH  25  30
ENDBRANCH  22  23
ENDBRANCH  21  22
ENDBRANCH   1  21
TORSDOF 14
ENDMDL