MODEL 5
REMARK VINA RESULT: -8.657793645      1.065      1.788
REMARK  12 active torsions:
REMARK  status: ('A' for Active; 'I' for Inactive)
REMARK    1  A    between atoms: C2_2  and  N1_3
REMARK    2  A    between atoms: N2_6  and  C5_7
REMARK    3  A    between atoms: C5_7  and  C6_8
REMARK    4  A    between atoms: C6_8  and  C7_9
REMARK       I    between atoms: C7_9  and  N3_11
REMARK    5  A    between atoms: N3_11  and  C8_13
REMARK    6  A    between atoms: C10_15  and  C11_16
REMARK    7  A    between atoms: C13_18  and  C14_19
REMARK       I    between atoms: C14_19  and  N4_21
REMARK    8  A    between atoms: N4_21  and  C15_23
REMARK    9  A    between atoms: C15_23  and  C16_24
REMARK   10  A    between atoms: C16_24  and  C17_25
REMARK   11  A    between atoms: C17_25  and  N5_26
REMARK   12  A    between atoms: C25_39  and  C26_40
ROOT
HETATM    1  C8  UNL     1      16.786  23.540  17.212  1.00  0.00     0.052 A
HETATM    2  C9  UNL     1      16.083  22.739  18.115  1.00  0.00     0.061 A
HETATM    3  C10 UNL     1      15.234  21.761  17.708  1.00  0.00     0.045 A
HETATM    4  N6  UNL     1      15.089  21.580  16.362  1.00  0.00    -0.358 N
ATOM      5  H6  UNL     1      14.457  20.846  16.042  1.00  0.00     0.166 HD
HETATM    6  C23 UNL     1      15.723  22.301  15.447  1.00  0.00     0.021 A
HETATM    7  C24 UNL     1      15.546  22.081  13.991  1.00  0.00     0.069 C
HETATM    8  C25 UNL     1      16.607  23.322  15.875  1.00  0.00     0.051 A
ENDROOT
BRANCH   3   9
HETATM    9  C11 UNL     1      14.603  20.829  18.619  1.00  0.00    -0.002 A
HETATM   10  C12 UNL     1      13.375  20.261  18.158  1.00  0.00     0.031 A
HETATM   11  C13 UNL     1      12.682  19.341  18.900  1.00  0.00     0.038 A
HETATM   12  C18 UNL     1      13.152  18.942  20.109  1.00  0.00    -0.046 A
HETATM   13  C19 UNL     1      12.421  17.975  20.941  1.00  0.00     0.049 C
HETATM   14  C20 UNL     1      14.348  19.470  20.608  1.00  0.00     0.015 A
HETATM   15  C21 UNL     1      15.035  20.411  19.826  1.00  0.00    -0.049 A
HETATM   16  C22 UNL     1      16.252  20.991  20.460  1.00  0.00     0.049 C
BRANCH  11  17
HETATM   17  C14 UNL     1      11.475  18.766  18.253  1.00  0.00     0.252 C
HETATM   18  O2  UNL     1      10.580  19.552  17.927  1.00  0.00    -0.268 OA
HETATM   19  N4  UNL     1      11.425  17.385  18.043  1.00  0.00    -0.357 N
ATOM     20  H4  UNL     1      12.240  16.846  18.337  1.00  0.00     0.162 HD
BRANCH  19  21
HETATM   21  C15 UNL     1      10.359  16.661  17.463  1.00  0.00     0.124 C
BRANCH  21  22
HETATM   22  C16 UNL     1      10.043  15.301  17.909  1.00  0.00     0.047 C
BRANCH  22  23
HETATM   23  C17 UNL     1       8.682  14.727  17.799  1.00  0.00     0.231 C
BRANCH  23  24
HETATM   24  N5  UNL     1       7.877  15.395  18.848  1.00  0.00    -0.079 N
ATOM     25  H53 UNL     1       6.968  14.959  19.005  1.00  0.00     0.274 HD
ATOM     26  H52 UNL     1       8.242  15.260  19.790  1.00  0.00     0.274 HD
ATOM     27  H51 UNL     1       7.817  16.374  18.570  1.00  0.00     0.274 HD
ENDBRANCH  23  24
ENDBRANCH  22  23
ENDBRANCH  21  22
ENDBRANCH  19  21
ENDBRANCH  11  17
ENDBRANCH   3   9
BRANCH   1  28
HETATM   28  N3  UNL     1      17.741  24.439  17.718  1.00  0.00    -0.326 N
HETATM   29  C7  UNL     1      19.034  24.142  18.174  1.00  0.00     0.223 C
HETATM   30  O1  UNL     1      19.504  22.999  18.214  1.00  0.00    -0.273 OA
ATOM     31  H3  UNL     1      17.462  25.419  17.757  1.00  0.00     0.169 HD
BRANCH  29  32
HETATM   32  C6  UNL     1      19.919  25.245  18.646  1.00  0.00     0.133 C
BRANCH  32  33
HETATM   33  C5  UNL     1      20.363  26.104  17.470  1.00  0.00     0.281 C
BRANCH  33  34
HETATM   34  N2  UNL     1      21.014  27.315  17.971  1.00  0.00     0.092 N
HETATM   35  C4  UNL     1      21.671  27.027  19.210  1.00  0.00     0.291 C
HETATM   36  C3  UNL     1      23.169  26.923  19.101  1.00  0.00     0.147 C
HETATM   37  N1  UNL     1      23.590  26.240  17.911  1.00  0.00    -0.409 N
HETATM   38  C28 UNL     1      22.967  26.729  16.716  1.00  0.00     0.147 C
HETATM   39  C27 UNL     1      21.992  27.808  17.026  1.00  0.00     0.291 C
BRANCH  37  40
HETATM   40  C2  UNL     1      24.982  25.967  17.819  1.00  0.00     0.112 C
HETATM   41  C1  UNL     1      25.363  25.935  16.343  1.00  0.00     0.026 C
ENDBRANCH  37  40
ENDBRANCH  33  34
ENDBRANCH  32  33
ENDBRANCH  29  32
ENDBRANCH   1  28
BRANCH   8  42
HETATM   42  C26 UNL     1      17.213  24.111  14.863  1.00  0.00     0.274 C
HETATM   43  O3  UNL     1      17.658  25.258  15.031  1.00  0.00    -0.301 OA
ENDBRANCH   8  42
TORSDOF 12
ENDMDL