MODEL 1
REMARK VINA RESULT: -8.456760782      0.000      0.000
REMARK  12 active torsions:
REMARK  status: ('A' for Active; 'I' for Inactive)
REMARK       I    between atoms: C1_2  and  N1_3
REMARK    1  A    between atoms: C1_2  and  O7_30
REMARK       I    between atoms: N1_3  and  C2_5
REMARK    2  A    between atoms: C2_5  and  C3_7
REMARK       I    between atoms: C3_7  and  N2_9
REMARK    3  A    between atoms: C7_13  and  C8_14
REMARK       I    between atoms: C8_14  and  N3_16
REMARK    4  A    between atoms: N3_16  and  C9_18
REMARK    5  A    between atoms: C9_18  and  C10_19
REMARK    6  A    between atoms: C9_18  and  C17_27
REMARK    7  A    between atoms: C10_19  and  C11_20
REMARK    8  A    between atoms: C11_20  and  S1_21
REMARK    9  A    between atoms: S1_21  and  C12_22
REMARK   10  A    between atoms: O7_30  and  C18_31
REMARK   11  A    between atoms: C18_31  and  C19_32
REMARK   12  A    between atoms: C19_32  and  C20_33
ROOT
HETATM    1  C3  UNL     1      18.983  26.798  14.219  1.00  0.00     0.312 C
HETATM    2  O3  UNL     1      18.448  27.692  13.508  1.00  0.00    -0.262 OA
HETATM    3  N2  UNL     1      20.301  26.914  14.726  1.00  0.00    -0.331 N
HETATM    4  C4  UNL     1      21.134  28.058  14.447  1.00  0.00     0.127 C
HETATM    5  C5  UNL     1      22.388  27.919  15.235  1.00  0.00     0.022 C
HETATM    6  C6  UNL     1      22.478  26.414  15.442  1.00  0.00     0.037 C
HETATM    7  C7  UNL     1      21.007  25.994  15.562  1.00  0.00     0.179 C
ENDROOT
BRANCH   1   8
HETATM    8  C2  UNL     1      18.204  25.604  14.525  1.00  0.00     0.318 C
HETATM    9  N1  UNL     1      17.401  25.539  15.722  1.00  0.00    -0.265 N
HETATM   10  C1  UNL     1      16.669  24.357  15.999  1.00  0.00     0.367 C
ATOM     11  H1  UNL     1      17.360  26.333  16.361  1.00  0.00     0.174 HD
HETATM   12  O1  UNL     1      15.974  24.277  17.046  1.00  0.00    -0.238 OA
HETATM   13  O2  UNL     1      18.179  24.583  13.796  1.00  0.00    -0.262 OA
BRANCH  10  14
HETATM   14  O7  UNL     1      16.736  23.311  15.109  1.00  0.00    -0.304 OA
BRANCH  14  15
HETATM   15  C18 UNL     1      16.053  22.103  15.220  1.00  0.00     0.181 C
BRANCH  15  16
HETATM   16  C19 UNL     1      15.065  21.919  14.105  1.00  0.00     0.031 C
BRANCH  16  17
HETATM   17  C20 UNL     1      13.945  20.980  14.492  1.00  0.00    -0.013 C
HETATM   18  C21 UNL     1      12.720  21.757  14.885  1.00  0.00     0.005 C
HETATM   19  C22 UNL     1      11.536  20.879  14.487  1.00  0.00     0.000 C
HETATM   20  C23 UNL     1      12.135  19.627  13.905  1.00  0.00     0.000 C
HETATM   21  C24 UNL     1      13.497  20.073  13.392  1.00  0.00     0.005 C
ENDBRANCH  16  17
ENDBRANCH  15  16
ENDBRANCH  14  15
ENDBRANCH  10  14
ENDBRANCH   1   8
BRANCH   7  22
HETATM   22  C8  UNL     1      20.588  26.102  17.003  1.00  0.00     0.241 C
HETATM   23  O4  UNL     1      20.464  27.236  17.523  1.00  0.00    -0.271 OA
HETATM   24  N3  UNL     1      20.329  24.977  17.790  1.00  0.00    -0.345 N
ATOM     25  H3  UNL     1      20.424  24.056  17.362  1.00  0.00     0.163 HD
BRANCH  24  26
HETATM   26  C9  UNL     1      19.926  25.053  19.199  1.00  0.00     0.186 C
BRANCH  26  27
HETATM   27  C10 UNL     1      18.702  24.264  19.442  1.00  0.00     0.046 C
BRANCH  27  28
HETATM   28  C11 UNL     1      18.775  22.800  19.607  1.00  0.00     0.077 C
BRANCH  28  29
HETATM   29  S1  UNL     1      17.848  21.755  18.527  1.00  0.00    -0.164 SA
BRANCH  29  30
HETATM   30  C12 UNL     1      16.429  20.929  19.182  1.00  0.00     0.047 C
HETATM   31  C13 UNL     1      15.768  19.931  18.311  1.00  0.00     0.015 C
HETATM   32  C14 UNL     1      14.362  20.425  18.032  1.00  0.00     0.001 C
HETATM   33  C15 UNL     1      14.250  21.805  18.632  1.00  0.00     0.001 C
HETATM   34  C16 UNL     1      15.353  21.869  19.691  1.00  0.00     0.015 C
ENDBRANCH  29  30
ENDBRANCH  28  29
ENDBRANCH  27  28
ENDBRANCH  26  27
BRANCH  26  35
HETATM   35  C17 UNL     1      21.038  24.808  20.101  1.00  0.00     0.196 C
HETATM   36  O5  UNL     1      21.968  23.980  19.789  1.00  0.00    -0.646 OA
HETATM   37  O6  UNL     1      21.130  25.476  21.342  1.00  0.00    -0.646 OA
ENDBRANCH  26  35
ENDBRANCH  24  26
ENDBRANCH   7  22
TORSDOF 12
ENDMDL