MODEL 2
REMARK VINA RESULT: -7.713577579      1.155      1.368
REMARK  14 active torsions:
REMARK  status: ('A' for Active; 'I' for Inactive)
REMARK    1  A    between atoms: O1_2  and  C2_3
REMARK    2  A    between atoms: C4_5  and  O2_6
REMARK    3  A    between atoms: O2_6  and  C5_7
REMARK    4  A    between atoms: C5_7  and  C6_8
REMARK    5  A    between atoms: C6_8  and  C7_9
REMARK    6  A    between atoms: C7_9  and  N1_10
REMARK    7  A    between atoms: N1_10  and  C8_12
REMARK    8  A    between atoms: C12_18  and  C13_19
REMARK    9  A    between atoms: N2_23  and  C16_24
REMARK   10  A    between atoms: C16_24  and  C17_25
REMARK   11  A    between atoms: C17_25  and  O4_26
REMARK   12  A    between atoms: C17_25  and  N3_28
REMARK   13  A    between atoms: N3_28  and  C18_29
REMARK   14  A    between atoms: C18_29  and  C19_30
ROOT
HETATM    1  C2  UNL     1      20.154  25.587  16.813  1.00  0.00     0.081 A
HETATM    2  C3  UNL     1      20.707  26.842  16.647  1.00  0.00     0.074 A
HETATM    3  C4  UNL     1      20.557  27.513  15.465  1.00  0.00     0.071 A
HETATM    4  C9  UNL     1      19.838  26.925  14.449  1.00  0.00     0.044 A
HETATM    5  C10 UNL     1      19.272  25.645  14.629  1.00  0.00    -0.046 A
HETATM    6  C11 UNL     1      18.482  25.121  13.492  1.00  0.00     0.049 C
HETATM    7  C12 UNL     1      19.422  24.963  15.794  1.00  0.00     0.006 A
ENDROOT
BRANCH   7   8
HETATM    8  C13 UNL     1      18.956  23.637  16.027  1.00  0.00     0.050 C
HETATM    9  C14 UNL     1      17.852  23.246  16.646  1.00  0.00     0.108 A
HETATM   10  C15 UNL     1      17.452  21.822  16.874  1.00  0.00     0.279 A
HETATM   11  N4  UNL     1      16.812  24.005  17.208  1.00  0.00    -0.299 N
HETATM   12  O3  UNL     1      18.171  20.817  16.489  1.00  0.00    -0.265 OA
HETATM   13  N2  UNL     1      16.251  21.722  17.533  1.00  0.00    -0.256 N
HETATM   14  C22 UNL     1      15.847  23.122  17.745  1.00  0.00     0.332 A
HETATM   15  O5  UNL     1      14.765  23.424  18.328  1.00  0.00    -0.246 OA
HETATM   16  C23 UNL     1      16.657  25.455  17.291  1.00  0.00     0.161 C
BRANCH  13  17
HETATM   17  C16 UNL     1      15.462  20.658  18.106  1.00  0.00     0.237 C
BRANCH  17  18
HETATM   18  C17 UNL     1      14.104  20.486  17.589  1.00  0.00     0.207 C
BRANCH  18  19
HETATM   19  O4  UNL     1      13.301  20.240  18.631  1.00  0.00    -0.338 OA
ATOM     20  H4  UNL     1      12.854  21.050  18.849  1.00  0.00     0.220 HD
ENDBRANCH  18  19
BRANCH  18  21
HETATM   21  N3  UNL     1      13.624  20.550  16.323  1.00  0.00    -0.400 NA
BRANCH  21  22
HETATM   22  C18 UNL     1      13.142  20.614  15.047  1.00  0.00     0.161 C
BRANCH  22  23
HETATM   23  C19 UNL     1      13.597  21.883  14.360  1.00  0.00     0.030 C
HETATM   24  C20 UNL     1      13.237  23.069  15.220  1.00  0.00     0.016 C
HETATM   25  C21 UNL     1      15.107  21.862  14.179  1.00  0.00     0.016 C
ENDBRANCH  22  23
ENDBRANCH  21  22
ENDBRANCH  18  21
ENDBRANCH  17  18
ENDBRANCH  13  17
ENDBRANCH   7   8
BRANCH   1  26
HETATM   26  O1  UNL     1      20.316  24.897  18.015  1.00  0.00    -0.355 OA
HETATM   27  C1  UNL     1      20.838  25.411  19.199  1.00  0.00     0.210 C
ENDBRANCH   1  26
BRANCH   3  28
HETATM   28  O2  UNL     1      21.132  28.773  15.292  1.00  0.00    -0.351 OA
BRANCH  28  29
HETATM   29  C5  UNL     1      21.983  29.086  14.255  1.00  0.00     0.177 C
BRANCH  29  30
HETATM   30  C6  UNL     1      23.365  29.544  14.691  1.00  0.00     0.046 C
BRANCH  30  31
HETATM   31  C7  UNL     1      23.937  28.633  15.769  1.00  0.00     0.123 C
BRANCH  31  32
HETATM   32  N1  UNL     1      24.906  29.351  16.565  1.00  0.00    -0.375 N
ATOM     33  H1  UNL     1      24.690  29.572  17.538  1.00  0.00     0.161 HD
BRANCH  32  34
HETATM   34  C8  UNL     1      26.170  29.761  16.013  1.00  0.00     0.145 C
HETATM   35  S1  UNL     1      27.117  28.659  15.288  1.00  0.00    -0.052 SA
HETATM   36  S2  UNL     1      26.653  31.465  16.146  1.00  0.00    -0.021 SA
ENDBRANCH  32  34
ENDBRANCH  31  32
ENDBRANCH  30  31
ENDBRANCH  29  30
ENDBRANCH  28  29
ENDBRANCH   3  28
TORSDOF 14
ENDMDL