MODEL 3
REMARK VINA RESULT: -8.585446861      1.401      2.042
REMARK  12 active torsions:
REMARK  status: ('A' for Active; 'I' for Inactive)
REMARK    1  A    between atoms: C4_6  and  C5_7
REMARK       I    between atoms: C5_7  and  N2_9
REMARK    2  A    between atoms: N2_9  and  C6_11
REMARK    3  A    between atoms: C6_11  and  C7_12
REMARK    4  A    between atoms: C7_12  and  N3_13
REMARK    5  A    between atoms: N3_13  and  C8_15
REMARK    6  A    between atoms: C8_15  and  C9_17
REMARK    7  A    between atoms: C11_21  and  N5_22
REMARK    8  A    between atoms: N6_26  and  C14_27
REMARK    9  A    between atoms: C14_27  and  C15_28
REMARK   10  A    between atoms: C15_28  and  C16_29
REMARK   11  A    between atoms: C16_29  and  C17_30
REMARK   12  A    between atoms: C17_30  and  C18_31
ROOT
HETATM    1  C9  UNL     1      23.450  24.290  20.005  1.00  0.00     0.102 A
HETATM    2  C10 UNL     1      22.899  24.406  21.288  1.00  0.00     0.139 A
HETATM    3  N4  UNL     1      21.562  24.444  21.191  1.00  0.00    -0.199 N
ATOM      4  H4  UNL     1      20.908  24.525  21.970  1.00  0.00     0.183 HD
HETATM    5  C11 UNL     1      21.229  24.356  19.872  1.00  0.00     0.683 A
HETATM    6  N7  UNL     1      22.389  24.264  19.182  1.00  0.00    -0.187 N
ATOM      7  H7  UNL     1      22.450  24.184  18.167  1.00  0.00     0.184 HD
ENDROOT
BRANCH   1   8
HETATM    8  C8  UNL     1      24.870  24.220  19.689  1.00  0.00     0.125 C
HETATM    9  S1  UNL     1      25.966  24.558  20.845  1.00  0.00    -0.058 SA
BRANCH   8  10
HETATM   10  N3  UNL     1      25.335  23.855  18.401  1.00  0.00    -0.378 N
ATOM     11  H3  UNL     1      25.112  22.921  18.055  1.00  0.00     0.160 HD
BRANCH  10  12
HETATM   12  C7  UNL     1      26.103  24.724  17.556  1.00  0.00     0.140 C
BRANCH  12  13
HETATM   13  C6  UNL     1      25.558  26.119  17.434  1.00  0.00     0.142 C
BRANCH  13  14
HETATM   14  N2  UNL     1      24.417  26.096  16.551  1.00  0.00    -0.354 N
HETATM   15  C5  UNL     1      23.176  26.635  16.931  1.00  0.00     0.269 C
HETATM   16  O1  UNL     1      23.099  27.149  18.102  1.00  0.00    -0.266 OA
ATOM     17  H2  UNL     1      24.514  25.678  15.626  1.00  0.00     0.162 HD
BRANCH  15  18
HETATM   18  C4  UNL     1      21.984  26.646  16.095  1.00  0.00     0.116 A
HETATM   19  N1  UNL     1      21.593  25.530  15.420  1.00  0.00    -0.359 N
HETATM   20  C3  UNL     1      20.492  25.539  14.648  1.00  0.00     0.113 A
ATOM     21  H1  UNL     1      22.142  24.674  15.502  1.00  0.00     0.165 HD
HETATM   22  C2  UNL     1      19.711  26.664  14.499  1.00  0.00     0.020 A
HETATM   23  C1  UNL     1      18.492  26.673  13.642  1.00  0.00     0.069 C
HETATM   24  N8  UNL     1      20.087  27.772  15.160  1.00  0.00    -0.366 N
HETATM   25  C24 UNL     1      21.207  27.768  15.947  1.00  0.00     0.123 A
ATOM     26  H8  UNL     1      19.533  28.624  15.074  1.00  0.00     0.165 HD
ENDBRANCH  15  18
ENDBRANCH  13  14
ENDBRANCH  12  13
ENDBRANCH  10  12
ENDBRANCH   8  10
ENDBRANCH   1   8
BRANCH   5  27
HETATM   27  N5  UNL     1      19.919  24.365  19.355  1.00  0.00    -0.183 N
HETATM   28  C12 UNL     1      19.357  25.375  18.454  1.00  0.00     0.246 C
HETATM   29  C13 UNL     1      18.291  24.662  17.681  1.00  0.00     0.240 C
HETATM   30  O2  UNL     1      17.578  25.171  16.809  1.00  0.00    -0.271 OA
HETATM   31  N6  UNL     1      18.299  23.296  18.182  1.00  0.00    -0.324 N
HETATM   32  C21 UNL     1      18.800  23.430  19.553  1.00  0.00     0.120 C
HETATM   33  C22 UNL     1      19.244  22.109  20.068  1.00  0.00     0.064 C
HETATM   34  C23 UNL     1      17.777  24.044  20.439  1.00  0.00     0.064 C
BRANCH  31  35
HETATM   35  C14 UNL     1      17.960  22.175  17.384  1.00  0.00     0.128 C
BRANCH  35  36
HETATM   36  C15 UNL     1      16.562  21.667  17.457  1.00  0.00     0.020 C
BRANCH  36  37
HETATM   37  C16 UNL     1      16.342  20.425  18.248  1.00  0.00     0.002 C
BRANCH  37  38
HETATM   38  C17 UNL     1      15.543  20.728  19.530  1.00  0.00     0.004 C
BRANCH  38  39
HETATM   39  C18 UNL     1      14.451  19.735  19.767  1.00  0.00    -0.023 C
HETATM   40  C19 UNL     1      14.761  18.410  19.093  1.00  0.00     0.009 C
HETATM   41  C20 UNL     1      14.364  19.440  21.256  1.00  0.00     0.009 C
ENDBRANCH  38  39
ENDBRANCH  37  38
ENDBRANCH  36  37
ENDBRANCH  35  36
ENDBRANCH  31  35
ENDBRANCH   5  27
TORSDOF 12
ENDMDL