MODEL 5
REMARK VINA RESULT: -8.490429442      1.443      1.728
REMARK  12 active torsions:
REMARK  status: ('A' for Active; 'I' for Inactive)
REMARK    1  A    between atoms: C2_2  and  C3_3
REMARK    2  A    between atoms: C3_3  and  C4_4
REMARK    3  A    between atoms: C4_4  and  S1_5
REMARK    4  A    between atoms: S1_5  and  C5_6
REMARK    5  A    between atoms: S1_5  and  C18_33
REMARK    6  A    between atoms: C5_6  and  C6_7
REMARK    7  A    between atoms: C7_10  and  N2_11
REMARK    8  A    between atoms: N2_11  and  C8_13
REMARK    9  A    between atoms: C11_18  and  C12_19
REMARK   10  A    between atoms: C12_19  and  N4_20
REMARK   11  A    between atoms: N8_36  and  O1_37
REMARK   12  A    between atoms: C21_39  and  N9_40
ROOT
HETATM    1  C6  UNL     1      17.414  22.587  19.413  1.00  0.00     0.121 A
HETATM    2  N1  UNL     1      18.700  22.604  19.801  1.00  0.00    -0.177 N
ATOM      3  H1  UNL     1      19.338  21.809  19.754  1.00  0.00     0.185 HD
HETATM    4  C7  UNL     1      19.016  23.807  20.252  1.00  0.00     0.698 A
HETATM    5  N6  UNL     1      17.902  24.545  20.142  1.00  0.00    -0.131 N
ATOM      6  H6  UNL     1      17.824  25.526  20.411  1.00  0.00     0.205 HD
HETATM    7  N7  UNL     1      16.927  23.828  19.639  1.00  0.00    -0.274 N
ATOM      8  H7  UNL     1      15.977  24.147  19.451  1.00  0.00     0.189 HD
ENDROOT
BRANCH   4   9
HETATM    9  N2  UNL     1      20.179  24.174  20.707  1.00  0.00    -0.190 N
ATOM     10  H2  UNL     1      20.357  24.053  21.704  1.00  0.00     0.184 HD
BRANCH   9  11
HETATM   11  C8  UNL     1      21.205  24.722  19.924  1.00  0.00     0.052 A
HETATM   12  C9  UNL     1      22.488  24.245  19.962  1.00  0.00     0.047 A
HETATM   13  C10 UNL     1      23.472  24.809  19.180  1.00  0.00     0.090 A
HETATM   14  N3  UNL     1      23.126  25.848  18.374  1.00  0.00    -0.368 N
HETATM   15  C11 UNL     1      21.883  26.327  18.322  1.00  0.00     0.039 A
ATOM     16  H3  UNL     1      23.844  26.277  17.788  1.00  0.00     0.165 HD
HETATM   17  C17 UNL     1      20.879  25.785  19.092  1.00  0.00     0.057 A
BRANCH  15  18
HETATM   18  C12 UNL     1      21.569  27.465  17.427  1.00  0.00     0.329 C
BRANCH  18  19
HETATM   19  N4  UNL     1      21.307  26.914  16.103  1.00  0.00     0.097 N
HETATM   20  C13 UNL     1      19.944  27.100  15.701  1.00  0.00     0.300 C
HETATM   21  C14 UNL     1      19.792  26.980  14.196  1.00  0.00     0.262 C
HETATM   22  N5  UNL     1      20.453  28.123  13.598  1.00  0.00    -0.072 N
HETATM   23  C15 UNL     1      21.582  28.582  14.367  1.00  0.00     0.262 C
ATOM     24  H52 UNL     1      20.724  27.926  12.634  1.00  0.00     0.277 HD
ATOM     25  H51 UNL     1      19.793  28.882  13.431  1.00  0.00     0.277 HD
HETATM   26  C16 UNL     1      22.243  27.446  15.129  1.00  0.00     0.300 C
ENDBRANCH  18  19
ENDBRANCH  15  18
ENDBRANCH   9  11
ENDBRANCH   4   9
BRANCH   1  27
HETATM   27  C5  UNL     1      16.734  21.416  18.865  1.00  0.00     0.147 C
BRANCH  27  28
HETATM   28  S1  UNL     1      15.930  21.508  17.373  1.00  0.00    -0.179 SA
BRANCH  28  29
HETATM   29  C4  UNL     1      16.684  21.938  15.921  1.00  0.00     0.069 C
BRANCH  29  30
HETATM   30  C3  UNL     1      16.502  23.292  15.341  1.00  0.00     0.009 C
BRANCH  30  31
HETATM   31  C2  UNL     1      17.626  24.242  15.740  1.00  0.00    -0.004 C
HETATM   32  C1  UNL     1      18.874  23.515  16.130  1.00  0.00     0.005 C
ENDBRANCH  30  31
ENDBRANCH  29  30
ENDBRANCH  28  29
BRANCH  28  33
HETATM   33  C18 UNL     1      14.347  20.865  17.291  1.00  0.00    -0.004 A
HETATM   34  C19 UNL     1      13.759  20.340  18.413  1.00  0.00     0.037 A
HETATM   35  C20 UNL     1      12.487  19.832  18.301  1.00  0.00     0.126 A
HETATM   36  N8  UNL     1      11.836  19.851  17.115  1.00  0.00    -0.220 N
HETATM   37  C21 UNL     1      12.356  20.351  15.983  1.00  0.00     0.131 A
HETATM   38  C24 UNL     1      13.657  20.866  16.110  1.00  0.00     0.068 A
BRANCH  36  39
HETATM   39  O1  UNL     1      10.552  19.312  17.107  1.00  0.00    -0.282 OA
ATOM     40  H1  UNL     1      10.494  18.363  17.098  1.00  0.00     0.245 HD
ENDBRANCH  36  39
BRANCH  37  41
HETATM   41  N9  UNL     1      11.682  20.373  14.749  1.00  0.00    -0.374 N
HETATM   42  C22 UNL     1      10.890  21.547  14.415  1.00  0.00     0.150 C
HETATM   43  C23 UNL     1      11.733  19.298  13.797  1.00  0.00     0.150 C
ENDBRANCH  37  41
ENDBRANCH  28  33
ENDBRANCH  27  28
ENDBRANCH   1  27
TORSDOF 12
ENDMDL