MODEL 2
REMARK VINA RESULT: -9.216715373      2.725     10.397
REMARK  11 active torsions:
REMARK  status: ('A' for Active; 'I' for Inactive)
REMARK    1  A    between atoms: C2_2  and  C3_4
REMARK    2  A    between atoms: C6_9  and  C7_10
REMARK       I    between atoms: C7_10  and  N2_12
REMARK    3  A    between atoms: C8_14  and  C9_15
REMARK    4  A    between atoms: C8_14  and  C19_33
REMARK    5  A    between atoms: C9_15  and  C10_16
REMARK       I    between atoms: N5_21  and  C11_22
REMARK       I    between atoms: C11_22  and  N6_24
REMARK    6  A    between atoms: N6_24  and  C12_26
REMARK    7  A    between atoms: C12_26  and  C13_27
REMARK    8  A    between atoms: C13_27  and  C14_28
REMARK       I    between atoms: C19_33  and  N7_35
REMARK    9  A    between atoms: N7_35  and  C20_37
REMARK   10  A    between atoms: C20_37  and  C21_38
REMARK   11  A    between atoms: C21_38  and  C22_39
ROOT
HETATM    1  C7  UNL     1      16.985  25.243  17.024  1.00  0.00     0.273 C
HETATM    2  O2  UNL     1      16.412  25.511  18.110  1.00  0.00    -0.266 OA
HETATM    3  N2  UNL     1      16.281  24.496  16.093  1.00  0.00    -0.320 N
ATOM      4  H2  UNL     1      15.704  25.038  15.451  1.00  0.00     0.169 HD
HETATM    5  C8  UNL     1      16.246  23.214  15.915  1.00  0.00     0.086 C
ENDROOT
BRANCH   5   6
HETATM    6  C9  UNL     1      15.371  22.701  14.800  1.00  0.00     0.123 C
BRANCH   6   7
HETATM    7  C10 UNL     1      14.253  21.858  15.204  1.00  0.00     0.057 A
HETATM    8  N3  UNL     1      13.539  21.895  16.333  1.00  0.00    -0.288 N
HETATM    9  N4  UNL     1      12.605  20.995  16.325  1.00  0.00    -0.232 N
ATOM     10  H3  UNL     1      13.707  22.546  17.100  1.00  0.00     0.188 HD
HETATM   11  N5  UNL     1      12.631  20.280  15.170  1.00  0.00    -0.194 N
ATOM     12  H4  UNL     1      11.940  20.844  17.083  1.00  0.00     0.209 HD
HETATM   13  C11 UNL     1      11.711  19.238  14.901  1.00  0.00     0.342 C
HETATM   14  C17 UNL     1      13.648  20.811  14.481  1.00  0.00     0.061 A
HETATM   15  O3  UNL     1      10.877  18.982  15.846  1.00  0.00    -0.245 OA
HETATM   16  N6  UNL     1      11.601  18.473  13.751  1.00  0.00    -0.341 N
ATOM     17  H6  UNL     1      12.238  18.629  12.970  1.00  0.00     0.164 HD
HETATM   18  C18 UNL     1      14.150  20.352  13.182  1.00  0.00     0.072 C
BRANCH  16  19
HETATM   19  C12 UNL     1      10.564  17.435  13.662  1.00  0.00     0.125 C
BRANCH  19  20
HETATM   20  C13 UNL     1      11.068  16.269  12.885  1.00  0.00     0.023 C
BRANCH  20  21
HETATM   21  C14 UNL     1      11.941  16.855  11.755  1.00  0.00    -0.021 C
HETATM   22  C15 UNL     1      13.370  16.474  12.062  1.00  0.00     0.009 C
HETATM   23  C16 UNL     1      11.462  16.233  10.461  1.00  0.00     0.009 C
ENDBRANCH  20  21
ENDBRANCH  19  20
ENDBRANCH  16  19
ENDBRANCH   6   7
ENDBRANCH   5   6
BRANCH   5  24
HETATM   24  C19 UNL     1      17.002  22.382  16.816  1.00  0.00     0.264 C
HETATM   25  O4  UNL     1      17.919  21.646  16.300  1.00  0.00    -0.266 OA
HETATM   26  N7  UNL     1      16.813  22.291  18.248  1.00  0.00    -0.356 N
ATOM     27  H7  UNL     1      16.111  22.843  18.740  1.00  0.00     0.162 HD
BRANCH  26  28
HETATM   28  C20 UNL     1      17.680  21.371  18.929  1.00  0.00     0.123 C
BRANCH  28  29
HETATM   29  C21 UNL     1      18.787  21.885  19.729  1.00  0.00     0.023 C
BRANCH  29  30
HETATM   30  C22 UNL     1      19.077  23.333  19.763  1.00  0.00    -0.021 C
HETATM   31  C23 UNL     1      20.602  23.554  19.888  1.00  0.00     0.009 C
HETATM   32  C24 UNL     1      18.490  24.093  20.921  1.00  0.00     0.009 C
ENDBRANCH  29  30
ENDBRANCH  28  29
ENDBRANCH  26  28
ENDBRANCH   5  24
BRANCH   1  33
HETATM   33  C6  UNL     1      18.358  25.715  16.759  1.00  0.00     0.108 A
HETATM   34  N1  UNL     1      19.202  26.053  17.787  1.00  0.00    -0.354 N
HETATM   35  C4  UNL     1      20.374  26.456  17.298  1.00  0.00     0.020 A
ATOM     36  H1  UNL     1      18.967  26.003  18.778  1.00  0.00     0.166 HD
HETATM   37  C3  UNL     1      20.288  26.379  15.912  1.00  0.00     0.040 A
HETATM   38  C5  UNL     1      21.555  26.908  18.100  1.00  0.00     0.069 C
HETATM   39  C25 UNL     1      19.019  25.911  15.579  1.00  0.00    -0.014 A
HETATM   40  C26 UNL     1      18.501  25.667  14.228  1.00  0.00     0.052 C
BRANCH  37  41
HETATM   41  C2  UNL     1      21.360  26.741  15.024  1.00  0.00     0.158 C
HETATM   42  C1  UNL     1      21.452  27.932  14.174  1.00  0.00     0.097 C
HETATM   43  O1  UNL     1      22.375  25.947  14.945  1.00  0.00    -0.293 OA
ENDBRANCH  37  41
ENDBRANCH   1  33
TORSDOF 11
ENDMDL