MODEL 1
REMARK VINA RESULT: -7.389957316      0.000      0.000
REMARK  14 active torsions:
REMARK  status: ('A' for Active; 'I' for Inactive)
REMARK    1  A    between atoms: O1_2  and  C2_3
REMARK    2  A    between atoms: C2_3  and  C3_4
REMARK    3  A    between atoms: C3_4  and  C4_5
REMARK    4  A    between atoms: C4_5  and  N1_6
REMARK    5  A    between atoms: N1_6  and  C5_8
REMARK    6  A    between atoms: C6_11  and  N3_12
REMARK    7  A    between atoms: N3_12  and  C7_13
REMARK    8  A    between atoms: C7_13  and  N4_15
REMARK    9  A    between atoms: N4_15  and  C8_17
REMARK   10  A    between atoms: C8_17  and  C9_18
REMARK   11  A    between atoms: C9_18  and  C10_19
REMARK   12  A    between atoms: C10_19  and  N5_20
REMARK   13  A    between atoms: C20_31  and  S2_32
REMARK   14  A    between atoms: C23_35  and  C24_36
ROOT
HETATM    1  N3  UNL     1      15.710  21.139  18.137  1.00  0.00    -0.357 NA
ENDROOT
BRANCH   1   2
HETATM    2  C6  UNL     1      14.394  20.801  17.933  1.00  0.00     0.200 A
HETATM    3  N2  UNL     1      13.631  21.026  16.870  1.00  0.00    -0.316 N
HETATM    4  C5  UNL     1      12.384  20.503  16.661  1.00  0.00     0.116 A
ATOM      5  H2  UNL     1      14.006  21.642  16.148  1.00  0.00     0.170 HD
HETATM    6  C23 UNL     1      11.831  19.654  17.641  1.00  0.00     0.047 A
HETATM    7  C22 UNL     1      12.570  19.395  18.753  1.00  0.00     0.041 A
HETATM    8  C20 UNL     1      13.797  19.937  18.906  1.00  0.00     0.059 A
BRANCH   4   9
HETATM    9  N1  UNL     1      11.671  20.704  15.680  1.00  0.00    -0.375 N
ATOM     10  H1  UNL     1      10.742  20.783  16.094  1.00  0.00     0.161 HD
BRANCH   9  11
HETATM   11  C4  UNL     1      11.423  20.879  14.364  1.00  0.00     0.123 C
BRANCH  11  12
HETATM   12  C3  UNL     1      11.877  19.671  13.529  1.00  0.00     0.046 C
BRANCH  12  13
HETATM   13  C2  UNL     1      13.331  19.767  13.149  1.00  0.00     0.168 C
BRANCH  13  14
HETATM   14  O1  UNL     1      14.084  20.648  13.860  1.00  0.00    -0.396 OA
HETATM   15  C1  UNL     1      14.890  21.492  13.140  1.00  0.00     0.201 C
ENDBRANCH  13  14
ENDBRANCH  12  13
ENDBRANCH  11  12
ENDBRANCH   9  11
ENDBRANCH   4   9
BRANCH   6  16
HETATM   16  C24 UNL     1      10.548  19.021  17.411  1.00  0.00     0.273 C
HETATM   17  O2  UNL     1      10.433  18.129  16.528  1.00  0.00    -0.301 OA
ENDBRANCH   6  16
BRANCH   8  18
HETATM   18  S2  UNL     1      14.742  19.632  20.370  1.00  0.00    -0.130 SA
HETATM   19  C21 UNL     1      13.753  18.651  21.519  1.00  0.00     0.095 C
ENDBRANCH   8  18
ENDBRANCH   1   2
BRANCH   1  20
HETATM   20  C7  UNL     1      16.970  21.463  18.332  1.00  0.00     0.247 C
HETATM   21  S1  UNL     1      17.873  21.507  16.857  1.00  0.00    -0.025 SA
BRANCH  20  22
HETATM   22  N4  UNL     1      17.770  21.825  19.386  1.00  0.00    -0.356 N
ATOM     23  H4  UNL     1      17.441  21.455  20.278  1.00  0.00     0.162 HD
BRANCH  22  24
HETATM   24  C8  UNL     1      18.973  22.611  19.518  1.00  0.00     0.125 C
BRANCH  24  25
HETATM   25  C9  UNL     1      18.490  24.056  19.415  1.00  0.00     0.039 C
BRANCH  25  26
HETATM   26  C10 UNL     1      19.429  24.986  18.724  1.00  0.00     0.124 C
BRANCH  26  27
HETATM   27  N5  UNL     1      18.817  25.330  17.440  1.00  0.00    -0.380 N
HETATM   28  C11 UNL     1      17.436  25.020  17.232  1.00  0.00     0.150 A
HETATM   29  C12 UNL     1      16.975  25.229  15.848  1.00  0.00    -0.007 A
HETATM   30  C13 UNL     1      17.747  25.713  14.891  1.00  0.00     0.008 A
HETATM   31  C14 UNL     1      19.144  26.061  15.191  1.00  0.00    -0.008 A
HETATM   32  C15 UNL     1      19.637  25.883  16.395  1.00  0.00     0.017 A
HETATM   33  C19 UNL     1      19.927  26.559  14.027  1.00  0.00     0.312 C
HETATM   34  C16 UNL     1      21.014  26.262  16.703  1.00  0.00     0.087 C
HETATM   35  C17 UNL     1      21.816  26.409  15.446  1.00  0.00     0.278 C
HETATM   36  N6  UNL     1      21.187  27.105  14.381  1.00  0.00     0.088 N
HETATM   37  C18 UNL     1      21.210  28.536  14.451  1.00  0.00     0.310 C
ENDBRANCH  26  27
ENDBRANCH  25  26
ENDBRANCH  24  25
ENDBRANCH  22  24
ENDBRANCH  20  22
ENDBRANCH   1  20
TORSDOF 14
ENDMDL