MODEL 2
REMARK VINA RESULT: -8.988407860      1.963      3.832
REMARK  13 active torsions:
REMARK  status: ('A' for Active; 'I' for Inactive)
REMARK    1  A    between atoms: O1_2  and  C2_3
REMARK    2  A    between atoms: C6_7  and  N1_8
REMARK    3  A    between atoms: N2_11  and  C9_12
REMARK    4  A    between atoms: C9_12  and  C10_13
REMARK    5  A    between atoms: C10_13  and  C11_14
REMARK    6  A    between atoms: C11_14  and  C12_15
REMARK    7  A    between atoms: C12_15  and  C13_16
REMARK    8  A    between atoms: N3_18  and  C15_19
REMARK    9  A    between atoms: C15_19  and  C16_20
REMARK   10  A    between atoms: C16_20  and  O2_21
REMARK   11  A    between atoms: C16_20  and  C17_23
REMARK   12  A    between atoms: C17_23  and  O3_24
REMARK   13  A    between atoms: N4_28  and  C20_29
ROOT
HETATM    1  C10 UNL     1      17.500  21.525  19.268  1.00  0.00     0.020 C
ENDROOT
BRANCH   1   2
HETATM    2  C9  UNL     1      17.678  22.946  18.888  1.00  0.00     0.117 C
BRANCH   2   3
HETATM    3  N2  UNL     1      18.781  23.223  18.043  1.00  0.00    -0.409 N
HETATM    4  C8  UNL     1      18.484  23.073  16.655  1.00  0.00     0.136 C
HETATM    5  C7  UNL     1      19.447  23.847  15.766  1.00  0.00     0.142 C
HETATM    6  N1  UNL     1      19.436  25.262  16.153  1.00  0.00    -0.376 N
HETATM    7  C25 UNL     1      19.102  25.549  17.551  1.00  0.00     0.142 C
HETATM    8  C24 UNL     1      19.605  24.318  18.314  1.00  0.00     0.136 C
BRANCH   6   9
HETATM    9  C6  UNL     1      19.720  26.287  15.242  1.00  0.00     0.058 A
HETATM   10  C5  UNL     1      20.844  27.082  15.230  1.00  0.00     0.019 A
HETATM   11  C4  UNL     1      21.970  27.152  16.021  1.00  0.00     0.019 A
HETATM   12  C27 UNL     1      20.675  27.942  14.149  1.00  0.00     0.047 A
HETATM   13  C3  UNL     1      22.919  28.106  15.696  1.00  0.00     0.038 A
HETATM   14  C2  UNL     1      22.785  28.973  14.634  1.00  0.00     0.070 A
HETATM   15  C28 UNL     1      21.653  28.878  13.866  1.00  0.00     0.067 A
HETATM   16  N5  UNL     1      19.506  27.687  13.529  1.00  0.00    -0.363 N
HETATM   17  C26 UNL     1      18.911  26.681  14.182  1.00  0.00     0.118 A
ATOM     18  H5  UNL     1      19.140  28.173  12.710  1.00  0.00     0.165 HD
BRANCH  14  19
HETATM   19  O1  UNL     1      23.754  29.910  14.343  1.00  0.00    -0.356 OA
HETATM   20  C1  UNL     1      24.900  29.980  15.164  1.00  0.00     0.210 C
ENDBRANCH  14  19
ENDBRANCH   6   9
ENDBRANCH   2   3
ENDBRANCH   1   2
BRANCH   1  21
HETATM   21  C11 UNL     1      16.106  20.970  19.072  1.00  0.00     0.007 C
BRANCH  21  22
HETATM   22  C12 UNL     1      15.888  20.548  17.642  1.00  0.00     0.054 C
BRANCH  22  23
HETATM   23  C13 UNL     1      14.485  20.649  17.158  1.00  0.00     0.013 C
HETATM   24  C14 UNL     1      13.564  20.675  18.388  1.00  0.00     0.324 C
HETATM   25  N3  UNL     1      12.329  20.015  18.017  1.00  0.00     0.097 N
HETATM   26  C18 UNL     1      12.144  19.907  16.614  1.00  0.00     0.292 C
HETATM   27  C19 UNL     1      12.679  21.094  15.818  1.00  0.00     0.153 C
HETATM   28  N4  UNL     1      14.088  21.357  16.071  1.00  0.00    -0.376 N
BRANCH  25  29
HETATM   29  C15 UNL     1      12.149  18.779  18.690  1.00  0.00     0.306 C
BRANCH  29  30
HETATM   30  C16 UNL     1      13.283  18.321  19.522  1.00  0.00     0.170 C
BRANCH  30  31
HETATM   31  O2  UNL     1      13.989  17.238  19.038  1.00  0.00    -0.392 OA
ATOM     32  H2  UNL     1      14.288  16.614  19.687  1.00  0.00     0.210 HD
ENDBRANCH  30  31
BRANCH  30  33
HETATM   33  C17 UNL     1      12.863  18.039  20.963  1.00  0.00     0.197 C
BRANCH  33  34
HETATM   34  O3  UNL     1      11.724  18.759  21.317  1.00  0.00    -0.398 OA
ATOM     35  H3  UNL     1      11.024  18.186  21.606  1.00  0.00     0.209 HD
ENDBRANCH  33  34
ENDBRANCH  30  33
ENDBRANCH  29  30
ENDBRANCH  25  29
BRANCH  28  36
HETATM   36  C20 UNL     1      14.603  22.456  15.440  1.00  0.00     0.021 C
HETATM   37  C21 UNL     1      13.370  23.162  14.786  1.00  0.00     0.037 C
HETATM   38  C22 UNL     1      15.167  23.569  16.296  1.00  0.00     0.037 C
HETATM   39  C23 UNL     1      15.535  22.265  14.271  1.00  0.00     0.037 C
ENDBRANCH  28  36
ENDBRANCH  22  23
ENDBRANCH  21  22
ENDBRANCH   1  21
TORSDOF 13
ENDMDL