MODEL 2
REMARK VINA RESULT: -8.927658932      0.909      1.988
REMARK  11 active torsions:
REMARK  status: ('A' for Active; 'I' for Inactive)
REMARK    1  A    between atoms: C2_2  and  C4_4
REMARK    2  A    between atoms: C4_4  and  C5_6
REMARK    3  A    between atoms: C5_6  and  N1_7
REMARK    4  A    between atoms: C5_6  and  C22_39
REMARK       I    between atoms: N1_7  and  C6_9
REMARK    5  A    between atoms: C6_9  and  C7_11
REMARK    6  A    between atoms: C7_11  and  N2_12
REMARK    7  A    between atoms: C7_11  and  C19_36
REMARK       I    between atoms: N2_12  and  C8_14
REMARK    8  A    between atoms: C8_14  and  C9_16
REMARK    9  A    between atoms: C9_16  and  C10_17
REMARK   10  A    between atoms: C11_18  and  C12_19
REMARK   11  A    between atoms: C16_28  and  C17_29
ROOT
HETATM    1  N2  UNL     1      16.821  22.950  18.816  1.00  0.00    -0.347 N
ATOM      2  H2  UNL     1      16.263  23.798  18.911  1.00  0.00     0.163 HD
HETATM    3  C8  UNL     1      16.170  21.672  18.810  1.00  0.00     0.222 C
HETATM    4  O3  UNL     1      16.835  20.604  18.693  1.00  0.00    -0.273 OA
ENDROOT
BRANCH   3   5
HETATM    5  C9  UNL     1      14.696  21.579  18.943  1.00  0.00     0.141 C
BRANCH   5   6
HETATM    6  C10 UNL     1      13.936  20.957  17.869  1.00  0.00    -0.020 C
HETATM    7  C11 UNL     1      13.667  21.601  16.609  1.00  0.00     0.022 C
HETATM    8  N3  UNL     1      12.759  21.073  15.840  1.00  0.00    -0.312 N
HETATM    9  C15 UNL     1      11.997  19.938  16.110  1.00  0.00     0.321 C
ATOM     10  H3  UNL     1      12.587  21.539  14.949  1.00  0.00     0.170 HD
HETATM   11  O4  UNL     1      11.129  19.426  15.370  1.00  0.00    -0.247 OA
HETATM   12  N4  UNL     1      12.250  19.294  17.382  1.00  0.00    -0.329 N
HETATM   13  C16 UNL     1      12.717  20.222  18.430  1.00  0.00     0.170 C
ATOM     14  H4  UNL     1      12.119  18.295  17.538  1.00  0.00     0.165 HD
BRANCH   7  15
HETATM   15  C12 UNL     1      14.264  22.844  16.048  1.00  0.00     0.028 C
HETATM   16  C13 UNL     1      15.489  22.497  15.168  1.00  0.00     0.016 C
HETATM   17  C14 UNL     1      13.315  23.558  15.107  1.00  0.00     0.016 C
ENDBRANCH   7  15
BRANCH  13  18
HETATM   18  C17 UNL     1      13.115  19.341  19.598  1.00  0.00     0.061 A
HETATM   19  C18 UNL     1      12.179  18.762  20.432  1.00  0.00     0.098 A
HETATM   20  S1  UNL     1      13.180  17.910  21.520  1.00  0.00    -0.009 SA
HETATM   21  N5  UNL     1      14.671  18.332  20.867  1.00  0.00    -0.270 N
HETATM   22  N6  UNL     1      14.362  19.091  19.865  1.00  0.00    -0.296 N
ATOM     23  H5  UNL     1      15.600  18.056  21.186  1.00  0.00     0.195 HD
ATOM     24  H6  UNL     1      15.098  19.493  19.284  1.00  0.00     0.187 HD
ENDBRANCH  13  18
ENDBRANCH   5   6
ENDBRANCH   3   5
BRANCH   1  25
HETATM   25  C7  UNL     1      18.244  23.049  18.690  1.00  0.00     0.180 C
BRANCH  25  26
HETATM   26  C6  UNL     1      18.696  23.297  17.312  1.00  0.00     0.241 C
HETATM   27  N1  UNL     1      19.078  24.496  16.736  1.00  0.00    -0.347 N
ATOM     28  H1  UNL     1      19.047  25.346  17.299  1.00  0.00     0.163 HD
HETATM   29  O2  UNL     1      18.733  22.260  16.564  1.00  0.00    -0.271 OA
BRANCH  27  30
HETATM   30  C5  UNL     1      19.538  24.587  15.311  1.00  0.00     0.158 C
BRANCH  30  31
HETATM   31  C4  UNL     1      20.584  25.613  15.240  1.00  0.00     0.153 C
HETATM   32  O1  UNL     1      21.642  25.314  14.628  1.00  0.00    -0.295 OA
BRANCH  31  33
HETATM   33  C2  UNL     1      20.525  26.949  15.789  1.00  0.00     0.049 C
HETATM   34  C1  UNL     1      21.370  27.308  16.967  1.00  0.00     0.017 C
HETATM   35  C3  UNL     1      20.834  27.981  14.680  1.00  0.00     0.017 C
ENDBRANCH  31  33
ENDBRANCH  30  31
BRANCH  30  36
HETATM   36  C22 UNL     1      18.311  24.834  14.492  1.00  0.00     0.007 C
HETATM   37  C23 UNL     1      18.613  25.466  13.175  1.00  0.00     0.012 C
HETATM   38  C24 UNL     1      17.270  25.693  15.183  1.00  0.00     0.012 C
ENDBRANCH  30  36
ENDBRANCH  27  30
ENDBRANCH  25  26
BRANCH  25  39
HETATM   39  C19 UNL     1      18.873  23.884  19.750  1.00  0.00     0.009 C
HETATM   40  C20 UNL     1      20.307  23.605  20.044  1.00  0.00     0.012 C
HETATM   41  C21 UNL     1      18.000  23.990  21.001  1.00  0.00     0.012 C
ENDBRANCH  25  39
ENDBRANCH   1  25
TORSDOF 11
ENDMDL