MODEL 5
REMARK VINA RESULT: -8.826065714      2.763      8.818
REMARK  12 active torsions:
REMARK  status: ('A' for Active; 'I' for Inactive)
REMARK    1  A    between atoms: C3_5  and  N2_6
REMARK    2  A    between atoms: N4_17  and  C9_18
REMARK    3  A    between atoms: C9_18  and  C10_19
REMARK    4  A    between atoms: C10_19  and  C11_20
REMARK    5  A    between atoms: C11_20  and  C12_21
REMARK    6  A    between atoms: C12_21  and  C13_22
REMARK       I    between atoms: C13_22  and  N5_24
REMARK    7  A    between atoms: N5_24  and  C14_26
REMARK    8  A    between atoms: C14_26  and  C15_27
REMARK    9  A    between atoms: C15_27  and  C16_28
REMARK   10  A    between atoms: C16_28  and  N6_29
REMARK   11  A    between atoms: N7_32  and  C19_33
REMARK   12  A    between atoms: C19_33  and  C20_34
ROOT
HETATM    1  C12 UNL     1      17.556  24.321  15.078  1.00  0.00     0.103 C
ENDROOT
BRANCH   1   2
HETATM    2  C11 UNL     1      17.658  25.087  16.342  1.00  0.00     0.011 C
BRANCH   2   3
HETATM    3  C10 UNL     1      18.951  25.791  16.573  1.00  0.00     0.021 C
BRANCH   3   4
HETATM    4  C9  UNL     1      19.972  25.408  15.506  1.00  0.00     0.134 C
BRANCH   4   5
HETATM    5  N4  UNL     1      20.676  26.608  15.068  1.00  0.00    -0.299 N
HETATM    6  C4  UNL     1      21.824  26.939  15.684  1.00  0.00     0.138 A
HETATM    7  N3  UNL     1      22.321  26.181  16.693  1.00  0.00    -0.176 N
HETATM    8  C5  UNL     1      22.512  28.074  15.282  1.00  0.00     0.032 A
HETATM    9  C3  UNL     1      23.480  26.569  17.272  1.00  0.00     0.677 A
ATOM     10  H3  UNL     1      21.834  25.341  17.006  1.00  0.00     0.186 HD
HETATM   11  N1  UNL     1      24.159  27.662  16.900  1.00  0.00    -0.195 N
HETATM   12  C2  UNL     1      23.691  28.446  15.891  1.00  0.00     0.036 A
ATOM     13  H1  UNL     1      25.029  27.906  17.374  1.00  0.00     0.184 HD
HETATM   14  C1  UNL     1      24.448  29.650  15.493  1.00  0.00     0.070 C
HETATM   15  C6  UNL     1      22.019  28.865  14.252  1.00  0.00     0.022 A
HETATM   16  C7  UNL     1      20.851  28.512  13.640  1.00  0.00     0.075 A
HETATM   17  C8  UNL     1      20.197  27.373  14.071  1.00  0.00     0.249 A
HETATM   18  O1  UNL     1      19.124  27.025  13.530  1.00  0.00    -0.268 OA
BRANCH   9  19
HETATM   19  N2  UNL     1      23.957  25.864  18.227  1.00  0.00    -0.234 N
ATOM     20  H22 UNL     1      24.931  25.565  18.175  1.00  0.00     0.174 HD
ATOM     21  H21 UNL     1      23.338  25.629  19.002  1.00  0.00     0.174 HD
ENDBRANCH   9  19
ENDBRANCH   4   5
ENDBRANCH   3   4
ENDBRANCH   2   3
ENDBRANCH   1   2
BRANCH   1  22
HETATM   22  C13 UNL     1      16.878  23.024  15.192  1.00  0.00     0.217 C
HETATM   23  O2  UNL     1      17.455  22.071  15.771  1.00  0.00    -0.274 OA
HETATM   24  N5  UNL     1      15.577  22.899  14.635  1.00  0.00    -0.361 N
ATOM     25  H5  UNL     1      15.157  23.705  14.171  1.00  0.00     0.162 HD
BRANCH  24  26
HETATM   26  C14 UNL     1      14.841  21.676  14.708  1.00  0.00     0.124 C
BRANCH  26  27
HETATM   27  C15 UNL     1      13.779  21.732  15.764  1.00  0.00     0.039 C
BRANCH  27  28
HETATM   28  C16 UNL     1      13.890  20.566  16.752  1.00  0.00     0.118 C
BRANCH  28  29
HETATM   29  N6  UNL     1      13.734  21.028  18.087  1.00  0.00    -0.409 N
HETATM   30  C17 UNL     1      14.099  20.107  19.121  1.00  0.00     0.136 C
HETATM   31  C18 UNL     1      15.213  20.728  19.957  1.00  0.00     0.136 C
HETATM   32  N7  UNL     1      16.098  21.409  19.090  1.00  0.00    -0.409 N
HETATM   33  C27 UNL     1      15.569  22.561  18.440  1.00  0.00     0.136 C
HETATM   34  C28 UNL     1      14.076  22.385  18.291  1.00  0.00     0.136 C
BRANCH  32  35
HETATM   35  C19 UNL     1      17.462  21.505  19.473  1.00  0.00     0.121 C
BRANCH  35  36
HETATM   36  C20 UNL     1      18.028  22.908  19.427  1.00  0.00     0.003 C
HETATM   37  C21 UNL     1      18.145  23.379  20.845  1.00  0.00     0.006 C
HETATM   38  C22 UNL     1      19.071  24.522  21.067  1.00  0.00     0.005 C
HETATM   39  C23 UNL     1      20.118  24.704  20.013  1.00  0.00    -0.019 C
HETATM   40  C24 UNL     1      21.343  25.369  20.590  1.00  0.00     0.010 C
HETATM   41  C25 UNL     1      20.513  23.353  19.457  1.00  0.00     0.005 C
HETATM   42  C26 UNL     1      19.340  22.828  18.691  1.00  0.00     0.006 C
ENDBRANCH  35  36
ENDBRANCH  32  35
ENDBRANCH  28  29
ENDBRANCH  27  28
ENDBRANCH  26  27
ENDBRANCH  24  26
ENDBRANCH   1  22
TORSDOF 12
ENDMDL