MODEL 3
REMARK VINA RESULT: -8.826070511      1.305      1.971
REMARK  11 active torsions:
REMARK  status: ('A' for Active; 'I' for Inactive)
REMARK    1  A    between atoms: C2_2  and  C3_3
REMARK    2  A    between atoms: C3_3  and  N1_4
REMARK    3  A    between atoms: N1_4  and  C4_5
REMARK       I    between atoms: N1_4  and  C17_26
REMARK    4  A    between atoms: C4_5  and  C5_6
REMARK       I    between atoms: C5_6  and  N2_8
REMARK    5  A    between atoms: N2_8  and  C6_10
REMARK    6  A    between atoms: C11_15  and  S1_16
REMARK    7  A    between atoms: S1_16  and  C12_17
REMARK    8  A    between atoms: C12_17  and  C13_18
REMARK       I    between atoms: C13_18  and  N3_20
REMARK    9  A    between atoms: C17_26  and  C18_28
REMARK   10  A    between atoms: C18_28  and  C19_29
REMARK   11  A    between atoms: C19_29  and  C20_30
REMARK       I    between atoms: C20_30  and  N5_32
ROOT
HETATM    1  C13 UNL     1      12.444  20.569  15.126  1.00  0.00     0.240 C
HETATM    2  O2  UNL     1      12.094  21.693  14.783  1.00  0.00    -0.272 OA
HETATM    3  N3  UNL     1      13.774  20.185  14.653  1.00  0.00    -0.263 N
ATOM      4  H3  UNL     1      14.151  19.266  14.888  1.00  0.00     0.181 HD
HETATM    5  C14 UNL     1      14.523  21.063  13.886  1.00  0.00     0.184 C
HETATM    6  N4  UNL     1      15.154  21.795  13.229  1.00  0.00    -0.172 NA
ENDROOT
BRANCH   1   7
HETATM    7  C12 UNL     1      11.708  19.590  15.934  1.00  0.00     0.183 C
BRANCH   7   8
HETATM    8  S1  UNL     1      11.601  19.915  17.648  1.00  0.00    -0.119 SA
BRANCH   8   9
HETATM    9  C11 UNL     1      13.049  19.760  18.632  1.00  0.00     0.015 A
HETATM   10  C9  UNL     1      13.307  18.645  19.369  1.00  0.00    -0.044 A
HETATM   11  C8  UNL     1      14.427  18.636  20.175  1.00  0.00     0.010 A
HETATM   12  C10 UNL     1      12.488  17.383  19.307  1.00  0.00     0.049 C
HETATM   13  C7  UNL     1      15.291  19.736  20.246  1.00  0.00     0.031 A
HETATM   14  C6  UNL     1      15.052  20.873  19.508  1.00  0.00     0.042 A
HETATM   15  C15 UNL     1      13.917  20.837  18.715  1.00  0.00    -0.018 A
HETATM   16  C16 UNL     1      13.594  22.020  17.889  1.00  0.00     0.052 C
BRANCH  14  17
HETATM   17  N2  UNL     1      15.839  22.031  19.521  1.00  0.00    -0.325 N
HETATM   18  C5  UNL     1      17.218  22.186  19.387  1.00  0.00     0.240 C
HETATM   19  O1  UNL     1      17.936  21.140  19.212  1.00  0.00    -0.271 OA
ATOM     20  H2  UNL     1      15.321  22.900  19.650  1.00  0.00     0.169 HD
BRANCH  18  21
HETATM   21  C4  UNL     1      17.927  23.467  19.423  1.00  0.00     0.228 C
BRANCH  21  22
HETATM   22  N1  UNL     1      18.594  23.908  18.251  1.00  0.00    -0.343 N
HETATM   23  C17 UNL     1      17.795  24.163  17.078  1.00  0.00     0.220 C
HETATM   24  O3  UNL     1      16.565  24.080  17.167  1.00  0.00    -0.273 OA
BRANCH  22  25
HETATM   25  C3  UNL     1      20.028  23.989  18.159  1.00  0.00     0.126 C
BRANCH  25  26
HETATM   26  C2  UNL     1      20.794  24.927  18.977  1.00  0.00     0.015 C
HETATM   27  C1  UNL     1      20.770  26.365  18.620  1.00  0.00     0.006 C
ENDBRANCH  25  26
ENDBRANCH  22  25
BRANCH  23  28
HETATM   28  C18 UNL     1      18.415  24.519  15.784  1.00  0.00     0.112 C
BRANCH  28  29
HETATM   29  C19 UNL     1      17.995  25.895  15.313  1.00  0.00     0.112 C
BRANCH  29  30
HETATM   30  C20 UNL     1      18.565  26.088  13.949  1.00  0.00     0.223 C
HETATM   31  O4  UNL     1      18.514  25.131  13.090  1.00  0.00    -0.273 OA
HETATM   32  N5  UNL     1      19.177  27.261  13.487  1.00  0.00    -0.312 N
HETATM   33  C21 UNL     1      20.255  27.802  13.886  1.00  0.00     0.130 A
ATOM     34  H5  UNL     1      18.692  27.745  12.731  1.00  0.00     0.170 HD
HETATM   35  C22 UNL     1      21.105  27.376  14.876  1.00  0.00     0.084 A
HETATM   36  N6  UNL     1      20.818  28.954  13.411  1.00  0.00    -0.245 N
HETATM   37  C23 UNL     1      22.148  28.295  14.955  1.00  0.00     0.076 A
HETATM   38  C24 UNL     1      23.276  28.179  15.915  1.00  0.00     0.079 C
HETATM   39  O5  UNL     1      21.910  29.198  14.062  1.00  0.00    -0.241 OA
ATOM     40  H6  UNL     1      20.436  29.532  12.662  1.00  0.00     0.196 HD
ENDBRANCH  29  30
ENDBRANCH  28  29
ENDBRANCH  23  28
ENDBRANCH  21  22
ENDBRANCH  18  21
ENDBRANCH  14  17
ENDBRANCH   8   9
ENDBRANCH   7   8
ENDBRANCH   1   7
TORSDOF 11
ENDMDL