MODEL 2
REMARK VINA RESULT: -9.139122026      1.416      1.996
REMARK  12 active torsions:
REMARK  status: ('A' for Active; 'I' for Inactive)
REMARK    1  A    between atoms: C2_2  and  C3_3
REMARK       I    between atoms: C3_3  and  N1_5
REMARK    2  A    between atoms: N1_5  and  C4_7
REMARK    3  A    between atoms: C4_7  and  C5_8
REMARK    4  A    between atoms: C5_8  and  N2_9
REMARK    5  A    between atoms: N2_9  and  C6_11
REMARK    6  A    between atoms: C6_11  and  C7_12
REMARK    7  A    between atoms: C7_12  and  N3_15
REMARK    8  A    between atoms: C14_22  and  N5_23
REMARK    9  A    between atoms: C19_30  and  N7_31
REMARK   10  A    between atoms: N7_31  and  C20_33
REMARK   11  A    between atoms: C20_33  and  C21_34
REMARK   12  A    between atoms: C24_37  and  O2_38
ROOT
HETATM    1  N3  UNL     1     -15.853 -19.856 -15.797  1.00  0.00    -0.353 N
HETATM    2  C10 UNL     1     -16.398 -19.907 -14.432  1.00  0.00     0.130 C
HETATM    3  C11 UNL     1     -17.425 -18.749 -14.497  1.00  0.00     0.066 C
HETATM    4  C12 UNL     1     -17.977 -18.954 -15.857  1.00  0.00     0.032 A
HETATM    5  C13 UNL     1     -17.028 -19.624 -16.608  1.00  0.00     0.130 A
HETATM    6  N4  UNL     1     -17.349 -19.925 -17.872  1.00  0.00    -0.176 N
ATOM      7  H4  UNL     1     -16.656 -20.420 -18.435  1.00  0.00     0.186 HD
HETATM    8  C14 UNL     1     -18.532 -19.615 -18.453  1.00  0.00     0.683 A
HETATM    9  N6  UNL     1     -19.434 -18.967 -17.709  1.00  0.00    -0.176 N
ATOM     10  H6  UNL     1     -20.333 -18.720 -18.123  1.00  0.00     0.186 HD
HETATM   11  C19 UNL     1     -19.190 -18.630 -16.432  1.00  0.00     0.127 A
ENDROOT
BRANCH   1  12
HETATM   12  C7  UNL     1     -14.505 -20.045 -16.271  1.00  0.00     0.058 C
HETATM   13  C8  UNL     1     -13.467 -19.465 -15.335  1.00  0.00     0.044 C
HETATM   14  C9  UNL     1     -14.397 -19.329 -17.598  1.00  0.00     0.044 C
BRANCH  12  15
HETATM   15  C6  UNL     1     -14.237 -21.509 -16.379  1.00  0.00     0.086 C
BRANCH  15  16
HETATM   16  N2  UNL     1     -13.088 -21.983 -16.983  1.00  0.00    -0.398 N
ATOM     17  H2  UNL     1     -12.998 -21.823 -17.987  1.00  0.00     0.158 HD
BRANCH  16  18
HETATM   18  C5  UNL     1     -12.049 -22.652 -16.364  1.00  0.00     0.138 C
BRANCH  18  19
HETATM   19  C4  UNL     1     -11.397 -23.592 -17.390  1.00  0.00     0.142 C
BRANCH  19  20
HETATM   20  N1  UNL     1     -12.363 -23.980 -18.400  1.00  0.00    -0.360 N
HETATM   21  C3  UNL     1     -11.901 -24.405 -19.695  1.00  0.00     0.217 C
HETATM   22  O1  UNL     1     -10.672 -24.445 -19.963  1.00  0.00    -0.274 OA
ATOM     23  H1  UNL     1     -13.361 -23.952 -18.194  1.00  0.00     0.162 HD
BRANCH  21  24
HETATM   24  C2  UNL     1     -12.863 -24.806 -20.747  1.00  0.00     0.098 C
HETATM   25  C1  UNL     1     -14.262 -24.398 -20.363  1.00  0.00     0.014 C
ENDBRANCH  21  24
ENDBRANCH  19  20
ENDBRANCH  18  19
ENDBRANCH  16  18
ENDBRANCH  15  16
ENDBRANCH  12  15
ENDBRANCH   1  12
BRANCH  11  26
HETATM   26  N7  UNL     1     -20.051 -18.006 -15.710  1.00  0.00    -0.371 N
ATOM     27  H7  UNL     1     -20.845 -18.514 -15.321  1.00  0.00     0.161 HD
BRANCH  26  28
HETATM   28  C20 UNL     1     -19.905 -16.587 -15.444  1.00  0.00     0.160 C
BRANCH  28  29
HETATM   29  C21 UNL     1     -21.237 -15.957 -15.682  1.00  0.00    -0.034 A
HETATM   30  C22 UNL     1     -22.028 -16.306 -16.755  1.00  0.00     0.012 A
HETATM   31  C23 UNL     1     -23.257 -15.731 -16.984  1.00  0.00     0.037 A
HETATM   32  C24 UNL     1     -23.727 -14.765 -16.109  1.00  0.00     0.068 A
HETATM   33  C26 UNL     1     -22.949 -14.404 -15.029  1.00  0.00     0.044 A
HETATM   34  C27 UNL     1     -21.722 -15.000 -14.831  1.00  0.00    -0.051 A
HETATM   35  C28 UNL     1     -20.895 -14.607 -13.671  1.00  0.00     0.049 C
BRANCH  32  36
HETATM   36  O2  UNL     1     -24.954 -14.154 -16.290  1.00  0.00    -0.356 OA
HETATM   37  C25 UNL     1     -25.173 -12.874 -15.775  1.00  0.00     0.210 C
ENDBRANCH  32  36
ENDBRANCH  28  29
ENDBRANCH  26  28
ENDBRANCH  11  26
BRANCH   8  38
HETATM   38  N5  UNL     1     -18.789 -19.974 -19.808  1.00  0.00    -0.217 N
HETATM   39  C15 UNL     1     -19.712 -19.257 -20.665  1.00  0.00     0.141 C
HETATM   40  C16 UNL     1     -20.483 -20.431 -21.278  1.00  0.00     0.022 C
HETATM   41  C17 UNL     1     -19.321 -21.372 -21.616  1.00  0.00     0.022 C
HETATM   42  C18 UNL     1     -18.250 -21.039 -20.593  1.00  0.00     0.141 C
ENDBRANCH   8  38
TORSDOF 12
ENDMDL