MODEL 2
REMARK VINA RESULT: -9.068366532      1.147      2.709
REMARK  11 active torsions:
REMARK  status: ('A' for Active; 'I' for Inactive)
REMARK    1  A    between atoms: C2_2  and  C3_3
REMARK    2  A    between atoms: N2_7  and  C5_9
REMARK    3  A    between atoms: C5_9  and  C6_10
REMARK    4  A    between atoms: C6_10  and  N3_11
REMARK    5  A    between atoms: N3_11  and  C7_12
REMARK       I    between atoms: N3_11  and  C13_21
REMARK    6  A    between atoms: C7_12  and  C8_13
REMARK    7  A    between atoms: C8_13  and  C9_14
REMARK       I    between atoms: C9_14  and  N4_16
REMARK    8  A    between atoms: N4_16  and  C10_18
REMARK       I    between atoms: C13_21  and  N5_23
REMARK    9  A    between atoms: N5_23  and  C14_25
REMARK   10  A    between atoms: C20_33  and  N7_34
REMARK   11  A    between atoms: C24_38  and  N8_39
ROOT
HETATM    1  C6  UNL     1     -14.956 -19.909 -15.747  1.00  0.00     0.147 C
ENDROOT
BRANCH   1   2
HETATM    2  C5  UNL     1     -16.428 -20.246 -15.821  1.00  0.00     0.158 C
BRANCH   2   3
HETATM    3  N2  UNL     1     -17.280 -19.250 -15.252  1.00  0.00    -0.224 N
HETATM    4  C4  UNL     1     -18.137 -18.607 -15.953  1.00  0.00     0.680 A
HETATM    5  N1  UNL     1     -18.311 -18.801 -17.252  1.00  0.00    -0.193 N
HETATM    6  N6  UNL     1     -18.921 -17.663 -15.340  1.00  0.00    -0.174 N
HETATM    7  C3  UNL     1     -19.219 -18.123 -18.024  1.00  0.00     0.063 A
ATOM      8  H1  UNL     1     -17.729 -19.503 -17.710  1.00  0.00     0.184 HD
HETATM    9  C24 UNL     1     -19.990 -17.183 -17.373  1.00  0.00     0.170 A
HETATM   10  C20 UNL     1     -19.828 -16.957 -16.001  1.00  0.00     0.154 A
ATOM     11  H6  UNL     1     -18.802 -17.498 -14.340  1.00  0.00     0.186 HD
ATOM     12  H2  UNL     1     -17.203 -19.045 -14.256  1.00  0.00     0.177 HD
BRANCH   7  13
HETATM   13  C2  UNL     1     -19.337 -18.421 -19.472  1.00  0.00     0.056 C
HETATM   14  C1  UNL     1     -18.090 -18.990 -20.072  1.00  0.00     0.011 C
ENDBRANCH   7  13
BRANCH   9  15
HETATM   15  N8  UNL     1     -20.913 -16.452 -18.136  1.00  0.00    -0.110 N
HETATM   16  O3  UNL     1     -22.002 -16.919 -18.499  1.00  0.00    -0.532 OA
HETATM   17  O4  UNL     1     -20.669 -15.140 -18.543  1.00  0.00    -0.532 OA
ENDBRANCH   9  15
BRANCH  10  18
HETATM   18  N7  UNL     1     -20.651 -15.982 -15.388  1.00  0.00    -0.365 N
HETATM   19  C21 UNL     1     -22.063 -15.865 -15.148  1.00  0.00     0.126 C
HETATM   20  C22 UNL     1     -21.906 -14.343 -15.150  1.00  0.00     0.040 C
HETATM   21  C23 UNL     1     -20.491 -14.682 -14.734  1.00  0.00     0.126 C
ENDBRANCH  10  18
ENDBRANCH   2   3
ENDBRANCH   1   2
BRANCH   1  22
HETATM   22  N3  UNL     1     -14.242 -21.188 -15.944  1.00  0.00    -0.332 N
HETATM   23  C13 UNL     1     -13.900 -21.641 -17.229  1.00  0.00     0.318 C
HETATM   24  O2  UNL     1     -14.187 -20.958 -18.236  1.00  0.00    -0.247 OA
HETATM   25  N5  UNL     1     -13.234 -22.863 -17.420  1.00  0.00    -0.338 N
ATOM     26  H5  UNL     1     -13.000 -23.422 -16.599  1.00  0.00     0.164 HD
BRANCH  22  27
HETATM   27  C7  UNL     1     -13.881 -21.973 -14.776  1.00  0.00     0.136 C
BRANCH  27  28
HETATM   28  C8  UNL     1     -12.456 -21.694 -14.382  1.00  0.00     0.122 C
BRANCH  28  29
HETATM   29  C9  UNL     1     -11.902 -22.747 -13.510  1.00  0.00     0.219 C
HETATM   30  O1  UNL     1     -10.740 -22.674 -13.010  1.00  0.00    -0.274 OA
HETATM   31  N4  UNL     1     -12.678 -23.891 -13.208  1.00  0.00    -0.356 N
ATOM     32  H4  UNL     1     -13.616 -23.969 -13.601  1.00  0.00     0.162 HD
BRANCH  31  33
HETATM   33  C10 UNL     1     -12.182 -24.965 -12.353  1.00  0.00     0.084 A
HETATM   34  C11 UNL     1     -13.128 -26.125 -12.122  1.00  0.00     0.027 A
HETATM   35  C12 UNL     1     -11.866 -26.286 -12.933  1.00  0.00     0.027 A
ENDBRANCH  31  33
ENDBRANCH  28  29
ENDBRANCH  27  28
ENDBRANCH  22  27
BRANCH  25  36
HETATM   36  C14 UNL     1     -12.862 -23.368 -18.734  1.00  0.00     0.086 C
HETATM   37  C15 UNL     1     -11.675 -24.318 -18.629  1.00  0.00     0.025 C
HETATM   38  C16 UNL     1     -11.244 -24.658 -20.049  1.00  0.00     0.002 C
HETATM   39  C17 UNL     1     -12.376 -25.432 -20.692  1.00  0.00     0.000 C
HETATM   40  C18 UNL     1     -13.671 -24.656 -20.664  1.00  0.00     0.002 C
HETATM   41  C19 UNL     1     -14.021 -24.171 -19.295  1.00  0.00     0.025 C
ENDBRANCH  25  36
ENDBRANCH   1  22
TORSDOF 11
ENDMDL