MODEL 1
REMARK VINA RESULT: -8.693070626      0.000      0.000
REMARK  12 active torsions:
REMARK  status: ('A' for Active; 'I' for Inactive)
REMARK    1  A    between atoms: C2_2  and  N1_3
REMARK    2  A    between atoms: N1_3  and  C4_5
REMARK    3  A    between atoms: C4_5  and  C5_6
REMARK    4  A    between atoms: C5_6  and  C6_7
REMARK    5  A    between atoms: C6_7  and  N2_8
REMARK    6  A    between atoms: N2_8  and  S1_10
REMARK    7  A    between atoms: S1_10  and  C7_13
REMARK    8  A    between atoms: C12_18  and  N3_19
REMARK       I    between atoms: N3_19  and  C13_21
REMARK    9  A    between atoms: C13_21  and  C14_23
REMARK   10  A    between atoms: C14_23  and  C15_24
REMARK   11  A    between atoms: C15_24  and  C16_25
REMARK       I    between atoms: C16_25  and  N4_27
REMARK   12  A    between atoms: N4_27  and  C17_29
ROOT
HETATM    1  C7  UNL     1     -18.694 -18.924 -19.616  1.00  0.00     0.087 A
HETATM    2  C8  UNL     1     -18.582 -19.825 -20.598  1.00  0.00     0.026 A
HETATM    3  C9  UNL     1     -17.642 -20.861 -20.477  1.00  0.00     0.011 A
HETATM    4  C10 UNL     1     -16.867 -20.897 -19.328  1.00  0.00    -0.035 A
HETATM    5  C11 UNL     1     -15.876 -22.020 -19.248  1.00  0.00     0.050 C
HETATM    6  C12 UNL     1     -17.012 -19.962 -18.355  1.00  0.00     0.048 A
HETATM    7  C22 UNL     1     -17.944 -18.961 -18.509  1.00  0.00    -0.011 A
HETATM    8  C23 UNL     1     -18.151 -17.902 -17.460  1.00  0.00     0.052 C
ENDROOT
BRANCH   6   9
HETATM    9  N3  UNL     1     -16.226 -20.006 -17.188  1.00  0.00    -0.326 N
HETATM   10  C13 UNL     1     -14.910 -19.525 -17.167  1.00  0.00     0.222 C
HETATM   11  O3  UNL     1     -14.316 -19.016 -18.142  1.00  0.00    -0.273 OA
ATOM     12  H3  UNL     1     -16.625 -20.398 -16.335  1.00  0.00     0.169 HD
BRANCH  10  13
HETATM   13  C14 UNL     1     -14.137 -19.615 -15.890  1.00  0.00     0.112 C
BRANCH  13  14
HETATM   14  C15 UNL     1     -13.847 -21.031 -15.472  1.00  0.00     0.112 C
BRANCH  14  15
HETATM   15  C16 UNL     1     -14.637 -21.335 -14.259  1.00  0.00     0.224 C
HETATM   16  O4  UNL     1     -15.905 -21.133 -14.344  1.00  0.00    -0.273 OA
HETATM   17  N4  UNL     1     -14.145 -21.819 -13.042  1.00  0.00    -0.307 N
ATOM     18  H4  UNL     1     -14.332 -21.317 -12.174  1.00  0.00     0.171 HD
BRANCH  17  19
HETATM   19  C17 UNL     1     -13.440 -22.927 -13.032  1.00  0.00     0.151 A
HETATM   20  N5  UNL     1     -13.801 -24.080 -12.448  1.00  0.00    -0.339 N
HETATM   21  C18 UNL     1     -12.999 -25.096 -12.516  1.00  0.00     0.020 A
ATOM     22  H5  UNL     1     -14.692 -24.156 -11.959  1.00  0.00     0.168 HD
HETATM   23  C19 UNL     1     -13.307 -26.452 -11.888  1.00  0.00     0.069 C
HETATM   24  C20 UNL     1     -11.811 -24.932 -13.188  1.00  0.00     0.004 A
HETATM   25  C21 UNL     1     -10.720 -25.955 -13.398  1.00  0.00     0.058 C
HETATM   26  S2  UNL     1     -11.915 -23.307 -13.695  1.00  0.00    -0.057 SA
ENDBRANCH  17  19
ENDBRANCH  14  15
ENDBRANCH  13  14
ENDBRANCH  10  13
ENDBRANCH   6   9
BRANCH   1  27
HETATM   27  S1  UNL     1     -20.157 -17.472 -19.830  1.00  0.00     0.259 S
HETATM   28  O1  UNL     1     -21.245 -19.417 -19.927  1.00  0.00    -0.201 OA
HETATM   29  O2  UNL     1     -20.997 -17.560 -21.425  1.00  0.00    -0.201 OA
BRANCH  27  30
HETATM   30  N2  UNL     1     -21.258 -17.552 -18.232  1.00  0.00    -0.315 N
ATOM     31  H2  UNL     1     -21.487 -18.408 -17.728  1.00  0.00     0.172 HD
BRANCH  30  32
HETATM   32  C6  UNL     1     -21.707 -16.239 -17.858  1.00  0.00     0.134 C
BRANCH  32  33
HETATM   33  C5  UNL     1     -20.917 -15.722 -16.696  1.00  0.00     0.050 C
BRANCH  33  34
HETATM   34  C4  UNL     1     -21.658 -16.086 -15.425  1.00  0.00     0.273 C
BRANCH  34  35
HETATM   35  N1  UNL     1     -20.731 -16.666 -14.497  1.00  0.00     0.083 N
HETATM   36  C3  UNL     1     -20.562 -18.091 -14.678  1.00  0.00     0.309 C
BRANCH  35  37
HETATM   37  C2  UNL     1     -19.455 -15.978 -14.475  1.00  0.00     0.267 C
HETATM   38  C1  UNL     1     -18.361 -16.824 -13.894  1.00  0.00     0.037 C
ENDBRANCH  35  37
ENDBRANCH  34  35
ENDBRANCH  33  34
ENDBRANCH  32  33
ENDBRANCH  30  32
ENDBRANCH  27  30
ENDBRANCH   1  27
TORSDOF 12
ENDMDL