MODEL 2
REMARK VINA RESULT: -8.245496018      1.859      3.210
REMARK  13 active torsions:
REMARK  status: ('A' for Active; 'I' for Inactive)
REMARK    1  A    between atoms: C2_2  and  C3_3
REMARK    2  A    between atoms: C3_3  and  C4_4
REMARK    3  A    between atoms: C4_4  and  C5_5
REMARK    4  A    between atoms: C5_5  and  C6_6
REMARK    5  A    between atoms: N1_9  and  C9_10
REMARK    6  A    between atoms: C9_10  and  C10_11
REMARK    7  A    between atoms: C10_11  and  N2_12
REMARK    8  A    between atoms: C17_24  and  N5_25
REMARK    9  A    between atoms: N5_25  and  C18_27
REMARK   10  A    between atoms: C18_27  and  C19_28
REMARK   11  A    between atoms: C19_28  and  C20_29
REMARK   12  A    between atoms: C20_29  and  C21_30
REMARK   13  A    between atoms: C21_30  and  N6_31
ROOT
HETATM    1  N2  UNL     1     -16.200 -19.570 -18.464  1.00  0.00    -0.321 N
HETATM    2  C11 UNL     1     -15.459 -19.305 -17.395  1.00  0.00     0.102 A
HETATM    3  C12 UNL     1     -14.423 -20.084 -16.909  1.00  0.00    -0.034 A
HETATM    4  C13 UNL     1     -13.758 -19.571 -15.707  1.00  0.00     0.050 C
HETATM    5  C14 UNL     1     -14.100 -21.279 -17.587  1.00  0.00     0.011 A
HETATM    6  C15 UNL     1     -14.878 -21.531 -18.688  1.00  0.00     0.087 A
HETATM    7  S1  UNL     1     -14.270 -23.007 -19.287  1.00  0.00    -0.064 SA
HETATM    8  C16 UNL     1     -13.048 -23.282 -18.144  1.00  0.00     0.104 A
HETATM    9  N3  UNL     1     -12.057 -24.153 -17.778  1.00  0.00    -0.291 N
ATOM     10  H3  UNL     1     -11.804 -25.023 -18.247  1.00  0.00     0.187 HD
HETATM   11  N4  UNL     1     -11.506 -23.653 -16.719  1.00  0.00    -0.284 N
ATOM     12  H4  UNL     1     -10.731 -24.079 -16.211  1.00  0.00     0.188 HD
HETATM   13  C17 UNL     1     -12.109 -22.473 -16.374  1.00  0.00     0.130 A
HETATM   14  C22 UNL     1     -13.133 -22.205 -17.300  1.00  0.00     0.056 A
HETATM   15  C23 UNL     1     -15.917 -20.694 -19.130  1.00  0.00     0.265 A
HETATM   16  O1  UNL     1     -16.537 -21.064 -20.155  1.00  0.00    -0.266 OA
ENDROOT
BRANCH   1  17
HETATM   17  C10 UNL     1     -17.274 -18.726 -18.928  1.00  0.00     0.152 C
BRANCH  17  18
HETATM   18  C9  UNL     1     -18.625 -19.337 -18.619  1.00  0.00     0.152 C
BRANCH  18  19
HETATM   19  N1  UNL     1     -19.437 -18.436 -17.829  1.00  0.00    -0.322 N
HETATM   20  C7  UNL     1     -19.417 -18.337 -16.487  1.00  0.00     0.033 A
HETATM   21  C6  UNL     1     -20.328 -17.364 -16.138  1.00  0.00     0.036 A
HETATM   22  C8  UNL     1     -18.562 -19.136 -15.546  1.00  0.00     0.070 C
HETATM   23  N8  UNL     1     -20.899 -16.875 -17.249  1.00  0.00    -0.327 N
HETATM   24  C24 UNL     1     -20.336 -17.550 -18.294  1.00  0.00     0.197 A
HETATM   25  C25 UNL     1     -21.911 -15.841 -17.398  1.00  0.00     0.159 C
HETATM   26  N7  UNL     1     -20.658 -17.343 -19.667  1.00  0.00    -0.063 NA
BRANCH  21  27
HETATM   27  C5  UNL     1     -20.624 -16.938 -14.765  1.00  0.00     0.059 C
BRANCH  27  28
HETATM   28  C4  UNL     1     -19.738 -15.828 -14.281  1.00  0.00     0.006 C
BRANCH  28  29
HETATM   29  C3  UNL     1     -20.234 -14.451 -14.559  1.00  0.00     0.000 C
BRANCH  29  30
HETATM   30  C2  UNL     1     -21.484 -14.262 -13.685  1.00  0.00    -0.005 C
HETATM   31  C1  UNL     1     -22.556 -13.566 -14.481  1.00  0.00     0.005 C
ENDBRANCH  29  30
ENDBRANCH  28  29
ENDBRANCH  27  28
ENDBRANCH  21  27
ENDBRANCH  18  19
ENDBRANCH  17  18
ENDBRANCH   1  17
BRANCH  13  32
HETATM   32  N5  UNL     1     -11.688 -21.855 -15.350  1.00  0.00    -0.374 N
ATOM     33  H5  UNL     1     -11.314 -20.918 -15.497  1.00  0.00     0.161 HD
BRANCH  32  34
HETATM   34  C18 UNL     1     -11.687 -22.351 -14.004  1.00  0.00     0.121 C
BRANCH  34  35
HETATM   35  C19 UNL     1     -13.067 -22.802 -13.637  1.00  0.00     0.021 C
BRANCH  35  36
HETATM   36  C20 UNL     1     -13.065 -24.128 -12.909  1.00  0.00     0.029 C
BRANCH  36  37
HETATM   37  C21 UNL     1     -11.694 -24.714 -12.768  1.00  0.00     0.229 C
BRANCH  37  38
HETATM   38  N6  UNL     1     -11.546 -25.823 -13.688  1.00  0.00    -0.079 N
ATOM     39  H63 UNL     1     -12.394 -26.386 -13.751  1.00  0.00     0.274 HD
ATOM     40  H62 UNL     1     -11.502 -25.515 -14.659  1.00  0.00     0.274 HD
ATOM     41  H61 UNL     1     -10.733 -26.378 -13.422  1.00  0.00     0.274 HD
ENDBRANCH  37  38
ENDBRANCH  36  37
ENDBRANCH  35  36
ENDBRANCH  34  35
ENDBRANCH  32  34
ENDBRANCH  13  32
TORSDOF 13
ENDMDL