MODEL 5
REMARK VINA RESULT: -9.029734724      2.573      6.470
REMARK  11 active torsions:
REMARK  status: ('A' for Active; 'I' for Inactive)
REMARK    1  A    between atoms: C2_2  and  C3_3
REMARK    2  A    between atoms: C3_3  and  C4_4
REMARK    3  A    between atoms: C4_4  and  C5_5
REMARK    4  A    between atoms: C7_7  and  C8_8
REMARK    5  A    between atoms: N1_9  and  N2_11
REMARK    6  A    between atoms: C12_18  and  N5_19
REMARK    7  A    between atoms: N7_28  and  C18_29
REMARK    8  A    between atoms: C18_29  and  C19_30
REMARK    9  A    between atoms: C19_30  and  C20_31
REMARK   10  A    between atoms: C20_31  and  C21_32
REMARK   11  A    between atoms: C21_32  and  N8_33
ROOT
HETATM    1  N5  UNL     1     -19.321 -17.125 -17.068  1.00  0.00    -0.191 N
ATOM      2  H5  UNL     1     -18.340 -17.133 -16.789  1.00  0.00     0.184 HD
HETATM    3  C13 UNL     1     -19.612 -17.919 -18.019  1.00  0.00     0.684 A
HETATM    4  N6  UNL     1     -18.619 -18.695 -18.574  1.00  0.00    -0.175 N
ATOM      5  H6  UNL     1     -17.665 -18.639 -18.219  1.00  0.00     0.186 HD
HETATM    6  C14 UNL     1     -18.916 -19.526 -19.583  1.00  0.00     0.134 A
HETATM    7  C15 UNL     1     -20.202 -19.603 -20.063  1.00  0.00     0.026 A
HETATM    8  C16 UNL     1     -20.173 -20.530 -21.090  1.00  0.00     0.034 A
HETATM    9  C17 UNL     1     -18.891 -20.963 -21.182  1.00  0.00     0.093 A
HETATM   10  N7  UNL     1     -18.096 -20.376 -20.281  1.00  0.00    -0.342 N
HETATM   11  C27 UNL     1     -21.203 -18.807 -19.488  1.00  0.00     0.121 A
HETATM   12  N10 UNL     1     -20.864 -17.992 -18.483  1.00  0.00    -0.201 N
ATOM     13  H10 UNL     1     -21.583 -17.409 -18.056  1.00  0.00     0.183 HD
ENDROOT
BRANCH   1  14
HETATM   14  C12 UNL     1     -20.131 -16.243 -16.345  1.00  0.00     0.055 A
HETATM   15  C5  UNL     1     -19.898 -15.790 -15.078  1.00  0.00    -0.030 A
HETATM   16  C6  UNL     1     -20.738 -14.915 -14.450  1.00  0.00     0.022 A
HETATM   17  C7  UNL     1     -21.856 -14.447 -15.062  1.00  0.00    -0.019 A
HETATM   18  C10 UNL     1     -22.141 -14.875 -16.352  1.00  0.00     0.015 A
HETATM   19  C11 UNL     1     -21.291 -15.757 -16.977  1.00  0.00     0.031 A
BRANCH  15  20
HETATM   20  C4  UNL     1     -18.687 -16.265 -14.382  1.00  0.00     0.041 C
BRANCH  20  21
HETATM   21  C3  UNL     1     -18.752 -17.659 -13.867  1.00  0.00     0.004 C
BRANCH  21  22
HETATM   22  C2  UNL     1     -17.742 -18.563 -14.507  1.00  0.00    -0.004 C
HETATM   23  C1  UNL     1     -16.728 -17.733 -15.267  1.00  0.00     0.005 C
ENDBRANCH  21  22
ENDBRANCH  20  21
ENDBRANCH  15  20
BRANCH  17  24
HETATM   24  C8  UNL     1     -22.769 -13.510 -14.360  1.00  0.00     0.118 C
HETATM   25  N1  UNL     1     -23.733 -13.090 -14.952  1.00  0.00    -0.309 N
ATOM     26  H1  UNL     1     -23.618 -13.557 -15.851  1.00  0.00     0.186 HD
BRANCH  25  27
HETATM   27  N2  UNL     1     -24.826 -12.419 -15.170  1.00  0.00    -0.276 N
HETATM   28  C9  UNL     1     -25.890 -12.756 -15.808  1.00  0.00     0.215 C
HETATM   29  N3  UNL     1     -25.964 -14.050 -16.393  1.00  0.00    -0.065 NA
HETATM   30  N4  UNL     1     -26.944 -11.839 -15.915  1.00  0.00    -0.065 NA
ATOM     31  H2  UNL     1     -24.840 -11.479 -14.775  1.00  0.00     0.189 HD
ENDBRANCH  25  27
ENDBRANCH  17  24
ENDBRANCH   1  14
BRANCH  10  32
HETATM   32  C18 UNL     1     -16.684 -20.533 -20.002  1.00  0.00     0.130 C
BRANCH  32  33
HETATM   33  C19 UNL     1     -16.397 -21.526 -18.931  1.00  0.00     0.022 C
BRANCH  33  34
HETATM   34  C20 UNL     1     -14.993 -21.983 -18.793  1.00  0.00     0.032 C
BRANCH  34  35
HETATM   35  C21 UNL     1     -14.616 -22.419 -17.415  1.00  0.00     0.272 C
BRANCH  35  36
HETATM   36  N8  UNL     1     -13.682 -21.484 -16.816  1.00  0.00     0.091 N
HETATM   37  C22 UNL     1     -12.809 -22.223 -15.947  1.00  0.00     0.302 C
HETATM   38  C23 UNL     1     -13.397 -22.404 -14.557  1.00  0.00     0.302 C
HETATM   39  N9  UNL     1     -13.693 -21.122 -13.999  1.00  0.00     0.087 N
HETATM   40  C24 UNL     1     -15.017 -21.071 -13.415  1.00  0.00     0.310 C
HETATM   41  C25 UNL     1     -13.561 -20.028 -14.922  1.00  0.00     0.302 C
HETATM   42  C26 UNL     1     -14.329 -20.383 -16.174  1.00  0.00     0.302 C
ENDBRANCH  35  36
ENDBRANCH  34  35
ENDBRANCH  33  34
ENDBRANCH  32  33
ENDBRANCH  10  32
TORSDOF 11
ENDMDL