MODEL 3
REMARK VINA RESULT: -8.335421212      1.675      3.056
REMARK  14 active torsions:
REMARK  status: ('A' for Active; 'I' for Inactive)
REMARK    1  A    between atoms: N1_2  and  C2_4
REMARK    2  A    between atoms: C2_4  and  C3_5
REMARK    3  A    between atoms: C5_8  and  C6_9
REMARK    4  A    between atoms: C6_9  and  N2_10
REMARK    5  A    between atoms: N2_10  and  C7_12
REMARK    6  A    between atoms: C7_12  and  C8_13
REMARK    7  A    between atoms: C7_12  and  N5_33
REMARK    8  A    between atoms: C8_13  and  C9_14
REMARK    9  A    between atoms: C9_14  and  C10_15
REMARK   10  A    between atoms: C10_15  and  C11_16
REMARK       I    between atoms: C11_16  and  N3_18
REMARK   11  A    between atoms: N3_18  and  C12_20
REMARK   12  A    between atoms: C12_20  and  C13_21
REMARK   13  A    between atoms: C14_22  and  N4_23
REMARK   14  A    between atoms: N5_33  and  C21_34
ROOT
HETATM    1  C8  UNL     1     -19.031 -19.576 -16.525  1.00  0.00     0.092 C
ENDROOT
BRANCH   1   2
HETATM    2  C7  UNL     1     -19.208 -18.777 -17.792  1.00  0.00     0.145 C
BRANCH   2   3
HETATM    3  N2  UNL     1     -19.170 -17.356 -17.600  1.00  0.00    -0.364 N
ATOM      4  H2  UNL     1     -18.284 -16.916 -17.347  1.00  0.00     0.162 HD
BRANCH   3   5
HETATM    5  C6  UNL     1     -20.341 -16.527 -17.752  1.00  0.00     0.168 C
BRANCH   5   6
HETATM    6  C5  UNL     1     -20.626 -15.856 -16.430  1.00  0.00     0.001 A
HETATM    7  S1  UNL     1     -19.799 -16.001 -14.951  1.00  0.00    -0.104 SA
HETATM    8  C4  UNL     1     -20.739 -14.943 -14.003  1.00  0.00     0.058 A
HETATM    9  C3  UNL     1     -21.696 -14.494 -14.887  1.00  0.00    -0.033 A
HETATM   10  C25 UNL     1     -21.629 -14.970 -16.135  1.00  0.00     0.025 A
BRANCH   9  11
HETATM   11  C2  UNL     1     -22.755 -13.506 -14.414  1.00  0.00     0.152 C
BRANCH  11  12
HETATM   12  N1  UNL     1     -23.630 -13.145 -15.481  1.00  0.00    -0.422 N
HETATM   13  C1  UNL     1     -24.987 -13.526 -15.326  1.00  0.00     0.140 C
ATOM     14  H1  UNL     1     -23.300 -12.643 -16.305  1.00  0.00     0.153 HD
ENDBRANCH  11  12
ENDBRANCH   9  11
ENDBRANCH   5   6
ENDBRANCH   3   5
ENDBRANCH   2   3
BRANCH   2  15
HETATM   15  N5  UNL     1     -19.359 -19.275 -18.848  1.00  0.00    -0.425 NA
BRANCH  15  16
HETATM   16  C21 UNL     1     -19.517 -19.744 -20.095  1.00  0.00     0.084 C
HETATM   17  C22 UNL     1     -18.678 -18.918 -21.093  1.00  0.00     0.053 C
HETATM   18  C23 UNL     1     -20.988 -19.574 -20.529  1.00  0.00     0.053 C
HETATM   19  C24 UNL     1     -19.128 -21.203 -20.328  1.00  0.00     0.053 C
ENDBRANCH  15  16
ENDBRANCH   2  15
ENDBRANCH   1   2
BRANCH   1  20
HETATM   20  C9  UNL     1     -17.546 -19.928 -16.343  1.00  0.00     0.018 C
BRANCH  20  21
HETATM   21  C10 UNL     1     -17.397 -21.312 -16.947  1.00  0.00     0.103 C
BRANCH  21  22
HETATM   22  C11 UNL     1     -16.282 -21.396 -17.902  1.00  0.00     0.217 C
HETATM   23  O1  UNL     1     -16.018 -20.442 -18.674  1.00  0.00    -0.274 OA
HETATM   24  N3  UNL     1     -15.492 -22.581 -17.943  1.00  0.00    -0.357 N
ATOM     25  H3  UNL     1     -15.694 -23.364 -17.321  1.00  0.00     0.162 HD
BRANCH  24  26
HETATM   26  C12 UNL     1     -14.392 -22.653 -18.890  1.00  0.00     0.167 C
BRANCH  26  27
HETATM   27  C13 UNL     1     -13.114 -22.839 -18.147  1.00  0.00     0.045 A
HETATM   28  C14 UNL     1     -12.721 -22.494 -16.878  1.00  0.00     0.103 A
HETATM   29  C19 UNL     1     -11.473 -23.075 -17.135  1.00  0.00     0.249 A
HETATM   30  O3  UNL     1     -10.425 -23.221 -16.478  1.00  0.00    -0.282 OA
HETATM   31  C20 UNL     1     -11.886 -23.409 -18.398  1.00  0.00     0.234 A
HETATM   32  O4  UNL     1     -11.370 -23.990 -19.376  1.00  0.00    -0.283 OA
BRANCH  28  33
HETATM   33  N4  UNL     1     -13.259 -21.827 -15.737  1.00  0.00    -0.314 N
HETATM   34  C15 UNL     1     -13.708 -20.446 -15.766  1.00  0.00     0.133 C
HETATM   35  C16 UNL     1     -14.016 -20.095 -14.360  1.00  0.00     0.029 C
HETATM   36  C17 UNL     1     -14.431 -21.432 -13.748  1.00  0.00     0.105 C
HETATM   37  C18 UNL     1     -13.452 -22.345 -14.444  1.00  0.00     0.224 C
HETATM   38  O2  UNL     1     -12.953 -23.344 -13.914  1.00  0.00    -0.273 OA
ENDBRANCH  28  33
ENDBRANCH  26  27
ENDBRANCH  24  26
ENDBRANCH  21  22
ENDBRANCH  20  21
ENDBRANCH   1  20
TORSDOF 14
ENDMDL