MODEL 1
REMARK VINA RESULT: -9.554902095      0.000      0.000
REMARK  12 active torsions:
REMARK  status: ('A' for Active; 'I' for Inactive)
REMARK    1  A    between atoms: C1_2  and  C2_4
REMARK    2  A    between atoms: C2_4  and  C3_5
REMARK    3  A    between atoms: C3_5  and  C4_6
REMARK       I    between atoms: C4_6  and  N2_8
REMARK    4  A    between atoms: C11_15  and  N3_16
REMARK    5  A    between atoms: N3_16  and  C12_18
REMARK    6  A    between atoms: C14_20  and  N4_21
REMARK    7  A    between atoms: N4_21  and  C15_23
REMARK    8  A    between atoms: C15_23  and  C16_24
REMARK    9  A    between atoms: C16_24  and  C17_25
REMARK   10  A    between atoms: C17_25  and  C18_26
REMARK   11  A    between atoms: C18_26  and  C19_27
REMARK   12  A    between atoms: C19_27  and  N5_28
ROOT
HETATM    1  C12 UNL     1     -14.590 -19.450 -16.475  1.00  0.00     0.125 A
HETATM    2  C13 UNL     1     -14.691 -20.729 -17.014  1.00  0.00     0.099 A
HETATM    3  C14 UNL     1     -13.760 -21.684 -16.700  1.00  0.00     0.120 A
HETATM    4  N6  UNL     1     -12.718 -21.424 -15.864  1.00  0.00    -0.271 N
ATOM      5  H6  UNL     1     -12.025 -22.136 -15.631  1.00  0.00     0.190 HD
HETATM    6  N7  UNL     1     -12.654 -20.204 -15.374  1.00  0.00    -0.240 N
ATOM      7  H7  UNL     1     -11.885 -19.975 -14.744  1.00  0.00     0.208 HD
HETATM    8  N8  UNL     1     -13.553 -19.243 -15.663  1.00  0.00    -0.271 N
ATOM      9  H8  UNL     1     -13.435 -18.321 -15.243  1.00  0.00     0.190 HD
ENDROOT
BRANCH   1  10
HETATM   10  N3  UNL     1     -15.523 -18.452 -16.815  1.00  0.00    -0.341 N
ATOM     11  H3  UNL     1     -15.218 -17.790 -17.530  1.00  0.00     0.167 HD
BRANCH  10  12
HETATM   12  C11 UNL     1     -16.819 -18.240 -16.306  1.00  0.00     0.035 A
HETATM   13  C10 UNL     1     -17.182 -18.207 -14.982  1.00  0.00     0.030 A
HETATM   14  C9  UNL     1     -18.484 -17.963 -14.546  1.00  0.00     0.012 A
HETATM   15  C8  UNL     1     -19.486 -17.742 -15.461  1.00  0.00    -0.031 A
HETATM   16  C7  UNL     1     -20.887 -17.475 -15.114  1.00  0.00     0.042 C
HETATM   17  C25 UNL     1     -19.145 -17.772 -16.800  1.00  0.00     0.045 A
HETATM   18  C6  UNL     1     -21.572 -16.498 -15.998  1.00  0.00     0.025 C
HETATM   19  C5  UNL     1     -21.199 -16.531 -17.440  1.00  0.00     0.132 C
HETATM   20  N2  UNL     1     -20.180 -17.536 -17.752  1.00  0.00    -0.317 N
HETATM   21  C4  UNL     1     -20.193 -18.276 -18.943  1.00  0.00     0.224 C
HETATM   22  O1  UNL     1     -19.390 -19.177 -19.188  1.00  0.00    -0.273 OA
HETATM   23  C24 UNL     1     -17.858 -18.012 -17.225  1.00  0.00     0.059 A
BRANCH  21  24
HETATM   24  C3  UNL     1     -21.227 -17.955 -19.957  1.00  0.00     0.110 C
BRANCH  24  25
HETATM   25  C2  UNL     1     -22.020 -19.187 -20.344  1.00  0.00     0.076 C
BRANCH  25  26
HETATM   26  C1  UNL     1     -23.395 -18.838 -20.778  1.00  0.00     0.091 C
HETATM   27  N1  UNL     1     -23.561 -18.116 -21.975  1.00  0.00    -0.095 NA
HETATM   28  S1  UNL     1     -24.719 -19.258 -19.923  1.00  0.00    -0.069 SA
ENDBRANCH  25  26
ENDBRANCH  24  25
ENDBRANCH  21  24
ENDBRANCH  10  12
ENDBRANCH   1  10
BRANCH   3  29
HETATM   29  N4  UNL     1     -13.838 -22.876 -17.184  1.00  0.00    -0.375 N
ATOM     30  H4  UNL     1     -13.276 -23.598 -16.733  1.00  0.00     0.161 HD
BRANCH  29  31
HETATM   31  C15 UNL     1     -14.643 -23.275 -18.299  1.00  0.00     0.121 C
BRANCH  31  32
HETATM   32  C16 UNL     1     -13.881 -23.165 -19.605  1.00  0.00     0.020 C
BRANCH  32  33
HETATM   33  C17 UNL     1     -13.986 -24.410 -20.426  1.00  0.00     0.003 C
BRANCH  33  34
HETATM   34  C18 UNL     1     -12.673 -24.956 -20.877  1.00  0.00     0.020 C
BRANCH  34  35
HETATM   35  C19 UNL     1     -11.510 -24.322 -20.141  1.00  0.00     0.125 C
BRANCH  35  36
HETATM   36  N5  UNL     1     -11.270 -24.901 -18.857  1.00  0.00    -0.352 N
HETATM   37  C20 UNL     1     -11.556 -26.287 -18.479  1.00  0.00     0.126 C
HETATM   38  C21 UNL     1     -10.504 -26.570 -17.408  1.00  0.00     0.029 C
HETATM   39  C22 UNL     1     -10.170 -25.244 -16.793  1.00  0.00     0.104 C
HETATM   40  C23 UNL     1     -10.712 -24.219 -17.738  1.00  0.00     0.219 C
HETATM   41  O2  UNL     1     -10.649 -22.987 -17.511  1.00  0.00    -0.273 OA
ENDBRANCH  35  36
ENDBRANCH  34  35
ENDBRANCH  33  34
ENDBRANCH  32  33
ENDBRANCH  31  32
ENDBRANCH  29  31
ENDBRANCH   3  29
TORSDOF 12
ENDMDL