MODEL 3
REMARK VINA RESULT: -8.393004630      0.920      1.389
REMARK  14 active torsions:
REMARK  status: ('A' for Active; 'I' for Inactive)
REMARK    1  A    between atoms: C2_2  and  O1_3
REMARK    2  A    between atoms: C2_2  and  C3_5
REMARK    3  A    between atoms: C3_5  and  C4_6
REMARK    4  A    between atoms: C4_6  and  C5_7
REMARK    5  A    between atoms: C5_7  and  O2_8
REMARK    6  A    between atoms: O2_8  and  C6_9
REMARK    7  A    between atoms: C10_14  and  N1_15
REMARK       I    between atoms: N1_15  and  C11_17
REMARK       I    between atoms: C11_17  and  N2_19
REMARK    8  A    between atoms: N2_19  and  C12_21
REMARK    9  A    between atoms: C12_21  and  C13_22
REMARK   10  A    between atoms: C15_24  and  C16_25
REMARK   11  A    between atoms: C16_25  and  C17_26
REMARK   12  A    between atoms: C17_26  and  C19_28
REMARK   13  A    between atoms: C19_28  and  C21_30
REMARK   14  A    between atoms: C25_35  and  O6_37
ROOT
HETATM    1  C6  UNL     1     -20.428 -17.399 -18.511  1.00  0.00     0.334 C
HETATM    2  O3  UNL     1     -20.054 -18.043 -17.331  1.00  0.00    -0.342 OA
HETATM    3  C7  UNL     1     -18.793 -18.555 -17.345  1.00  0.00     0.081 C
HETATM    4  C8  UNL     1     -18.599 -19.254 -15.991  1.00  0.00     0.048 C
HETATM    5  C9  UNL     1     -17.789 -17.399 -17.335  1.00  0.00     0.048 C
HETATM    6  C10 UNL     1     -18.471 -19.489 -18.449  1.00  0.00     0.161 C
HETATM    7  C25 UNL     1     -19.200 -19.242 -19.732  1.00  0.00     0.142 C
HETATM    8  C26 UNL     1     -18.398 -18.469 -20.751  1.00  0.00     0.057 C
HETATM    9  C27 UNL     1     -20.485 -18.505 -19.537  1.00  0.00     0.217 C
HETATM   10  O7  UNL     1     -21.498 -18.767 -20.147  1.00  0.00    -0.289 OA
ENDROOT
BRANCH   6  11
HETATM   11  N1  UNL     1     -17.029 -19.551 -18.604  1.00  0.00    -0.332 N
HETATM   12  C11 UNL     1     -16.331 -20.772 -18.782  1.00  0.00     0.316 C
HETATM   13  O4  UNL     1     -17.007 -21.827 -18.804  1.00  0.00    -0.247 OA
HETATM   14  N2  UNL     1     -14.920 -20.802 -18.929  1.00  0.00    -0.339 N
ATOM     15  H2  UNL     1     -14.372 -19.942 -18.910  1.00  0.00     0.164 HD
ATOM     16  H1  UNL     1     -16.497 -18.681 -18.584  1.00  0.00     0.164 HD
BRANCH  14  17
HETATM   17  C12 UNL     1     -14.291 -22.066 -19.104  1.00  0.00     0.157 C
BRANCH  17  18
HETATM   18  C13 UNL     1     -13.373 -22.511 -18.052  1.00  0.00    -0.070 C
HETATM   19  C14 UNL     1     -12.289 -23.475 -18.501  1.00  0.00     0.044 C
HETATM   20  C15 UNL     1     -13.412 -22.158 -16.777  1.00  0.00    -0.022 C
BRANCH  20  21
HETATM   21  C16 UNL     1     -12.439 -22.657 -15.769  1.00  0.00     0.032 C
BRANCH  21  22
HETATM   22  C17 UNL     1     -12.305 -21.752 -14.572  1.00  0.00    -0.009 C
HETATM   23  C18 UNL     1     -10.959 -21.102 -14.508  1.00  0.00     0.011 C
BRANCH  22  24
HETATM   24  C19 UNL     1     -12.590 -22.592 -13.334  1.00  0.00     0.017 C
HETATM   25  C20 UNL     1     -14.002 -22.486 -12.860  1.00  0.00     0.013 C
BRANCH  24  26
HETATM   26  C21 UNL     1     -12.169 -24.034 -13.515  1.00  0.00     0.160 A
HETATM   27  O5  UNL     1     -10.826 -24.292 -13.816  1.00  0.00    -0.370 OA
HETATM   28  C22 UNL     1     -11.326 -24.659 -12.492  1.00  0.00     0.081 A
HETATM   29  C23 UNL     1     -10.743 -23.845 -11.373  1.00  0.00     0.048 C
HETATM   30  C24 UNL     1     -11.410 -26.178 -12.303  1.00  0.00     0.048 C
ENDBRANCH  24  26
ENDBRANCH  22  24
ENDBRANCH  21  22
ENDBRANCH  20  21
ENDBRANCH  17  18
ENDBRANCH  14  17
ENDBRANCH   6  11
BRANCH   7  31
HETATM   31  O6  UNL     1     -19.552 -20.462 -20.352  1.00  0.00    -0.380 OA
ATOM     32  H6  UNL     1     -20.495 -20.580 -20.354  1.00  0.00     0.211 HD
ENDBRANCH   7  31
BRANCH   1  33
HETATM   33  O2  UNL     1     -21.655 -16.785 -18.359  1.00  0.00    -0.350 OA
BRANCH  33  34
HETATM   34  C5  UNL     1     -21.402 -15.543 -17.716  1.00  0.00     0.199 C
BRANCH  34  35
HETATM   35  C4  UNL     1     -22.058 -15.457 -16.427  1.00  0.00     0.002 C
BRANCH  35  36
HETATM   36  C3  UNL     1     -21.568 -15.631 -15.263  1.00  0.00     0.029 C
BRANCH  36  37
HETATM   37  C2  UNL     1     -20.318 -15.275 -14.699  1.00  0.00     0.039 C
HETATM   38  C1  UNL     1     -19.322 -16.171 -14.096  1.00  0.00     0.076 C
BRANCH  37  39
HETATM   39  O1  UNL     1     -19.960 -14.015 -14.687  1.00  0.00    -0.365 OA
ATOM     40  H1  UNL     1     -19.496 -13.747 -15.472  1.00  0.00     0.217 HD
ENDBRANCH  37  39
ENDBRANCH  36  37
ENDBRANCH  35  36
ENDBRANCH  34  35
ENDBRANCH  33  34
ENDBRANCH   1  33
TORSDOF 14
ENDMDL