MODEL 1
REMARK VINA RESULT: -7.410124773      0.000      0.000
REMARK  12 active torsions:
REMARK  status: ('A' for Active; 'I' for Inactive)
REMARK    1  A    between atoms: O1_2  and  C2_3
REMARK    2  A    between atoms: C4_5  and  C5_6
REMARK    3  A    between atoms: C5_6  and  C6_7
REMARK    4  A    between atoms: C10_16  and  O3_17
REMARK    5  A    between atoms: O3_17  and  C11_18
REMARK    6  A    between atoms: C11_18  and  C12_19
REMARK    7  A    between atoms: C11_18  and  C19_30
REMARK       I    between atoms: C12_19  and  N3_21
REMARK    8  A    between atoms: N3_21  and  C13_23
REMARK    9  A    between atoms: C13_23  and  C14_24
REMARK   10  A    between atoms: C14_24  and  N4_25
REMARK   11  A    between atoms: C23_34  and  O5_35
REMARK   12  A    between atoms: C25_37  and  O6_38
ROOT
HETATM    1  C2  UNL     1     -10.873 -24.242 -17.332  1.00  0.00     0.105 A
HETATM    2  C3  UNL     1     -10.929 -23.800 -16.030  1.00  0.00     0.050 A
HETATM    3  C4  UNL     1     -11.861 -22.837 -15.598  1.00  0.00    -0.013 A
HETATM    4  C10 UNL     1     -12.766 -22.298 -16.483  1.00  0.00     0.113 A
HETATM    5  C23 UNL     1     -12.705 -22.743 -17.795  1.00  0.00     0.138 A
HETATM    6  C25 UNL     1     -11.770 -23.703 -18.211  1.00  0.00     0.138 A
ENDROOT
BRANCH   4   7
HETATM    7  O3  UNL     1     -13.692 -21.362 -16.122  1.00  0.00    -0.332 OA
BRANCH   7   8
HETATM    8  C11 UNL     1     -14.955 -21.477 -15.582  1.00  0.00     0.228 C
BRANCH   8   9
HETATM    9  C12 UNL     1     -16.119 -21.147 -16.479  1.00  0.00     0.251 C
HETATM   10  O4  UNL     1     -17.157 -21.805 -16.550  1.00  0.00    -0.270 OA
HETATM   11  N3  UNL     1     -16.044 -19.986 -17.316  1.00  0.00    -0.334 N
ATOM     12  H3  UNL     1     -15.161 -19.478 -17.258  1.00  0.00     0.168 HD
BRANCH  11  13
HETATM   13  C13 UNL     1     -16.969 -19.435 -18.192  1.00  0.00     0.102 C
BRANCH  13  14
HETATM   14  C14 UNL     1     -17.748 -18.212 -17.967  1.00  0.00     0.076 C
BRANCH  14  15
HETATM   15  N4  UNL     1     -19.088 -18.217 -17.550  1.00  0.00    -0.291 NA
HETATM   16  C15 UNL     1     -19.307 -19.055 -16.417  1.00  0.00     0.095 C
HETATM   17  C16 UNL     1     -19.697 -18.145 -15.259  1.00  0.00     0.016 C
HETATM   18  C17 UNL     1     -19.462 -16.747 -15.753  1.00  0.00     0.016 C
HETATM   19  C18 UNL     1     -19.634 -16.923 -17.246  1.00  0.00     0.095 C
ENDBRANCH  14  15
ENDBRANCH  13  14
ENDBRANCH  11  13
ENDBRANCH   8   9
BRANCH   8  20
HETATM   20  C19 UNL     1     -15.023 -20.567 -14.372  1.00  0.00    -0.016 C
HETATM   21  C20 UNL     1     -16.287 -19.722 -14.392  1.00  0.00     0.018 C
HETATM   22  C21 UNL     1     -13.890 -19.578 -14.431  1.00  0.00     0.018 C
HETATM   23  C22 UNL     1     -14.947 -21.243 -13.050  1.00  0.00     0.018 C
ENDBRANCH   8  20
ENDBRANCH   7   8
ENDBRANCH   4   7
BRANCH   3  24
HETATM   24  C5  UNL     1     -11.698 -22.461 -14.176  1.00  0.00     0.101 C
BRANCH  24  25
HETATM   25  C6  UNL     1     -12.076 -23.619 -13.286  1.00  0.00     0.040 A
HETATM   26  N1  UNL     1     -13.134 -24.444 -13.392  1.00  0.00    -0.310 N
HETATM   27  C7  UNL     1     -13.111 -25.346 -12.384  1.00  0.00     0.324 A
ATOM     28  H1  UNL     1     -13.844 -24.397 -14.123  1.00  0.00     0.170 HD
HETATM   29  O2  UNL     1     -13.923 -26.275 -12.141  1.00  0.00    -0.247 OA
HETATM   30  N2  UNL     1     -12.033 -25.090 -11.635  1.00  0.00    -0.311 N
HETATM   31  C8  UNL     1     -11.388 -24.037 -12.173  1.00  0.00     0.033 A
ATOM     32  H2  UNL     1     -11.749 -25.603 -10.801  1.00  0.00     0.170 HD
HETATM   33  C9  UNL     1     -10.142 -23.413 -11.669  1.00  0.00     0.070 C
ENDBRANCH  24  25
ENDBRANCH   3  24
BRANCH   5  34
HETATM   34  O5  UNL     1     -13.520 -22.306 -18.825  1.00  0.00    -0.351 OA
HETATM   35  C24 UNL     1     -14.759 -22.967 -19.003  1.00  0.00     0.210 C
ENDBRANCH   5  34
BRANCH   6  36
HETATM   36  O6  UNL     1     -11.727 -24.135 -19.527  1.00  0.00    -0.351 OA
HETATM   37  C26 UNL     1     -12.363 -25.365 -19.846  1.00  0.00     0.210 C
ENDBRANCH   6  36
BRANCH   1  38
HETATM   38  O1  UNL     1      -9.964 -25.185 -17.765  1.00  0.00    -0.353 OA
HETATM   39  C1  UNL     1      -9.993 -26.520 -17.333  1.00  0.00     0.210 C
ENDBRANCH   1  38
TORSDOF 12
ENDMDL