MODEL 3
REMARK VINA RESULT: -8.641521945      4.417     12.821
REMARK  13 active torsions:
REMARK  status: ('A' for Active; 'I' for Inactive)
REMARK    1  A    between atoms: O1_2  and  C2_3
REMARK    2  A    between atoms: C2_3  and  C3_4
REMARK    3  A    between atoms: C3_4  and  C4_5
REMARK    4  A    between atoms: C4_5  and  O2_6
REMARK    5  A    between atoms: O2_6  and  C5_7
REMARK    6  A    between atoms: C8_10  and  C9_11
REMARK    7  A    between atoms: C10_12  and  C11_13
REMARK    8  A    between atoms: C16_20  and  C17_21
REMARK    9  A    between atoms: C17_21  and  C18_22
REMARK       I    between atoms: C18_22  and  N2_24
REMARK   10  A    between atoms: N2_24  and  C19_26
REMARK   11  A    between atoms: C19_26  and  C20_27
REMARK   12  A    between atoms: C20_27  and  N3_28
REMARK   13  A    between atoms: C27_40  and  O4_41
ROOT
HETATM    1  C11 UNL     1     -17.637 -19.120 -15.287  1.00  0.00     0.064 A
HETATM    2  C12 UNL     1     -18.067 -18.071 -14.507  1.00  0.00     0.056 A
HETATM    3  C13 UNL     1     -19.150 -17.318 -14.863  1.00  0.00     0.061 A
HETATM    4  N1  UNL     1     -19.580 -16.288 -14.107  1.00  0.00    -0.358 N
ATOM      5  H1  UNL     1     -19.074 -16.077 -13.247  1.00  0.00     0.166 HD
HETATM    6  C14 UNL     1     -20.646 -15.521 -14.425  1.00  0.00     0.012 A
HETATM    7  C15 UNL     1     -21.054 -14.410 -13.533  1.00  0.00     0.068 C
HETATM    8  C16 UNL     1     -21.367 -15.761 -15.572  1.00  0.00    -0.025 A
HETATM    9  C23 UNL     1     -20.931 -16.827 -16.367  1.00  0.00     0.041 A
HETATM   10  C24 UNL     1     -19.841 -17.599 -16.027  1.00  0.00     0.061 A
HETATM   11  N4  UNL     1     -19.405 -18.621 -16.767  1.00  0.00    -0.340 N
ATOM     12  H4  UNL     1     -19.908 -18.837 -17.628  1.00  0.00     0.167 HD
HETATM   13  C25 UNL     1     -18.333 -19.392 -16.444  1.00  0.00     0.118 A
HETATM   14  N5  UNL     1     -17.966 -20.365 -17.207  1.00  0.00    -0.384 N
ATOM     15  H51 UNL     1     -18.481 -20.566 -18.064  1.00  0.00     0.157 HD
ATOM     16  H52 UNL     1     -17.161 -20.943 -16.965  1.00  0.00     0.157 HD
ENDROOT
BRANCH   1  17
HETATM   17  C10 UNL     1     -16.482 -19.920 -14.899  1.00  0.00    -0.058 C
HETATM   18  C9  UNL     1     -15.527 -20.592 -14.598  1.00  0.00    -0.061 C
BRANCH  18  19
HETATM   19  C8  UNL     1     -14.404 -21.409 -14.253  1.00  0.00     0.021 A
HETATM   20  C7  UNL     1     -14.356 -22.137 -13.081  1.00  0.00     0.023 A
HETATM   21  C6  UNL     1     -13.276 -22.925 -12.746  1.00  0.00     0.041 A
HETATM   22  C5  UNL     1     -12.188 -23.015 -13.585  1.00  0.00     0.102 A
HETATM   23  C27 UNL     1     -12.215 -22.297 -14.759  1.00  0.00     0.102 A
HETATM   24  C26 UNL     1     -13.303 -21.514 -15.076  1.00  0.00     0.060 A
BRANCH  22  25
HETATM   25  O2  UNL     1     -11.081 -23.806 -13.270  1.00  0.00    -0.348 OA
BRANCH  25  26
HETATM   26  C4  UNL     1     -11.099 -24.795 -12.294  1.00  0.00     0.178 C
BRANCH  26  27
HETATM   27  C3  UNL     1     -11.629 -26.113 -12.812  1.00  0.00     0.053 C
BRANCH  27  28
HETATM   28  C2  UNL     1     -12.601 -26.700 -11.836  1.00  0.00     0.169 C
BRANCH  28  29
HETATM   29  O1  UNL     1     -13.900 -26.299 -12.051  1.00  0.00    -0.396 OA
HETATM   30  C1  UNL     1     -14.767 -27.105 -11.345  1.00  0.00     0.201 C
ENDBRANCH  28  29
ENDBRANCH  27  28
ENDBRANCH  26  27
ENDBRANCH  25  26
ENDBRANCH  22  25
BRANCH  23  31
HETATM   31  O4  UNL     1     -11.120 -22.383 -15.608  1.00  0.00    -0.353 OA
HETATM   32  C28 UNL     1     -11.103 -23.123 -16.803  1.00  0.00     0.210 C
ENDBRANCH  23  31
ENDBRANCH  18  19
ENDBRANCH   1  17
BRANCH   8  33
HETATM   33  C17 UNL     1     -22.541 -14.966 -15.997  1.00  0.00     0.143 C
BRANCH  33  34
HETATM   34  C18 UNL     1     -23.645 -15.808 -16.533  1.00  0.00     0.222 C
HETATM   35  O3  UNL     1     -24.204 -16.698 -15.861  1.00  0.00    -0.273 OA
HETATM   36  N2  UNL     1     -24.068 -15.574 -17.872  1.00  0.00    -0.356 N
ATOM     37  H2  UNL     1     -23.626 -14.851 -18.440  1.00  0.00     0.162 HD
BRANCH  36  38
HETATM   38  C19 UNL     1     -25.121 -16.368 -18.399  1.00  0.00     0.166 C
BRANCH  38  39
HETATM   39  C20 UNL     1     -24.678 -17.599 -19.093  1.00  0.00     0.076 C
BRANCH  39  40
HETATM   40  N3  UNL     1     -25.364 -18.763 -18.704  1.00  0.00    -0.400 N
HETATM   41  C21 UNL     1     -26.604 -18.706 -18.087  1.00  0.00     0.148 C
HETATM   42  C22 UNL     1     -25.080 -19.866 -19.567  1.00  0.00     0.148 C
ENDBRANCH  39  40
ENDBRANCH  38  39
ENDBRANCH  36  38
ENDBRANCH  33  34
ENDBRANCH   8  33
TORSDOF 13
ENDMDL