MODEL 5
REMARK VINA RESULT: -8.059104235      3.929      9.738
REMARK  13 active torsions:
REMARK  status: ('A' for Active; 'I' for Inactive)
REMARK    1  A    between atoms: C2_2  and  N1_3
REMARK       I    between atoms: N1_3  and  C3_5
REMARK    2  A    between atoms: C3_5  and  C4_7
REMARK    3  A    between atoms: C4_7  and  C5_9
REMARK    4  A    between atoms: C5_9  and  C6_10
REMARK    5  A    between atoms: C5_9  and  N2_18
REMARK    6  A    between atoms: C6_10  and  C7_11
REMARK       I    between atoms: N2_18  and  C13_20
REMARK    7  A    between atoms: C13_20  and  C14_22
REMARK    8  A    between atoms: C14_22  and  C15_23
REMARK    9  A    between atoms: C15_23  and  C16_24
REMARK   10  A    between atoms: C16_24  and  C20_32
REMARK       I    between atoms: N3_25  and  C17_27
REMARK   11  A    between atoms: C17_27  and  O5_29
REMARK   12  A    between atoms: O5_29  and  C18_30
REMARK       I    between atoms: C20_32  and  N4_34
REMARK   13  A    between atoms: N4_34  and  C21_36
ROOT
HETATM    1  N2  UNL     1      15.015  21.667  15.360  1.00  0.00    -0.349 N
ATOM      2  H2  UNL     1      15.047  22.666  15.565  1.00  0.00     0.163 HD
HETATM    3  C13 UNL     1      15.919  21.111  14.457  1.00  0.00     0.218 C
HETATM    4  O3  UNL     1      15.959  19.897  14.138  1.00  0.00    -0.274 OA
ENDROOT
BRANCH   3   5
HETATM    5  C14 UNL     1      16.937  21.995  13.794  1.00  0.00     0.109 C
BRANCH   5   6
HETATM    6  C15 UNL     1      17.813  22.693  14.804  1.00  0.00     0.072 C
BRANCH   6   7
HETATM    7  C16 UNL     1      17.558  24.138  14.744  1.00  0.00     0.082 C
HETATM    8  N3  UNL     1      17.261  24.751  15.838  1.00  0.00    -0.301 N
HETATM    9  C17 UNL     1      17.152  24.175  17.110  1.00  0.00     0.365 C
ATOM     10  H3  UNL     1      17.088  25.753  15.771  1.00  0.00     0.171 HD
HETATM   11  O4  UNL     1      18.204  23.883  17.734  1.00  0.00    -0.238 OA
BRANCH   9  12
HETATM   12  O5  UNL     1      15.954  23.897  17.743  1.00  0.00    -0.304 OA
BRANCH  12  13
HETATM   13  C18 UNL     1      15.267  24.805  18.553  1.00  0.00     0.176 C
HETATM   14  C19 UNL     1      15.293  24.395  20.023  1.00  0.00     0.034 C
ENDBRANCH  12  13
ENDBRANCH   9  12
BRANCH   7  15
HETATM   15  C20 UNL     1      17.682  24.877  13.517  1.00  0.00     0.264 C
HETATM   16  O6  UNL     1      18.724  24.667  12.803  1.00  0.00    -0.266 OA
HETATM   17  N4  UNL     1      16.756  25.821  13.028  1.00  0.00    -0.348 N
ATOM     18  H4  UNL     1      15.909  26.038  13.553  1.00  0.00     0.163 HD
BRANCH  17  19
HETATM   19  C21 UNL     1      17.030  26.478  11.760  1.00  0.00     0.022 C
HETATM   20  C22 UNL     1      17.497  25.459  10.739  1.00  0.00     0.037 C
HETATM   21  C23 UNL     1      18.104  27.526  11.986  1.00  0.00     0.037 C
HETATM   22  C24 UNL     1      15.747  27.131  11.296  1.00  0.00     0.037 C
ENDBRANCH  17  19
ENDBRANCH   7  15
ENDBRANCH   6   7
ENDBRANCH   5   6
ENDBRANCH   3   5
BRANCH   1  23
HETATM   23  C5  UNL     1      13.998  20.795  16.027  1.00  0.00     0.169 C
BRANCH  23  24
HETATM   24  C4  UNL     1      12.755  20.960  15.248  1.00  0.00     0.239 C
HETATM   25  O2  UNL     1      12.172  22.105  15.241  1.00  0.00    -0.285 OA
BRANCH  24  26
HETATM   26  C3  UNL     1      12.093  19.948  14.457  1.00  0.00     0.289 C
HETATM   27  N1  UNL     1      10.797  19.450  14.749  1.00  0.00    -0.355 N
ATOM     28  H1  UNL     1      10.311  19.829  15.561  1.00  0.00     0.162 HD
HETATM   29  O1  UNL     1      12.669  19.469  13.460  1.00  0.00    -0.264 OA
BRANCH  27  30
HETATM   30  C2  UNL     1      10.131  18.450  13.975  1.00  0.00     0.118 C
HETATM   31  C1  UNL     1       8.649  18.734  13.986  1.00  0.00     0.026 C
ENDBRANCH  27  30
ENDBRANCH  24  26
ENDBRANCH  23  24
BRANCH  23  32
HETATM   32  C6  UNL     1      13.961  21.336  17.417  1.00  0.00     0.079 C
BRANCH  32  33
HETATM   33  C7  UNL     1      12.810  20.975  18.269  1.00  0.00    -0.014 A
HETATM   34  C8  UNL     1      12.033  21.773  19.071  1.00  0.00     0.022 A
HETATM   35  C9  UNL     1      11.016  21.211  19.728  1.00  0.00    -0.048 A
HETATM   36  C10 UNL     1      10.080  21.992  20.650  1.00  0.00     0.049 C
HETATM   37  C11 UNL     1      10.821  19.864  19.553  1.00  0.00    -0.015 A
HETATM   38  C12 UNL     1       9.758  18.998  20.172  1.00  0.00     0.057 C
HETATM   39  S1  UNL     1      12.061  19.430  18.479  1.00  0.00    -0.099 SA
ENDBRANCH  32  33
ENDBRANCH  23  32
ENDBRANCH   1  23
TORSDOF 13
ENDMDL