MODEL 5
REMARK VINA RESULT: -8.250284747      1.847      8.260
REMARK  11 active torsions:
REMARK  status: ('A' for Active; 'I' for Inactive)
REMARK    1  A    between atoms: C2_2  and  C3_3
REMARK    2  A    between atoms: C3_3  and  C4_4
REMARK    3  A    between atoms: C4_4  and  N1_5
REMARK    4  A    between atoms: C6_8  and  N3_9
REMARK    5  A    between atoms: N3_9  and  C7_10
REMARK       I    between atoms: N3_9  and  C17_23
REMARK    6  A    between atoms: C7_10  and  C8_11
REMARK    7  A    between atoms: C8_11  and  C9_12
REMARK    8  A    between atoms: C9_12  and  C10_13
REMARK       I    between atoms: C10_13  and  N4_15
REMARK    9  A    between atoms: N4_15  and  C11_17
REMARK   10  A    between atoms: C11_17  and  C12_18
REMARK   11  A    between atoms: C17_23  and  C18_25
ROOT
HETATM    1  C18 UNL     1      15.744  23.298  18.047  1.00  0.00     0.096 C
HETATM    2  C19 UNL     1      16.952  24.176  18.165  1.00  0.00     0.015 C
HETATM    3  C20 UNL     1      17.084  24.866  19.504  1.00  0.00     0.001 C
HETATM    4  C21 UNL     1      16.305  24.217  20.600  1.00  0.00     0.001 C
HETATM    5  C22 UNL     1      14.869  23.987  20.269  1.00  0.00     0.020 C
HETATM    6  C23 UNL     1      14.597  23.964  18.788  1.00  0.00     0.106 C
HETATM    7  C24 UNL     1      14.446  25.345  18.331  1.00  0.00     0.065 C
HETATM    8  N5  UNL     1      14.303  26.452  17.954  1.00  0.00    -0.197 NA
ENDROOT
BRANCH   1   9
HETATM    9  C17 UNL     1      15.361  23.146  16.630  1.00  0.00     0.230 C
HETATM   10  N3  UNL     1      14.444  22.235  16.087  1.00  0.00    -0.310 N
HETATM   11  O2  UNL     1      15.952  23.950  15.813  1.00  0.00    -0.273 OA
BRANCH  10  12
HETATM   12  C6  UNL     1      13.678  21.376  16.899  1.00  0.00     0.147 A
HETATM   13  C5  UNL     1      12.370  21.673  17.277  1.00  0.00     0.155 A
HETATM   14  N1  UNL     1      11.660  20.849  18.065  1.00  0.00    -0.285 N
HETATM   15  N2  UNL     1      11.781  22.860  16.822  1.00  0.00    -0.080 NA
HETATM   16  C26 UNL     1      12.167  19.705  18.529  1.00  0.00     0.330 A
HETATM   17  N6  UNL     1      13.425  19.380  18.189  1.00  0.00    -0.273 N
HETATM   18  O4  UNL     1      11.489  18.924  19.280  1.00  0.00    -0.246 OA
HETATM   19  C25 UNL     1      14.170  20.175  17.403  1.00  0.00     0.279 A
ATOM     20  H6  UNL     1      13.824  18.508  18.536  1.00  0.00     0.173 HD
HETATM   21  O3  UNL     1      15.356  19.841  17.100  1.00  0.00    -0.265 OA
BRANCH  14  22
HETATM   22  C4  UNL     1      10.322  21.203  18.422  1.00  0.00     0.135 C
BRANCH  22  23
HETATM   23  C3  UNL     1      10.246  21.944  19.740  1.00  0.00     0.020 C
BRANCH  23  24
HETATM   24  C2  UNL     1       9.120  21.368  20.576  1.00  0.00    -0.003 C
HETATM   25  C1  UNL     1       8.379  20.305  19.802  1.00  0.00     0.005 C
ENDBRANCH  23  24
ENDBRANCH  22  23
ENDBRANCH  14  22
ENDBRANCH  10  12
BRANCH  10  26
HETATM   26  C7  UNL     1      14.273  22.159  14.643  1.00  0.00     0.133 C
BRANCH  26  27
HETATM   27  C8  UNL     1      14.472  20.770  14.104  1.00  0.00     0.029 C
BRANCH  27  28
HETATM   28  C9  UNL     1      13.216  20.328  13.416  1.00  0.00     0.104 C
BRANCH  28  29
HETATM   29  C10 UNL     1      12.586  19.112  13.906  1.00  0.00     0.217 C
HETATM   30  O1  UNL     1      12.838  18.558  15.019  1.00  0.00    -0.274 OA
HETATM   31  N4  UNL     1      11.611  18.487  13.084  1.00  0.00    -0.361 N
ATOM     32  H4  UNL     1      11.365  18.884  12.177  1.00  0.00     0.162 HD
BRANCH  31  33
HETATM   33  C11 UNL     1      10.971  17.278  13.556  1.00  0.00     0.127 C
BRANCH  33  34
HETATM   34  C12 UNL     1       9.481  17.359  13.450  1.00  0.00     0.003 C
HETATM   35  C13 UNL     1       8.737  16.476  14.398  1.00  0.00     0.006 C
HETATM   36  C14 UNL     1       7.600  17.306  14.966  1.00  0.00     0.000 C
HETATM   37  C15 UNL     1       7.622  18.622  14.186  1.00  0.00     0.000 C
HETATM   38  C16 UNL     1       9.075  18.770  13.856  1.00  0.00     0.006 C
ENDBRANCH  33  34
ENDBRANCH  31  33
ENDBRANCH  28  29
ENDBRANCH  27  28
ENDBRANCH  26  27
ENDBRANCH  10  26
ENDBRANCH   1   9
TORSDOF 11
ENDMDL