MODEL 2
REMARK VINA RESULT: -7.592540415      2.367      3.957
REMARK  14 active torsions:
REMARK  status: ('A' for Active; 'I' for Inactive)
REMARK    1  A    between atoms: O1_2  and  N1_3
REMARK    2  A    between atoms: C2_5  and  C3_6
REMARK    3  A    between atoms: C2_5  and  N5_33
REMARK    4  A    between atoms: C3_6  and  N2_7
REMARK    5  A    between atoms: C3_6  and  C16_29
REMARK       I    between atoms: N2_7  and  C4_9
REMARK    6  A    between atoms: C4_9  and  C5_11
REMARK    7  A    between atoms: C5_11  and  C6_12
REMARK    8  A    between atoms: C6_12  and  C7_13
REMARK    9  A    between atoms: C7_13  and  C8_14
REMARK   10  A    between atoms: C8_14  and  C9_15
REMARK   11  A    between atoms: C9_15  and  N3_16
REMARK       I    between atoms: N4_20  and  C10_22
REMARK   12  A    between atoms: C10_22  and  C11_24
REMARK   13  A    between atoms: C11_24  and  C12_25
REMARK   14  A    between atoms: C22_37  and  C23_38
ROOT
HETATM    1  N2  UNL     1      11.249  19.511  16.907  1.00  0.00    -0.344 N
ATOM      2  H2  UNL     1      10.989  20.484  16.743  1.00  0.00     0.163 HD
HETATM    3  C4  UNL     1      12.508  19.251  17.451  1.00  0.00     0.264 C
HETATM    4  O2  UNL     1      12.856  18.077  17.664  1.00  0.00    -0.266 OA
ENDROOT
BRANCH   1   5
HETATM    5  C3  UNL     1      10.283  18.475  16.559  1.00  0.00     0.161 C
BRANCH   5   6
HETATM    6  C2  UNL     1       9.118  18.413  17.433  1.00  0.00     0.125 C
HETATM    7  N1  UNL     1       8.811  19.362  18.230  1.00  0.00    -0.253 N
ATOM      8  H1  UNL     1       7.981  19.249  18.812  1.00  0.00     0.195 HD
BRANCH   7   9
HETATM    9  O1  UNL     1       9.510  20.491  18.349  1.00  0.00    -0.284 OA
HETATM   10  C1  UNL     1       9.640  21.284  19.508  1.00  0.00     0.237 C
ENDBRANCH   7   9
BRANCH   6  11
HETATM   11  N5  UNL     1       8.194  17.286  17.512  1.00  0.00    -0.343 N
HETATM   12  C20 UNL     1       8.430  15.951  17.032  1.00  0.00     0.199 C
HETATM   13  S1  UNL     1       6.788  15.516  16.350  1.00  0.00    -0.147 SA
HETATM   14  C21 UNL     1       5.967  17.116  16.785  1.00  0.00     0.112 C
HETATM   15  C22 UNL     1       6.871  17.386  18.035  1.00  0.00     0.197 C
BRANCH  15  16
HETATM   16  C23 UNL     1       6.426  16.408  19.021  1.00  0.00     0.197 C
HETATM   17  O4  UNL     1       5.255  16.061  19.185  1.00  0.00    -0.646 OA
HETATM   18  O5  UNL     1       7.356  15.770  19.886  1.00  0.00    -0.646 OA
ENDBRANCH  15  16
ENDBRANCH   6  11
ENDBRANCH   5   6
BRANCH   5  19
HETATM   19  C16 UNL     1      10.035  18.627  15.096  1.00  0.00    -0.024 C
HETATM   20  C17 UNL     1       8.652  19.086  14.745  1.00  0.00     0.017 C
HETATM   21  C18 UNL     1      11.097  19.498  14.428  1.00  0.00     0.017 C
HETATM   22  C19 UNL     1      10.209  17.254  14.423  1.00  0.00     0.017 C
ENDBRANCH   5  19
ENDBRANCH   1   5
BRANCH   3  23
HETATM   23  C5  UNL     1      13.470  20.330  17.801  1.00  0.00     0.080 C
HETATM   24  N4  UNL     1      13.161  21.020  18.786  1.00  0.00    -0.326 N
HETATM   25  C10 UNL     1      13.594  22.067  19.536  1.00  0.00     0.222 C
ATOM     26  H4  UNL     1      12.275  20.684  19.164  1.00  0.00     0.168 HD
HETATM   27  O3  UNL     1      12.745  22.567  20.361  1.00  0.00    -0.273 OA
BRANCH  23  28
HETATM   28  C6  UNL     1      14.677  20.609  17.011  1.00  0.00     0.063 C
BRANCH  28  29
HETATM   29  C7  UNL     1      14.544  20.693  15.545  1.00  0.00     0.008 C
BRANCH  29  30
HETATM   30  C8  UNL     1      13.909  21.887  14.960  1.00  0.00     0.027 C
BRANCH  30  31
HETATM   31  C9  UNL     1      14.821  22.432  13.838  1.00  0.00     0.229 C
BRANCH  31  32
HETATM   32  N3  UNL     1      15.583  23.569  14.289  1.00  0.00    -0.079 N
ATOM     33  H33 UNL     1      15.345  23.822  15.249  1.00  0.00     0.274 HD
ATOM     34  H32 UNL     1      16.565  23.330  14.429  1.00  0.00     0.274 HD
ATOM     35  H31 UNL     1      15.475  24.361  13.655  1.00  0.00     0.274 HD
ENDBRANCH  31  32
ENDBRANCH  30  31
ENDBRANCH  29  30
ENDBRANCH  28  29
ENDBRANCH  23  28
BRANCH  25  36
HETATM   36  C11 UNL     1      14.911  22.666  19.492  1.00  0.00     0.111 C
BRANCH  36  37
HETATM   37  C12 UNL     1      15.023  23.906  18.654  1.00  0.00    -0.043 C
HETATM   38  C13 UNL     1      15.171  25.099  19.598  1.00  0.00     0.015 C
HETATM   39  C14 UNL     1      13.856  24.175  17.777  1.00  0.00     0.015 C
HETATM   40  C15 UNL     1      16.271  23.886  17.797  1.00  0.00     0.015 C
ENDBRANCH  36  37
ENDBRANCH  25  36
ENDBRANCH   3  23
TORSDOF 14
ENDMDL