MODEL 4
REMARK VINA RESULT: -7.925240190      1.507      1.912
REMARK  12 active torsions:
REMARK  status: ('A' for Active; 'I' for Inactive)
REMARK    1  A    between atoms: O1_2  and  C2_3
REMARK    2  A    between atoms: C5_8  and  C6_9
REMARK    3  A    between atoms: C6_9  and  N2_11
REMARK    4  A    between atoms: N2_11  and  C7_13
REMARK    5  A    between atoms: C7_13  and  C8_14
REMARK    6  A    between atoms: C8_14  and  C9_15
REMARK    7  A    between atoms: C9_15  and  C10_16
REMARK    8  A    between atoms: C10_16  and  C11_17
REMARK    9  A    between atoms: C11_17  and  C12_18
REMARK   10  A    between atoms: C12_18  and  S2_19
REMARK   11  A    between atoms: S2_19  and  N3_22
REMARK   12  A    between atoms: C19_31  and  C20_32
ROOT
HETATM    1  C2  UNL     1      16.728  22.966  14.284  1.00  0.00     0.084 A
HETATM    2  C3  UNL     1      16.348  21.836  14.944  1.00  0.00     0.069 A
HETATM    3  C4  UNL     1      15.161  21.186  14.605  1.00  0.00     0.063 A
HETATM    4  N1  UNL     1      14.562  20.078  15.084  1.00  0.00    -0.338 N
ATOM      5  H1  UNL     1      14.927  19.498  15.839  1.00  0.00     0.167 HD
HETATM    6  C5  UNL     1      13.403  19.847  14.417  1.00  0.00     0.144 A
HETATM    7  N4  UNL     1      13.285  20.834  13.506  1.00  0.00    -0.338 N
ATOM      8  H4  UNL     1      12.514  20.937  12.848  1.00  0.00     0.167 HD
HETATM    9  C17 UNL     1      14.342  21.660  13.600  1.00  0.00     0.061 A
HETATM   10  C18 UNL     1      14.742  22.806  12.943  1.00  0.00     0.050 A
HETATM   11  C19 UNL     1      15.923  23.456  13.278  1.00  0.00     0.043 A
ENDROOT
BRANCH   6  12
HETATM   12  C6  UNL     1      12.503  18.734  14.674  1.00  0.00     0.141 C
HETATM   13  S1  UNL     1      11.494  18.257  13.492  1.00  0.00    -0.057 SA
BRANCH  12  14
HETATM   14  N2  UNL     1      12.488  18.085  15.924  1.00  0.00    -0.378 N
ATOM     15  H2  UNL     1      13.235  17.424  16.136  1.00  0.00     0.160 HD
BRANCH  14  16
HETATM   16  C7  UNL     1      11.456  18.310  16.928  1.00  0.00     0.121 C
BRANCH  16  17
HETATM   17  C8  UNL     1      11.988  19.039  18.121  1.00  0.00     0.020 C
BRANCH  17  18
HETATM   18  C9  UNL     1      10.905  19.995  18.655  1.00  0.00     0.005 C
BRANCH  18  19
HETATM   19  C10 UNL     1      11.255  20.614  19.941  1.00  0.00     0.028 C
BRANCH  19  20
HETATM   20  C11 UNL     1      12.002  21.849  20.002  1.00  0.00    -0.014 C
BRANCH  20  21
HETATM   21  C12 UNL     1      13.405  22.122  19.868  1.00  0.00     0.122 C
BRANCH  21  22
HETATM   22  S2  UNL     1      14.280  22.179  18.382  1.00  0.00     0.233 S
HETATM   23  O2  UNL     1      14.971  20.818  18.156  1.00  0.00    -0.207 OA
HETATM   24  O3  UNL     1      13.311  22.259  17.199  1.00  0.00    -0.207 OA
BRANCH  22  25
HETATM   25  N3  UNL     1      15.494  23.348  18.200  1.00  0.00    -0.207 NA
HETATM   26  C13 UNL     1      15.888  23.958  19.453  1.00  0.00     0.107 C
HETATM   27  C14 UNL     1      15.025  25.167  19.640  1.00  0.00     0.017 C
HETATM   28  C15 UNL     1      14.547  25.518  18.272  1.00  0.00     0.017 C
HETATM   29  C16 UNL     1      14.984  24.417  17.369  1.00  0.00     0.107 C
ENDBRANCH  22  25
ENDBRANCH  21  22
ENDBRANCH  20  21
ENDBRANCH  19  20
ENDBRANCH  18  19
ENDBRANCH  17  18
ENDBRANCH  16  17
ENDBRANCH  14  16
ENDBRANCH  12  14
ENDBRANCH   6  12
BRANCH   1  30
HETATM   30  O1  UNL     1      17.902  23.667  14.572  1.00  0.00    -0.355 OA
HETATM   31  C1  UNL     1      18.297  23.701  15.941  1.00  0.00     0.210 C
ENDBRANCH   1  30
BRANCH  11  32
HETATM   32  C20 UNL     1      16.324  24.682  12.559  1.00  0.00     0.110 C
HETATM   33  N5  UNL     1      15.538  25.646  12.250  1.00  0.00    -0.374 N
HETATM   34  C21 UNL     1      16.197  26.718  11.549  1.00  0.00     0.141 C
ATOM     35  H5  UNL     1      14.544  25.654  12.479  1.00  0.00     0.161 HD
HETATM   36  C22 UNL     1      17.648  26.442  11.748  1.00  0.00     0.141 C
HETATM   37  N6  UNL     1      17.618  25.016  12.091  1.00  0.00    -0.374 N
ATOM     38  H6  UNL     1      18.402  24.369  12.005  1.00  0.00     0.161 HD
ENDBRANCH  11  32
TORSDOF 12
ENDMDL