MODEL 5
REMARK VINA RESULT: -7.742752016      2.395      7.963
REMARK  15 active torsions:
REMARK  status: ('A' for Active; 'I' for Inactive)
REMARK    1  A    between atoms: C2_2  and  O1_3
REMARK    2  A    between atoms: O1_3  and  C3_4
REMARK    3  A    between atoms: C3_4  and  C4_5
REMARK    4  A    between atoms: C4_5  and  N1_6
REMARK    5  A    between atoms: C4_5  and  C10_15
REMARK       I    between atoms: N1_6  and  C5_8
REMARK    6  A    between atoms: C5_8  and  O3_10
REMARK    7  A    between atoms: O3_10  and  C6_11
REMARK       I    between atoms: C10_15  and  N2_17
REMARK    8  A    between atoms: C13_20  and  O5_21
REMARK    9  A    between atoms: O5_21  and  C14_22
REMARK   10  A    between atoms: C16_24  and  C17_25
REMARK       I    between atoms: C17_25  and  N3_27
REMARK   11  A    between atoms: N3_27  and  C18_29
REMARK   12  A    between atoms: C18_29  and  C19_30
REMARK   13  A    between atoms: C19_30  and  C20_31
REMARK   14  A    between atoms: C20_31  and  C21_32
REMARK       I    between atoms: C21_32  and  N4_34
REMARK   15  A    between atoms: N4_34  and  C22_36
ROOT
HETATM    1  C10 UNL     1      11.772  21.922  17.099  1.00  0.00     0.245 C
HETATM    2  O4  UNL     1      11.261  22.666  16.216  1.00  0.00    -0.271 OA
HETATM    3  N2  UNL     1      12.163  20.607  16.707  1.00  0.00    -0.334 N
HETATM    4  C11 UNL     1      12.748  19.550  17.455  1.00  0.00     0.129 C
HETATM    5  C12 UNL     1      12.081  18.312  16.924  1.00  0.00     0.054 C
HETATM    6  C13 UNL     1      12.223  18.620  15.389  1.00  0.00     0.155 C
HETATM    7  C16 UNL     1      12.020  20.097  15.340  1.00  0.00     0.208 C
ENDROOT
BRANCH   1   8
HETATM    8  C4  UNL     1      11.898  22.502  18.417  1.00  0.00     0.202 C
BRANCH   8   9
HETATM    9  C3  UNL     1      11.208  21.810  19.548  1.00  0.00     0.202 C
BRANCH   9  10
HETATM   10  O1  UNL     1       9.835  22.092  19.569  1.00  0.00    -0.389 OA
BRANCH  10  11
HETATM   11  C2  UNL     1       9.171  20.849  19.603  1.00  0.00     0.163 C
HETATM   12  C1  UNL     1      10.071  19.748  20.069  1.00  0.00     0.033 C
ENDBRANCH  10  11
ENDBRANCH   9  10
ENDBRANCH   8   9
BRANCH   8  13
HETATM   13  N1  UNL     1      13.296  22.615  18.780  1.00  0.00    -0.321 N
HETATM   14  C5  UNL     1      14.140  23.605  18.215  1.00  0.00     0.362 C
HETATM   15  O2  UNL     1      13.650  24.405  17.370  1.00  0.00    -0.238 OA
ATOM     16  H1  UNL     1      13.685  21.964  19.462  1.00  0.00     0.165 HD
BRANCH  14  17
HETATM   17  O3  UNL     1      15.457  23.733  18.543  1.00  0.00    -0.294 OA
BRANCH  17  18
HETATM   18  C6  UNL     1      16.025  24.804  19.268  1.00  0.00     0.061 C
HETATM   19  C7  UNL     1      15.639  24.634  20.720  1.00  0.00     0.046 C
HETATM   20  C8  UNL     1      17.543  24.767  19.179  1.00  0.00     0.046 C
HETATM   21  C9  UNL     1      15.581  26.152  18.801  1.00  0.00     0.046 C
ENDBRANCH  17  18
ENDBRANCH  14  17
ENDBRANCH   8  13
ENDBRANCH   1   8
BRANCH   7  22
HETATM   22  C17 UNL     1      12.945  20.804  14.421  1.00  0.00     0.243 C
HETATM   23  O6  UNL     1      12.917  20.491  13.209  1.00  0.00    -0.271 OA
HETATM   24  N3  UNL     1      13.848  21.798  14.813  1.00  0.00    -0.359 N
ATOM     25  H3  UNL     1      13.876  22.051  15.800  1.00  0.00     0.162 HD
BRANCH  24  26
HETATM   26  C18 UNL     1      14.746  22.491  13.916  1.00  0.00     0.123 C
BRANCH  26  27
HETATM   27  C19 UNL     1      15.849  23.238  14.580  1.00  0.00     0.029 C
BRANCH  27  28
HETATM   28  C20 UNL     1      17.098  23.126  13.748  1.00  0.00     0.104 C
BRANCH  28  29
HETATM   29  C21 UNL     1      17.424  24.303  12.952  1.00  0.00     0.218 C
HETATM   30  O7  UNL     1      18.583  24.541  12.547  1.00  0.00    -0.274 OA
HETATM   31  N4  UNL     1      16.432  25.274  12.576  1.00  0.00    -0.353 N
ATOM     32  H4  UNL     1      15.469  25.131  12.882  1.00  0.00     0.163 HD
BRANCH  31  33
HETATM   33  C22 UNL     1      16.736  26.436  11.791  1.00  0.00     0.022 C
HETATM   34  C23 UNL     1      17.534  26.066  10.570  1.00  0.00     0.037 C
HETATM   35  C24 UNL     1      17.571  27.424  12.610  1.00  0.00     0.037 C
HETATM   36  C25 UNL     1      15.462  27.120  11.373  1.00  0.00     0.037 C
ENDBRANCH  31  33
ENDBRANCH  28  29
ENDBRANCH  27  28
ENDBRANCH  26  27
ENDBRANCH  24  26
ENDBRANCH   7  22
BRANCH   6  37
HETATM   37  O5  UNL     1      11.195  17.965  14.741  1.00  0.00    -0.384 OA
BRANCH  37  38
HETATM   38  C14 UNL     1      10.013  18.631  14.634  1.00  0.00     0.163 C
HETATM   39  C15 UNL     1       9.073  18.118  13.609  1.00  0.00     0.033 C
ENDBRANCH  37  38
ENDBRANCH   6  37
TORSDOF 15
ENDMDL