MODEL 1
REMARK VINA RESULT: -8.342678625      0.000      0.000
REMARK  13 active torsions:
REMARK  status: ('A' for Active; 'I' for Inactive)
REMARK    1  A    between atoms: C1_2  and  N1_3
REMARK    2  A    between atoms: C2_5  and  C3_6
REMARK    3  A    between atoms: C2_5  and  N6_28
REMARK    4  A    between atoms: C3_6  and  S1_7
REMARK    5  A    between atoms: S1_7  and  C4_8
REMARK       I    between atoms: N4_14  and  C6_16
REMARK       I    between atoms: C6_16  and  N5_18
REMARK    6  A    between atoms: N5_18  and  C7_20
REMARK    7  A    between atoms: C7_20  and  C8_21
REMARK    8  A    between atoms: N6_28  and  C13_30
REMARK    9  A    between atoms: C13_30  and  C14_31
REMARK   10  A    between atoms: C14_31  and  C15_32
REMARK   11  A    between atoms: C15_32  and  O4_33
REMARK   12  A    between atoms: O4_33  and  C16_34
REMARK   13  A    between atoms: C16_34  and  C17_35
ROOT
HETATM    1  C4  UNL     1      15.427  22.172  14.213  1.00  0.00     0.130 A
HETATM    2  N2  UNL     1      14.113  22.204  14.071  1.00  0.00    -0.286 N
ATOM      3  H2  UNL     1      13.645  23.086  13.865  1.00  0.00     0.188 HD
HETATM    4  N3  UNL     1      13.428  21.135  14.190  1.00  0.00    -0.278 N
ATOM      5  H3  UNL     1      12.414  21.148  14.082  1.00  0.00     0.189 HD
HETATM    6  C5  UNL     1      14.074  19.996  14.461  1.00  0.00     0.169 A
HETATM    7  N4  UNL     1      13.595  18.791  14.631  1.00  0.00    -0.288 N
ATOM      8  H4  UNL     1      14.222  18.013  14.836  1.00  0.00     0.172 HD
HETATM    9  C6  UNL     1      12.220  18.578  14.532  1.00  0.00     0.322 C
HETATM   10  O2  UNL     1      11.774  18.096  13.461  1.00  0.00    -0.247 OA
HETATM   11  N5  UNL     1      11.334  18.885  15.588  1.00  0.00    -0.342 N
ATOM     12  H5  UNL     1      11.746  19.278  16.434  1.00  0.00     0.164 HD
HETATM   13  S2  UNL     1      15.695  20.517  14.537  1.00  0.00    -0.026 SA
ENDROOT
BRANCH   1  14
HETATM   14  S1  UNL     1      16.612  23.533  14.094  1.00  0.00    -0.096 SA
BRANCH  14  15
HETATM   15  C3  UNL     1      17.897  23.220  15.347  1.00  0.00     0.157 C
BRANCH  15  16
HETATM   16  C2  UNL     1      17.649  24.107  16.499  1.00  0.00     0.088 C
HETATM   17  N1  UNL     1      18.652  24.816  16.995  1.00  0.00    -0.324 N
ATOM     18  H1  UNL     1      19.577  24.737  16.572  1.00  0.00     0.169 HD
BRANCH  17  19
HETATM   19  C1  UNL     1      18.465  25.678  18.096  1.00  0.00     0.354 C
HETATM   20  O1  UNL     1      18.391  25.212  19.250  1.00  0.00    -0.283 OA
ENDBRANCH  17  19
BRANCH  16  21
HETATM   21  N6  UNL     1      16.401  24.251  17.126  1.00  0.00    -0.379 N
ATOM     22  H6  UNL     1      15.952  25.161  17.023  1.00  0.00     0.160 HD
BRANCH  21  23
HETATM   23  C13 UNL     1      15.673  23.273  17.897  1.00  0.00     0.123 C
BRANCH  23  24
HETATM   24  C14 UNL     1      14.264  23.602  18.181  1.00  0.00     0.046 C
BRANCH  24  25
HETATM   25  C15 UNL     1      13.223  23.188  17.214  1.00  0.00     0.169 C
BRANCH  25  26
HETATM   26  O4  UNL     1      12.820  21.948  17.161  1.00  0.00    -0.391 OA
BRANCH  26  27
HETATM   27  C16 UNL     1      12.743  21.037  18.124  1.00  0.00     0.172 C
BRANCH  27  28
HETATM   28  C17 UNL     1      11.260  20.817  18.574  1.00  0.00     0.009 C
HETATM   29  C18 UNL     1      11.176  19.531  19.329  1.00  0.00     0.007 C
HETATM   30  C19 UNL     1       9.795  19.322  19.861  1.00  0.00     0.000 C
HETATM   31  C20 UNL     1       8.937  20.553  19.873  1.00  0.00     0.000 C
HETATM   32  C21 UNL     1       9.698  21.801  20.281  1.00  0.00     0.000 C
HETATM   33  C22 UNL     1      10.985  21.945  19.528  1.00  0.00     0.007 C
ENDBRANCH  27  28
ENDBRANCH  26  27
ENDBRANCH  25  26
ENDBRANCH  24  25
ENDBRANCH  23  24
ENDBRANCH  21  23
ENDBRANCH  16  21
ENDBRANCH  15  16
ENDBRANCH  14  15
ENDBRANCH   1  14
BRANCH  11  34
HETATM   34  C7  UNL     1       9.910  18.697  15.587  1.00  0.00     0.129 C
BRANCH  34  35
HETATM   35  C8  UNL     1       9.552  17.378  16.186  1.00  0.00     0.007 C
HETATM   36  C9  UNL     1       8.352  17.562  17.124  1.00  0.00     0.032 C
HETATM   37  C10 UNL     1       8.057  16.208  17.722  1.00  0.00     0.168 C
HETATM   38  O3  UNL     1       7.723  15.249  16.784  1.00  0.00    -0.391 OA
HETATM   39  C11 UNL     1       7.781  15.733  15.481  1.00  0.00     0.168 C
HETATM   40  C12 UNL     1       9.092  16.376  15.139  1.00  0.00     0.032 C
ENDBRANCH  34  35
ENDBRANCH  11  34
TORSDOF 13
ENDMDL