MODEL 3
REMARK VINA RESULT: -8.633244197      3.933     10.647
REMARK  14 active torsions:
REMARK  status: ('A' for Active; 'I' for Inactive)
REMARK    1  A    between atoms: C2_2  and  C3_3
REMARK    2  A    between atoms: C3_3  and  N1_4
REMARK    3  A    between atoms: N1_4  and  C4_6
REMARK    4  A    between atoms: C7_11  and  N3_12
REMARK    5  A    between atoms: N3_12  and  C8_14
REMARK    6  A    between atoms: C11_17  and  N4_18
REMARK       I    between atoms: N4_18  and  C12_20
REMARK    7  A    between atoms: C12_20  and  C13_22
REMARK    8  A    between atoms: C13_22  and  C14_23
REMARK    9  A    between atoms: C14_23  and  C15_24
REMARK   10  A    between atoms: C15_24  and  C16_25
REMARK   11  A    between atoms: C16_25  and  C17_26
REMARK   12  A    between atoms: C17_26  and  C18_27
REMARK   13  A    between atoms: C18_27  and  O3_29
REMARK   14  A    between atoms: O3_29  and  C19_30
ROOT
HETATM    1  N3  UNL     1      12.601  20.127  18.612  1.00  0.00    -0.370 N
ATOM      2  H3  UNL     1      13.023  19.198  18.624  1.00  0.00     0.161 HD
ENDROOT
BRANCH   1   3
HETATM    3  C7  UNL     1      13.135  21.007  17.843  1.00  0.00     0.134 A
HETATM    4  C6  UNL     1      13.218  20.684  16.504  1.00  0.00     0.090 A
HETATM    5  C5  UNL     1      13.782  21.613  15.668  1.00  0.00     0.073 A
HETATM    6  C23 UNL     1      12.717  19.393  16.026  1.00  0.00     0.237 A
HETATM    7  N2  UNL     1      14.252  22.820  16.106  1.00  0.00    -0.190 N
HETATM    8  C26 UNL     1      13.883  21.295  14.249  1.00  0.00    -0.030 A
HETATM    9  C4  UNL     1      14.163  23.113  17.403  1.00  0.00     0.684 A
ATOM     10  H2  UNL     1      14.665  23.485  15.452  1.00  0.00     0.184 HD
HETATM   11  N5  UNL     1      13.597  22.177  18.234  1.00  0.00    -0.176 N
ATOM     12  H5  UNL     1      13.530  22.405  19.226  1.00  0.00     0.186 HD
HETATM   13  C25 UNL     1      13.441  20.140  13.784  1.00  0.00     0.068 A
HETATM   14  C27 UNL     1      14.497  22.293  13.302  1.00  0.00     0.050 C
HETATM   15  C24 UNL     1      12.837  19.117  14.604  1.00  0.00     0.223 A
HETATM   16  O5  UNL     1      12.416  18.021  14.172  1.00  0.00    -0.284 OA
HETATM   17  O4  UNL     1      12.216  18.600  16.858  1.00  0.00    -0.283 OA
BRANCH   9  18
HETATM   18  N1  UNL     1      14.564  24.178  17.891  1.00  0.00    -0.202 N
ATOM     19  H1  UNL     1      13.790  24.842  17.887  1.00  0.00     0.183 HD
BRANCH  18  20
HETATM   20  C3  UNL     1      15.661  24.801  18.435  1.00  0.00     0.105 C
BRANCH  20  21
HETATM   21  C2  UNL     1      15.654  25.162  19.873  1.00  0.00     0.007 C
HETATM   22  C1  UNL     1      16.643  25.815  20.458  1.00  0.00     0.012 C
ENDBRANCH  20  21
ENDBRANCH  18  20
ENDBRANCH   9  18
ENDBRANCH   1   3
BRANCH   1  23
HETATM   23  C8  UNL     1      11.450  20.347  19.462  1.00  0.00     0.083 C
HETATM   24  C9  UNL     1      10.322  21.013  18.723  1.00  0.00     0.027 C
HETATM   25  C10 UNL     1       9.003  20.952  19.413  1.00  0.00     0.027 C
HETATM   26  C11 UNL     1       8.565  19.556  19.800  1.00  0.00     0.084 C
HETATM   27  C21 UNL     1       9.718  18.627  19.401  1.00  0.00     0.027 C
HETATM   28  C22 UNL     1      10.940  19.105  20.119  1.00  0.00     0.027 C
BRANCH  26  29
HETATM   29  N4  UNL     1       7.334  19.171  19.192  1.00  0.00    -0.356 N
HETATM   30  C12 UNL     1       6.521  18.181  19.775  1.00  0.00     0.217 C
HETATM   31  O1  UNL     1       6.881  17.618  20.856  1.00  0.00    -0.274 OA
ATOM     32  H4  UNL     1       7.040  19.618  18.324  1.00  0.00     0.162 HD
BRANCH  30  33
HETATM   33  C13 UNL     1       5.247  17.796  19.128  1.00  0.00     0.103 C
BRANCH  33  34
HETATM   34  C14 UNL     1       5.493  16.564  18.290  1.00  0.00     0.009 C
BRANCH  34  35
HETATM   35  C15 UNL     1       5.308  16.785  16.827  1.00  0.00     0.001 C
BRANCH  35  36
HETATM   36  C16 UNL     1       6.212  15.871  16.050  1.00  0.00     0.010 C
BRANCH  36  37
HETATM   37  C17 UNL     1       7.624  16.088  16.561  1.00  0.00     0.111 C
BRANCH  37  38
HETATM   38  C18 UNL     1       8.555  15.832  15.418  1.00  0.00     0.258 C
HETATM   39  O2  UNL     1       8.685  14.709  14.897  1.00  0.00    -0.265 OA
BRANCH  38  40
HETATM   40  O3  UNL     1       9.289  16.896  14.940  1.00  0.00    -0.322 OA
BRANCH  40  41
HETATM   41  C19 UNL     1       8.953  17.558  13.745  1.00  0.00     0.174 C
HETATM   42  C20 UNL     1       8.099  18.771  14.042  1.00  0.00     0.034 C
ENDBRANCH  40  41
ENDBRANCH  38  40
ENDBRANCH  37  38
ENDBRANCH  36  37
ENDBRANCH  35  36
ENDBRANCH  34  35
ENDBRANCH  33  34
ENDBRANCH  30  33
ENDBRANCH  26  29
ENDBRANCH   1  23
TORSDOF 14
ENDMDL