MODEL 2
REMARK VINA RESULT: -7.830634250      2.128      8.094
REMARK  15 active torsions:
REMARK  status: ('A' for Active; 'I' for Inactive)
REMARK    1  A    between atoms: C2_2  and  C3_3
REMARK    2  A    between atoms: C3_3  and  C4_4
REMARK    3  A    between atoms: C4_4  and  C5_5
REMARK    4  A    between atoms: C5_5  and  C6_6
REMARK    5  A    between atoms: C6_6  and  O1_7
REMARK    6  A    between atoms: C6_6  and  C16_24
REMARK    7  A    between atoms: O1_7  and  C7_8
REMARK    8  A    between atoms: C7_8  and  C9_10
REMARK       I    between atoms: C9_10  and  N1_12
REMARK    9  A    between atoms: C10_13  and  O3_14
REMARK   10  A    between atoms: C13_19  and  C14_20
REMARK   11  A    between atoms: C14_20  and  C15_21
REMARK   12  A    between atoms: C16_24  and  O7_25
REMARK   13  A    between atoms: C16_24  and  C21_30
REMARK   14  A    between atoms: O7_25  and  C17_26
REMARK       I    between atoms: C21_30  and  N2_32
REMARK   15  A    between atoms: N2_32  and  C22_34
ROOT
HETATM    1  C6  UNL     1      12.892  20.813  17.249  1.00  0.00     0.160 C
ENDROOT
BRANCH   1   2
HETATM    2  C5  UNL     1      13.905  19.803  16.737  1.00  0.00     0.035 C
BRANCH   2   3
HETATM    3  C4  UNL     1      14.504  20.208  15.425  1.00  0.00     0.002 C
BRANCH   3   4
HETATM    4  C3  UNL     1      13.880  19.484  14.249  1.00  0.00    -0.000 C
BRANCH   4   5
HETATM    5  C2  UNL     1      13.353  20.595  13.334  1.00  0.00    -0.005 C
HETATM    6  C1  UNL     1      14.112  21.871  13.480  1.00  0.00     0.005 C
ENDBRANCH   4   5
ENDBRANCH   3   4
ENDBRANCH   2   3
ENDBRANCH   1   2
BRANCH   1   7
HETATM    7  O1  UNL     1      13.520  21.414  18.341  1.00  0.00    -0.368 OA
BRANCH   7   8
HETATM    8  C7  UNL     1      14.220  22.561  17.988  1.00  0.00     0.210 C
HETATM    9  C8  UNL     1      13.263  23.418  17.191  1.00  0.00     0.050 C
BRANCH   8  10
HETATM   10  C9  UNL     1      14.625  23.369  19.159  1.00  0.00     0.251 C
HETATM   11  O2  UNL     1      14.000  23.087  20.242  1.00  0.00    -0.270 OA
HETATM   12  N1  UNL     1      15.619  24.388  19.143  1.00  0.00    -0.311 N
HETATM   13  C10 UNL     1      15.921  25.104  20.405  1.00  0.00     0.230 C
HETATM   14  C13 UNL     1      16.434  24.919  18.101  1.00  0.00     0.169 C
HETATM   15  C11 UNL     1      17.124  25.940  20.154  1.00  0.00     0.134 C
HETATM   16  C12 UNL     1      17.094  26.121  18.695  1.00  0.00     0.154 C
HETATM   17  O4  UNL     1      17.531  27.080  18.088  1.00  0.00    -0.296 OA
BRANCH  13  18
HETATM   18  O3  UNL     1      16.029  24.226  21.459  1.00  0.00    -0.376 OA
ATOM     19  H3  UNL     1      15.293  24.313  22.053  1.00  0.00     0.212 HD
ENDBRANCH  13  18
BRANCH  14  20
HETATM   20  C14 UNL     1      17.523  24.042  17.581  1.00  0.00     0.146 C
BRANCH  20  21
HETATM   21  C15 UNL     1      17.635  23.958  16.127  1.00  0.00     0.174 C
HETATM   22  O5  UNL     1      18.544  24.567  15.527  1.00  0.00    -0.648 OA
HETATM   23  O6  UNL     1      16.739  23.205  15.397  1.00  0.00    -0.648 OA
ENDBRANCH  20  21
ENDBRANCH  14  20
ENDBRANCH   8  10
ENDBRANCH   7   8
ENDBRANCH   1   7
BRANCH   1  24
HETATM   24  C16 UNL     1      11.579  20.172  17.588  1.00  0.00     0.243 C
BRANCH  24  25
HETATM   25  O7  UNL     1      10.731  21.077  18.253  1.00  0.00    -0.364 OA
BRANCH  25  26
HETATM   26  C17 UNL     1      10.263  20.585  19.441  1.00  0.00     0.051 C
HETATM   27  C18 UNL     1      11.028  19.467  20.060  1.00  0.00     0.045 C
HETATM   28  C19 UNL     1       8.777  20.215  19.368  1.00  0.00     0.045 C
HETATM   29  C20 UNL     1      10.314  21.754  20.437  1.00  0.00     0.045 C
ENDBRANCH  25  26
ENDBRANCH  24  25
BRANCH  24  30
HETATM   30  C21 UNL     1      10.852  19.751  16.325  1.00  0.00     0.249 C
HETATM   31  O8  UNL     1      10.544  20.571  15.428  1.00  0.00    -0.271 OA
HETATM   32  N2  UNL     1      10.486  18.408  16.107  1.00  0.00    -0.351 N
ATOM     33  H2  UNL     1      10.722  17.719  16.821  1.00  0.00     0.163 HD
BRANCH  32  34
HETATM   34  C22 UNL     1       9.795  17.957  14.920  1.00  0.00     0.022 C
HETATM   35  C23 UNL     1       8.661  18.875  14.537  1.00  0.00     0.037 C
HETATM   36  C24 UNL     1       9.217  16.574  15.126  1.00  0.00     0.037 C
HETATM   37  C25 UNL     1      10.750  17.846  13.738  1.00  0.00     0.037 C
ENDBRANCH  32  34
ENDBRANCH  24  30
ENDBRANCH   1  24
TORSDOF 15
ENDMDL