MODEL 5
REMARK VINA RESULT: -8.651785070      2.426      5.536
REMARK  12 active torsions:
REMARK  status: ('A' for Active; 'I' for Inactive)
REMARK    1  A    between atoms: C2_2  and  C3_3
REMARK    2  A    between atoms: C3_3  and  C4_4
REMARK    3  A    between atoms: C4_4  and  C5_5
REMARK    4  A    between atoms: C5_5  and  N1_6
REMARK    5  A    between atoms: C9_15  and  C10_16
REMARK    6  A    between atoms: C13_21  and  O2_22
REMARK    7  A    between atoms: O2_22  and  C14_23
REMARK    8  A    between atoms: C14_23  and  C15_24
REMARK    9  A    between atoms: C15_24  and  N5_25
REMARK   10  A    between atoms: C16_27  and  C17_28
REMARK   11  A    between atoms: C17_28  and  C18_29
REMARK   12  A    between atoms: N7_35  and  O3_37
ROOT
HETATM    1  C10 UNL     1      15.224  22.765  14.227  1.00  0.00     0.134 A
HETATM    2  N4  UNL     1      15.300  23.387  13.056  1.00  0.00    -0.350 N
ATOM      3  H4  UNL     1      14.528  23.265  12.399  1.00  0.00     0.166 HD
HETATM    4  C11 UNL     1      16.325  24.166  12.682  1.00  0.00     0.094 A
HETATM    5  C12 UNL     1      17.365  24.329  13.572  1.00  0.00     0.073 A
HETATM    6  C13 UNL     1      17.313  23.685  14.815  1.00  0.00     0.145 A
HETATM    7  N8  UNL     1      16.236  22.922  15.096  1.00  0.00    -0.321 N
ATOM      8  H8  UNL     1      16.189  22.448  15.998  1.00  0.00     0.169 HD
ENDROOT
BRANCH   1   9
HETATM    9  C9  UNL     1      14.058  21.935  14.542  1.00  0.00     0.079 A
HETATM   10  N3  UNL     1      13.268  22.025  15.635  1.00  0.00    -0.339 N
HETATM   11  C8  UNL     1      12.288  21.089  15.577  1.00  0.00     0.124 A
ATOM     12  H3  UNL     1      13.392  22.697  16.392  1.00  0.00     0.167 HD
HETATM   13  N2  UNL     1      11.271  20.891  16.560  1.00  0.00    -0.311 N
HETATM   14  C24 UNL     1      12.472  20.390  14.405  1.00  0.00     0.078 A
HETATM   15  C7  UNL     1      10.124  20.055  16.424  1.00  0.00     0.241 C
ATOM     16  H2  UNL     1      11.374  21.394  17.441  1.00  0.00     0.170 HD
HETATM   17  C6  UNL     1       9.426  19.561  15.215  1.00  0.00     0.229 C
HETATM   18  O1  UNL     1       9.618  19.669  17.531  1.00  0.00    -0.271 OA
HETATM   19  N1  UNL     1      10.293  18.938  14.243  1.00  0.00    -0.339 N
HETATM   20  C25 UNL     1      11.637  19.282  13.933  1.00  0.00     0.258 C
HETATM   21  O4  UNL     1      12.239  18.511  13.108  1.00  0.00    -0.267 OA
HETATM   22  C23 UNL     1      13.557  20.921  13.788  1.00  0.00     0.054 A
BRANCH  19  23
HETATM   23  C5  UNL     1       9.793  17.845  13.465  1.00  0.00     0.127 C
BRANCH  23  24
HETATM   24  C4  UNL     1       8.524  17.233  13.952  1.00  0.00     0.020 C
BRANCH  24  25
HETATM   25  C3  UNL     1       8.672  15.777  14.334  1.00  0.00     0.001 C
BRANCH  25  26
HETATM   26  C2  UNL     1       7.758  14.964  13.413  1.00  0.00    -0.004 C
HETATM   27  C1  UNL     1       6.727  14.238  14.228  1.00  0.00     0.005 C
ENDBRANCH  25  26
ENDBRANCH  24  25
ENDBRANCH  23  24
ENDBRANCH  19  23
ENDBRANCH   1   9
BRANCH   6  28
HETATM   28  O2  UNL     1      18.372  23.864  15.693  1.00  0.00    -0.328 OA
BRANCH  28  29
HETATM   29  C14 UNL     1      18.128  24.192  17.048  1.00  0.00     0.255 C
BRANCH  29  30
HETATM   30  C15 UNL     1      18.615  25.515  17.417  1.00  0.00     0.125 C
HETATM   31  N7  UNL     1      18.590  25.901  18.639  1.00  0.00    -0.253 N
ATOM     32  H7  UNL     1      18.933  26.826  18.893  1.00  0.00     0.195 HD
BRANCH  30  33
HETATM   33  N5  UNL     1      19.133  26.415  16.445  1.00  0.00    -0.356 N
HETATM   34  C16 UNL     1      18.498  27.439  16.042  1.00  0.00     0.068 C
ATOM     35  H5  UNL     1      20.057  26.229  16.054  1.00  0.00     0.166 HD
BRANCH  34  36
HETATM   36  C17 UNL     1      19.125  28.315  15.025  1.00  0.00     0.101 C
BRANCH  36  37
HETATM   37  C18 UNL     1      18.872  27.878  13.640  1.00  0.00     0.013 A
HETATM   38  C19 UNL     1      17.719  28.158  12.908  1.00  0.00     0.026 A
HETATM   39  C20 UNL     1      17.855  27.581  11.660  1.00  0.00     0.019 A
HETATM   40  C21 UNL     1      19.098  26.959  11.670  1.00  0.00     0.088 A
HETATM   41  N6  UNL     1      19.686  27.147  12.857  1.00  0.00    -0.369 N
ATOM     42  H6  UNL     1      20.604  26.793  13.126  1.00  0.00     0.165 HD
ENDBRANCH  36  37
ENDBRANCH  34  36
ENDBRANCH  30  33
BRANCH  31  43
HETATM   43  O3  UNL     1      18.102  25.068  19.595  1.00  0.00    -0.284 OA
HETATM   44  C22 UNL     1      16.972  25.504  20.341  1.00  0.00     0.237 C
ENDBRANCH  31  43
ENDBRANCH  29  30
ENDBRANCH  28  29
ENDBRANCH   6  28
TORSDOF 12
ENDMDL