MODEL 3
REMARK VINA RESULT: -8.376069113      2.211      6.333
REMARK  16 active torsions:
REMARK  status: ('A' for Active; 'I' for Inactive)
REMARK    1  A    between atoms: C2_2  and  O1_3
REMARK    2  A    between atoms: O1_3  and  C3_4
REMARK    3  A    between atoms: C3_4  and  C4_6
REMARK    4  A    between atoms: C6_8  and  O3_9
REMARK    5  A    between atoms: C7_11  and  N1_12
REMARK    6  A    between atoms: N1_12  and  C9_14
REMARK    7  A    between atoms: N1_12  and  C17_24
REMARK    8  A    between atoms: C9_14  and  C10_15
REMARK    9  A    between atoms: C10_15  and  C11_16
REMARK   10  A    between atoms: C11_16  and  C13_18
REMARK   11  A    between atoms: C13_18  and  O4_19
REMARK   12  A    between atoms: C13_18  and  C14_21
REMARK   13  A    between atoms: C17_24  and  O5_25
REMARK   14  A    between atoms: O5_25  and  C18_26
REMARK   15  A    between atoms: C18_26  and  C19_28
REMARK   16  A    between atoms: C23_32  and  O7_34
ROOT
HETATM    1  N1  UNL     1      13.210  21.896  17.506  1.00  0.00    -0.040 N
HETATM    2  C8  UNL     1      13.779  20.956  18.455  1.00  0.00     0.276 C
ENDROOT
BRANCH   1   3
HETATM    3  C7  UNL     1      13.119  21.399  16.182  1.00  0.00     0.262 C
HETATM    4  C6  UNL     1      14.414  20.859  15.608  1.00  0.00     0.103 A
HETATM    5  C5  UNL     1      13.950  20.055  14.380  1.00  0.00     0.051 A
HETATM    6  C25 UNL     1      14.819  21.187  14.288  1.00  0.00     0.004 A
HETATM    7  C4  UNL     1      12.462  20.073  14.390  1.00  0.00     0.129 C
HETATM    8  C23 UNL     1      12.160  20.322  15.880  1.00  0.00     0.099 C
HETATM    9  C24 UNL     1      10.710  20.686  15.925  1.00  0.00     0.049 C
HETATM   10  C26 UNL     1      16.083  21.391  13.673  1.00  0.00     0.018 A
HETATM   11  C27 UNL     1      14.855  22.337  13.482  1.00  0.00    -0.006 A
HETATM   12  C28 UNL     1      14.271  22.294  12.081  1.00  0.00     0.011 C
BRANCH   4  13
HETATM   13  O3  UNL     1      15.277  20.131  16.421  1.00  0.00    -0.386 OA
ATOM     14  H3  UNL     1      15.899  19.617  15.917  1.00  0.00     0.210 HD
ENDBRANCH   4  13
BRANCH   7  15
HETATM   15  C3  UNL     1      11.863  18.785  13.958  1.00  0.00     0.266 C
HETATM   16  O2  UNL     1      12.396  17.682  14.240  1.00  0.00    -0.265 OA
BRANCH  15  17
HETATM   17  O1  UNL     1      10.685  18.750  13.222  1.00  0.00    -0.321 OA
BRANCH  17  18
HETATM   18  C2  UNL     1       9.627  17.935  13.622  1.00  0.00     0.174 C
HETATM   19  C1  UNL     1       8.362  18.666  13.943  1.00  0.00     0.034 C
ENDBRANCH  17  18
ENDBRANCH  15  17
ENDBRANCH   7  15
BRANCH   8  20
HETATM   20  O7  UNL     1      12.346  19.132  16.516  1.00  0.00    -0.387 OA
ATOM     21  H7  UNL     1      11.553  18.628  16.382  1.00  0.00     0.210 HD
ENDBRANCH   8  20
ENDBRANCH   1   3
BRANCH   1  22
HETATM   22  C9  UNL     1      11.886  22.326  17.920  1.00  0.00     0.240 C
BRANCH  22  23
HETATM   23  C10 UNL     1      11.567  22.037  19.350  1.00  0.00     0.034 C
BRANCH  23  24
HETATM   24  C11 UNL     1      10.205  21.378  19.439  1.00  0.00     0.012 C
HETATM   25  C12 UNL     1       9.567  21.754  20.737  1.00  0.00     0.012 C
BRANCH  24  26
HETATM   26  C13 UNL     1      10.297  19.879  19.351  1.00  0.00     0.125 C
BRANCH  26  27
HETATM   27  O4  UNL     1      10.845  19.436  20.570  1.00  0.00    -0.395 OA
ATOM     28  H4  UNL     1      10.128  19.069  21.073  1.00  0.00     0.210 HD
ENDBRANCH  26  27
BRANCH  26  29
HETATM   29  C14 UNL     1       8.941  19.214  19.239  1.00  0.00     0.006 C
HETATM   30  C15 UNL     1       8.787  18.160  20.328  1.00  0.00     0.012 C
HETATM   31  C16 UNL     1       8.924  18.487  17.894  1.00  0.00     0.012 C
ENDBRANCH  26  29
ENDBRANCH  24  26
ENDBRANCH  23  24
ENDBRANCH  22  23
ENDBRANCH   1  22
BRANCH   1  32
HETATM   32  C17 UNL     1      14.055  23.088  17.563  1.00  0.00     0.415 C
BRANCH  32  33
HETATM   33  O5  UNL     1      15.270  22.835  18.242  1.00  0.00    -0.293 OA
BRANCH  33  34
HETATM   34  C18 UNL     1      16.230  23.786  18.469  1.00  0.00     0.268 C
HETATM   35  O6  UNL     1      17.310  23.734  17.857  1.00  0.00    -0.264 OA
BRANCH  34  36
HETATM   36  C19 UNL     1      15.991  24.895  19.454  1.00  0.00     0.037 C
HETATM   37  C20 UNL     1      15.257  24.395  20.669  1.00  0.00     0.025 C
HETATM   38  C21 UNL     1      17.348  25.428  19.932  1.00  0.00     0.025 C
HETATM   39  C22 UNL     1      15.285  26.048  18.775  1.00  0.00     0.025 C
ENDBRANCH  34  36
ENDBRANCH  33  34
ENDBRANCH  32  33
ENDBRANCH   1  32
TORSDOF 16
ENDMDL