MODEL 5
REMARK VINA RESULT: -8.539373574      1.673      3.949
REMARK  13 active torsions:
REMARK  status: ('A' for Active; 'I' for Inactive)
REMARK    1  A    between atoms: C3_3  and  C4_4
REMARK    2  A    between atoms: C4_4  and  C5_5
REMARK    3  A    between atoms: C7_7  and  O1_8
REMARK    4  A    between atoms: C9_10  and  O2_11
REMARK    5  A    between atoms: C11_13  and  C12_14
REMARK    6  A    between atoms: C12_14  and  C13_15
REMARK    7  A    between atoms: C13_15  and  C14_16
REMARK    8  A    between atoms: C14_16  and  C15_17
REMARK    9  A    between atoms: C16_20  and  O5_21
REMARK   10  A    between atoms: N2_29  and  C19_30
REMARK   11  A    between atoms: C19_30  and  C20_31
REMARK   12  A    between atoms: C20_31  and  C21_32
REMARK   13  A    between atoms: C21_32  and  C22_33
ROOT
HETATM    1  C1  UNL     1      12.372  19.813  14.745  1.00  0.00     0.044 C
HETATM    2  C2  UNL     1      11.715  19.778  15.885  1.00  0.00     0.045 A
HETATM    3  C3  UNL     1      11.714  20.881  16.714  1.00  0.00     0.059 A
HETATM    4  C17 UNL     1      10.975  20.768  17.894  1.00  0.00     0.261 A
HETATM    5  O6  UNL     1      10.902  21.714  18.730  1.00  0.00    -0.267 OA
HETATM    6  N1  UNL     1      10.325  19.640  18.161  1.00  0.00    -0.275 N
ATOM      7  H1  UNL     1       9.788  19.569  19.026  1.00  0.00     0.173 HD
HETATM    8  C18 UNL     1      10.355  18.608  17.337  1.00  0.00     0.329 A
HETATM    9  O7  UNL     1       9.722  17.541  17.619  1.00  0.00    -0.246 OA
HETATM   10  N2  UNL     1      11.038  18.633  16.187  1.00  0.00    -0.299 N
ENDROOT
BRANCH   3  11
HETATM   11  C4  UNL     1      12.356  21.991  16.454  1.00  0.00     0.033 C
BRANCH  11  12
HETATM   12  C5  UNL     1      13.743  22.291  16.782  1.00  0.00     0.001 A
HETATM   13  C6  UNL     1      14.010  22.693  18.085  1.00  0.00     0.054 A
HETATM   14  C7  UNL     1      15.305  23.010  18.438  1.00  0.00     0.103 A
HETATM   15  C9  UNL     1      16.290  22.920  17.496  1.00  0.00     0.110 A
HETATM   16  C11 UNL     1      16.078  22.527  16.194  1.00  0.00     0.012 A
HETATM   17  C16 UNL     1      14.782  22.211  15.848  1.00  0.00     0.085 A
BRANCH  14  18
HETATM   18  O1  UNL     1      15.535  23.408  19.744  1.00  0.00    -0.353 OA
HETATM   19  C8  UNL     1      14.548  23.999  20.535  1.00  0.00     0.210 C
ENDBRANCH  14  18
BRANCH  15  20
HETATM   20  O2  UNL     1      17.577  23.243  17.877  1.00  0.00    -0.352 OA
HETATM   21  C10 UNL     1      17.946  24.606  17.900  1.00  0.00     0.210 C
ENDBRANCH  15  20
BRANCH  16  22
HETATM   22  C12 UNL     1      17.195  22.460  15.263  1.00  0.00     0.045 C
BRANCH  22  23
HETATM   23  C13 UNL     1      17.299  23.633  14.324  1.00  0.00     0.015 C
BRANCH  23  24
HETATM   24  C14 UNL     1      17.204  23.099  12.896  1.00  0.00     0.113 C
BRANCH  24  25
HETATM   25  C15 UNL     1      18.202  23.737  12.015  1.00  0.00     0.172 C
HETATM   26  O3  UNL     1      18.187  23.479  10.801  1.00  0.00    -0.648 OA
HETATM   27  O4  UNL     1      19.140  24.604  12.517  1.00  0.00    -0.648 OA
ENDBRANCH  24  25
ENDBRANCH  23  24
ENDBRANCH  22  23
ENDBRANCH  16  22
BRANCH  17  28
HETATM   28  O5  UNL     1      14.476  21.811  14.579  1.00  0.00    -0.359 OA
ATOM     29  H5  UNL     1      15.079  22.038  13.881  1.00  0.00     0.217 HD
ENDBRANCH  17  28
ENDBRANCH  11  12
ENDBRANCH   3  11
BRANCH  10  30
HETATM   30  C19 UNL     1      11.048  17.454  15.351  1.00  0.00     0.134 C
BRANCH  30  31
HETATM   31  C20 UNL     1       9.952  17.509  14.314  1.00  0.00     0.021 C
BRANCH  31  32
HETATM   32  C21 UNL     1       9.610  16.123  13.799  1.00  0.00     0.006 C
BRANCH  32  33
HETATM   33  C22 UNL     1       8.423  15.609  14.561  1.00  0.00    -0.014 C
HETATM   34  C23 UNL     1       7.620  14.649  13.690  1.00  0.00     0.004 C
HETATM   35  C24 UNL     1       6.632  13.943  14.588  1.00  0.00     0.000 C
HETATM   36  C25 UNL     1       6.172  14.819  15.734  1.00  0.00     0.000 C
HETATM   37  C26 UNL     1       6.172  16.288  15.329  1.00  0.00     0.000 C
HETATM   38  C27 UNL     1       7.565  16.769  15.027  1.00  0.00     0.004 C
ENDBRANCH  32  33
ENDBRANCH  31  32
ENDBRANCH  30  31
ENDBRANCH  10  30
TORSDOF 13
ENDMDL