MODEL 1
REMARK VINA RESULT: -8.680397725      0.000      0.000
REMARK  13 active torsions:
REMARK  status: ('A' for Active; 'I' for Inactive)
REMARK    1  A    between atoms: C2_2  and  N1_3
REMARK    2  A    between atoms: N1_3  and  C3_4
REMARK       I    between atoms: N1_3  and  C5_6
REMARK    3  A    between atoms: C5_6  and  C6_8
REMARK    4  A    between atoms: C7_13  and  N4_14
REMARK    5  A    between atoms: N4_14  and  S1_15
REMARK    6  A    between atoms: S1_15  and  C8_18
REMARK    7  A    between atoms: C12_22  and  C13_23
REMARK       I    between atoms: C13_23  and  N5_25
REMARK    8  A    between atoms: N5_25  and  C14_27
REMARK    9  A    between atoms: C14_27  and  C15_28
REMARK   10  A    between atoms: C15_28  and  C16_29
REMARK   11  A    between atoms: C16_29  and  C17_30
REMARK   12  A    between atoms: C17_30  and  C18_31
REMARK   13  A    between atoms: C18_31  and  C19_32
ROOT
HETATM    1  C6  UNL     1       9.361  16.251  15.190  1.00  0.00     0.123 A
HETATM    2  N2  UNL     1      10.091  16.592  14.113  1.00  0.00    -0.293 N
ATOM      3  H2  UNL     1       9.914  16.092  13.242  1.00  0.00     0.187 HD
HETATM    4  N3  UNL     1      11.013  17.520  14.104  1.00  0.00    -0.272 N
ATOM      5  H3  UNL     1      11.515  17.704  13.236  1.00  0.00     0.189 HD
HETATM    6  C7  UNL     1      11.324  18.243  15.204  1.00  0.00     0.224 A
HETATM    7  C12 UNL     1      10.581  17.925  16.383  1.00  0.00     0.100 A
HETATM    8  C22 UNL     1       9.632  16.954  16.376  1.00  0.00    -0.008 A
HETATM    9  C23 UNL     1       9.002  16.527  17.656  1.00  0.00     0.052 C
ENDROOT
BRANCH   7  10
HETATM   10  C13 UNL     1      10.928  18.715  17.577  1.00  0.00     0.257 C
HETATM   11  O4  UNL     1      11.739  18.191  18.418  1.00  0.00    -0.267 OA
HETATM   12  N5  UNL     1      10.443  19.995  17.855  1.00  0.00    -0.357 N
ATOM     13  H5  UNL     1       9.805  20.461  17.209  1.00  0.00     0.162 HD
BRANCH  12  14
HETATM   14  C14 UNL     1      10.864  20.649  19.080  1.00  0.00     0.123 C
BRANCH  14  15
HETATM   15  C15 UNL     1      11.764  21.796  18.740  1.00  0.00     0.020 C
BRANCH  15  16
HETATM   16  C16 UNL     1      13.037  21.733  19.531  1.00  0.00     0.002 C
BRANCH  16  17
HETATM   17  C17 UNL     1      13.960  22.837  19.133  1.00  0.00     0.006 C
BRANCH  17  18
HETATM   18  C18 UNL     1      14.412  23.696  20.305  1.00  0.00     0.058 C
BRANCH  18  19
HETATM   19  C19 UNL     1      15.614  24.462  19.919  1.00  0.00     0.025 A
HETATM   20  C20 UNL     1      16.821  24.530  20.575  1.00  0.00     0.113 A
HETATM   21  N6  UNL     1      17.662  25.320  19.906  1.00  0.00    -0.360 N
HETATM   22  C21 UNL     1      16.982  25.748  18.829  1.00  0.00     0.180 A
ATOM     23  H6  UNL     1      18.622  25.552  20.159  1.00  0.00     0.166 HD
HETATM   24  N7  UNL     1      15.744  25.240  18.822  1.00  0.00    -0.355 N
ATOM     25  H7  UNL     1      15.028  25.409  18.116  1.00  0.00     0.166 HD
ENDBRANCH  18  19
ENDBRANCH  17  18
ENDBRANCH  16  17
ENDBRANCH  15  16
ENDBRANCH  14  15
ENDBRANCH  12  14
ENDBRANCH   7  10
BRANCH   6  26
HETATM   26  N4  UNL     1      12.160  19.112  15.284  1.00  0.00    -0.301 NA
BRANCH  26  27
HETATM   27  S1  UNL     1      12.930  20.506  15.062  1.00  0.00     0.301 S
HETATM   28  O2  UNL     1      12.241  21.736  15.711  1.00  0.00    -0.191 OA
HETATM   29  O3  UNL     1      13.078  20.918  13.572  1.00  0.00    -0.191 OA
BRANCH  27  30
HETATM   30  C8  UNL     1      14.576  20.566  15.787  1.00  0.00     0.084 C
HETATM   31  C9  UNL     1      14.991  21.999  15.905  1.00  0.00     0.034 C
HETATM   32  C10 UNL     1      14.544  19.810  17.075  1.00  0.00     0.034 C
HETATM   33  C11 UNL     1      15.544  19.822  14.843  1.00  0.00     0.034 C
ENDBRANCH  27  30
ENDBRANCH  26  27
ENDBRANCH   6  26
BRANCH   1  34
HETATM   34  C5  UNL     1       8.305  15.270  15.109  1.00  0.00     0.272 C
HETATM   35  N1  UNL     1       6.920  15.545  15.194  1.00  0.00    -0.347 N
HETATM   36  O1  UNL     1       8.611  14.038  14.948  1.00  0.00    -0.266 OA
BRANCH  35  37
HETATM   37  C2  UNL     1       6.359  16.857  15.349  1.00  0.00     0.121 C
HETATM   38  C1  UNL     1       5.018  16.789  16.060  1.00  0.00     0.026 C
ENDBRANCH  35  37
BRANCH  35  39
HETATM   39  C3  UNL     1       5.963  14.396  15.122  1.00  0.00     0.121 C
HETATM   40  C4  UNL     1       6.019  13.826  13.738  1.00  0.00     0.026 C
ENDBRANCH  35  39
ENDBRANCH   1  34
TORSDOF 13
ENDMDL