MODEL 1
REMARK VINA RESULT: -8.993382709      0.000      0.000
REMARK  13 active torsions:
REMARK  status: ('A' for Active; 'I' for Inactive)
REMARK    1  A    between atoms: C2_2  and  C3_3
REMARK    2  A    between atoms: C3_3  and  C4_5
REMARK    3  A    between atoms: C4_5  and  C5_6
REMARK    4  A    between atoms: C5_6  and  C6_7
REMARK    5  A    between atoms: C6_7  and  C7_8
REMARK    6  A    between atoms: C7_8  and  C8_9
REMARK    7  A    between atoms: C8_9  and  C9_10
REMARK    8  A    between atoms: C9_10  and  C10_11
REMARK       I    between atoms: C10_11  and  N1_13
REMARK    9  A    between atoms: N1_13  and  C12_15
REMARK   10  A    between atoms: C12_15  and  C13_16
REMARK       I    between atoms: C13_16  and  N2_18
REMARK   11  A    between atoms: N2_18  and  C14_20
REMARK   12  A    between atoms: C20_26  and  O4_27
REMARK   13  A    between atoms: C22_31  and  O5_32
ROOT
HETATM    1  C14 UNL     1      11.581  19.368  18.805  1.00  0.00     0.141 C
HETATM    2  C15 UNL     1      11.132  20.744  19.268  1.00  0.00     0.030 C
HETATM    3  C16 UNL     1      12.197  21.723  18.977  1.00  0.00     0.014 C
HETATM    4  C17 UNL     1      12.269  22.249  17.602  1.00  0.00     0.058 C
HETATM    5  C18 UNL     1      13.730  22.392  17.249  1.00  0.00     0.013 A
HETATM    6  C19 UNL     1      14.082  21.435  16.330  1.00  0.00     0.040 A
HETATM    7  C20 UNL     1      15.416  21.613  16.048  1.00  0.00     0.154 A
HETATM    8  N3  UNL     1      15.892  22.643  16.760  1.00  0.00    -0.312 N
HETATM    9  C21 UNL     1      17.277  23.145  16.736  1.00  0.00     0.160 C
HETATM   10  C22 UNL     1      14.875  23.123  17.494  1.00  0.00     0.151 A
HETATM   11  C23 UNL     1      12.907  20.584  15.998  1.00  0.00     0.121 C
HETATM   12  C24 UNL     1      12.766  20.310  14.537  1.00  0.00     0.054 C
HETATM   13  O6  UNL     1      12.857  19.464  16.804  1.00  0.00    -0.339 OA
HETATM   14  C25 UNL     1      11.585  19.335  17.306  1.00  0.00     0.345 C
HETATM   15  N4  UNL     1      10.781  20.423  16.811  1.00  0.00    -0.039 N
ATOM     16  H41 UNL     1      10.039  20.726  17.441  1.00  0.00     0.281 HD
ATOM     17  H42 UNL     1      10.163  20.181  16.036  1.00  0.00     0.281 HD
HETATM   18  C26 UNL     1      11.757  21.424  16.508  1.00  0.00     0.236 C
ENDROOT
BRANCH   1  19
HETATM   19  N2  UNL     1      10.665  18.343  19.266  1.00  0.00    -0.351 N
HETATM   20  C13 UNL     1       9.262  18.414  19.211  1.00  0.00     0.235 C
HETATM   21  O3  UNL     1       8.705  19.421  18.741  1.00  0.00    -0.272 OA
ATOM     22  H2  UNL     1      11.074  17.498  19.664  1.00  0.00     0.163 HD
BRANCH  20  23
HETATM   23  C12 UNL     1       8.439  17.290  19.712  1.00  0.00     0.227 C
BRANCH  23  24
HETATM   24  N1  UNL     1       7.247  17.146  18.880  1.00  0.00    -0.348 N
HETATM   25  C10 UNL     1       7.212  16.189  17.802  1.00  0.00     0.219 C
HETATM   26  O2  UNL     1       8.239  15.480  17.679  1.00  0.00    -0.273 OA
HETATM   27  C11 UNL     1       6.105  17.978  19.121  1.00  0.00     0.153 C
BRANCH  25  28
HETATM   28  C9  UNL     1       6.020  16.100  16.939  1.00  0.00     0.103 C
BRANCH  28  29
HETATM   29  C8  UNL     1       6.297  15.983  15.479  1.00  0.00     0.009 C
BRANCH  29  30
HETATM   30  C7  UNL     1       6.410  14.571  14.965  1.00  0.00     0.000 C
BRANCH  30  31
HETATM   31  C6  UNL     1       7.429  14.491  13.834  1.00  0.00     0.000 C
BRANCH  31  32
HETATM   32  C5  UNL     1       8.793  14.862  14.316  1.00  0.00     0.007 C
BRANCH  32  33
HETATM   33  C4  UNL     1       9.476  15.946  13.565  1.00  0.00     0.078 C
BRANCH  33  34
HETATM   34  C3  UNL     1      10.008  17.055  14.371  1.00  0.00     0.126 C
HETATM   35  O1  UNL     1      11.221  17.137  14.494  1.00  0.00    -0.298 OA
BRANCH  34  36
HETATM   36  C2  UNL     1       9.170  18.074  15.041  1.00  0.00     0.074 C
HETATM   37  C1  UNL     1       8.146  18.614  14.083  1.00  0.00     0.013 C
ENDBRANCH  34  36
ENDBRANCH  33  34
ENDBRANCH  32  33
ENDBRANCH  31  32
ENDBRANCH  30  31
ENDBRANCH  29  30
ENDBRANCH  28  29
ENDBRANCH  25  28
ENDBRANCH  23  24
ENDBRANCH  20  23
ENDBRANCH   1  19
BRANCH  10  38
HETATM   38  O5  UNL     1      14.986  24.203  18.368  1.00  0.00    -0.345 OA
ATOM     39  H5  UNL     1      15.343  25.057  18.157  1.00  0.00     0.219 HD
ENDBRANCH  10  38
BRANCH   7  40
HETATM   40  O4  UNL     1      16.200  20.851  15.152  1.00  0.00    -0.345 OA
ATOM     41  H4  UNL     1      17.073  20.512  15.308  1.00  0.00     0.219 HD
ENDBRANCH   7  40
TORSDOF 13
ENDMDL