MODEL 4
REMARK VINA RESULT: -8.701259780      1.250      1.618
REMARK  14 active torsions:
REMARK  status: ('A' for Active; 'I' for Inactive)
REMARK    1  A    between atoms: C2_2  and  N1_3
REMARK    2  A    between atoms: N1_3  and  C4_5
REMARK    3  A    between atoms: C4_5  and  O1_6
REMARK    4  A    between atoms: C4_5  and  C5_8
REMARK    5  A    between atoms: C9_14  and  C10_15
REMARK    6  A    between atoms: C12_17  and  C13_18
REMARK    7  A    between atoms: C13_18  and  C14_19
REMARK    8  A    between atoms: C14_19  and  O2_22
REMARK    9  A    between atoms: C19_28  and  O3_29
REMARK   10  A    between atoms: O3_29  and  C20_30
REMARK   11  A    between atoms: C20_30  and  C21_31
REMARK       I    between atoms: C21_31  and  N4_33
REMARK   12  A    between atoms: N4_33  and  C22_35
REMARK   13  A    between atoms: C22_35  and  C23_36
REMARK   14  A    between atoms: C23_36  and  N5_37
ROOT
HETATM    1  C10 UNL     1      11.452  18.503  16.056  1.00  0.00     0.060 A
HETATM    2  C11 UNL     1      10.582  17.987  15.097  1.00  0.00     0.028 A
HETATM    3  C12 UNL     1       9.438  17.262  15.448  1.00  0.00    -0.032 A
HETATM    4  C17 UNL     1       9.227  17.095  16.780  1.00  0.00     0.013 A
HETATM    5  C18 UNL     1       8.038  16.397  17.326  1.00  0.00     0.068 C
HETATM    6  N3  UNL     1      10.097  17.613  17.703  1.00  0.00    -0.340 N
ATOM      7  H3  UNL     1       9.897  17.462  18.692  1.00  0.00     0.168 HD
HETATM    8  C19 UNL     1      11.194  18.307  17.378  1.00  0.00     0.157 A
ENDROOT
BRANCH   1   9
HETATM    9  C9  UNL     1      12.632  19.265  15.624  1.00  0.00     0.121 A
HETATM   10  N2  UNL     1      13.932  19.023  15.771  1.00  0.00    -0.340 N
HETATM   11  C8  UNL     1      14.685  20.015  15.212  1.00  0.00     0.060 A
ATOM     12  H2  UNL     1      14.316  18.202  16.240  1.00  0.00     0.167 HD
HETATM   13  C7  UNL     1      16.021  20.248  15.092  1.00  0.00     0.033 A
HETATM   14  C26 UNL     1      13.799  20.917  14.690  1.00  0.00     0.061 A
HETATM   15  C6  UNL     1      16.536  21.389  14.448  1.00  0.00     0.018 A
HETATM   16  C5  UNL     1      15.660  22.298  13.924  1.00  0.00     0.017 A
HETATM   17  C27 UNL     1      14.280  22.038  14.059  1.00  0.00     0.047 A
HETATM   18  N6  UNL     1      12.563  20.455  14.944  1.00  0.00    -0.340 N
ATOM     19  H6  UNL     1      11.698  20.921  14.671  1.00  0.00     0.167 HD
BRANCH  16  20
HETATM   20  C4  UNL     1      16.091  23.506  13.253  1.00  0.00     0.148 C
BRANCH  20  21
HETATM   21  N1  UNL     1      17.331  23.946  12.843  1.00  0.00    -0.366 N
HETATM   22  C3  UNL     1      18.199  23.470  11.798  1.00  0.00     0.151 C
BRANCH  21  23
HETATM   23  C2  UNL     1      17.893  25.109  13.591  1.00  0.00     0.120 C
HETATM   24  C1  UNL     1      17.986  26.296  12.687  1.00  0.00     0.026 C
ENDBRANCH  21  23
ENDBRANCH  20  21
BRANCH  20  25
HETATM   25  O1  UNL     1      15.111  24.326  12.990  1.00  0.00    -0.346 OA
ATOM     26  H1  UNL     1      14.632  24.125  12.195  1.00  0.00     0.219 HD
ENDBRANCH  20  25
ENDBRANCH  16  20
ENDBRANCH   1   9
BRANCH   8  27
HETATM   27  O3  UNL     1      11.994  18.774  18.387  1.00  0.00    -0.326 OA
BRANCH  27  28
HETATM   28  C20 UNL     1      11.937  19.976  19.063  1.00  0.00     0.280 C
BRANCH  28  29
HETATM   29  C21 UNL     1      12.791  21.056  18.546  1.00  0.00     0.242 C
HETATM   30  O4  UNL     1      12.309  21.976  17.849  1.00  0.00    -0.271 OA
HETATM   31  N4  UNL     1      14.179  21.080  18.826  1.00  0.00    -0.355 N
ATOM     32  H4  UNL     1      14.588  20.339  19.395  1.00  0.00     0.162 HD
BRANCH  31  33
HETATM   33  C22 UNL     1      15.028  22.136  18.320  1.00  0.00     0.166 C
BRANCH  33  34
HETATM   34  C23 UNL     1      15.255  23.275  19.235  1.00  0.00     0.076 C
BRANCH  34  35
HETATM   35  N5  UNL     1      16.358  24.100  19.078  1.00  0.00    -0.400 N
HETATM   36  C24 UNL     1      17.282  23.950  18.048  1.00  0.00     0.148 C
HETATM   37  C25 UNL     1      16.882  24.535  20.348  1.00  0.00     0.148 C
ENDBRANCH  34  35
ENDBRANCH  33  34
ENDBRANCH  31  33
ENDBRANCH  28  29
ENDBRANCH  27  28
ENDBRANCH   8  27
BRANCH   3  38
HETATM   38  C13 UNL     1       8.617  16.725  14.386  1.00  0.00     0.077 C
BRANCH  38  39
HETATM   39  C14 UNL     1       8.988  15.429  13.779  1.00  0.00     0.054 C
HETATM   40  C15 UNL     1       8.245  14.965  12.581  1.00  0.00     0.045 C
HETATM   41  C16 UNL     1      10.460  15.570  13.335  1.00  0.00     0.045 C
BRANCH  39  42
HETATM   42  O2  UNL     1       9.051  14.395  14.759  1.00  0.00    -0.390 OA
ATOM     43  H2  UNL     1       8.189  14.190  15.102  1.00  0.00     0.210 HD
ENDBRANCH  39  42
ENDBRANCH  38  39
ENDBRANCH   3  38
TORSDOF 14
ENDMDL