MODEL 4
REMARK VINA RESULT: -7.970188490      2.167      5.035
REMARK  11 active torsions:
REMARK  status: ('A' for Active; 'I' for Inactive)
REMARK    1  A    between atoms: O1_2  and  C2_3
REMARK    2  A    between atoms: C11_14  and  O4_15
REMARK    3  A    between atoms: O4_15  and  C12_16
REMARK    4  A    between atoms: C12_16  and  C13_17
REMARK       I    between atoms: C13_17  and  N1_19
REMARK    5  A    between atoms: N1_19  and  C14_21
REMARK    6  A    between atoms: C14_21  and  C15_22
REMARK    7  A    between atoms: C14_21  and  C21_30
REMARK    8  A    between atoms: C15_22  and  C16_23
REMARK    9  A    between atoms: C16_23  and  C17_24
REMARK   10  A    between atoms: C17_24  and  C18_25
REMARK   11  A    between atoms: C18_25  and  N2_26
REMARK       I    between atoms: N2_26  and  C19_27
ROOT
HETATM    1  C2  UNL     1      11.110  19.204  18.995  1.00  0.00     0.200 C
HETATM    2  O2  UNL     1      11.998  18.290  18.322  1.00  0.00    -0.321 OA
HETATM    3  C3  UNL     1      11.322  17.682  17.281  1.00  0.00     0.269 C
HETATM    4  O3  UNL     1      12.227  17.586  16.236  1.00  0.00    -0.355 OA
HETATM    5  C4  UNL     1      11.822  17.988  14.995  1.00  0.00     0.124 C
HETATM    6  C5  UNL     1      10.883  17.000  14.317  1.00  0.00     0.040 C
HETATM    7  C6  UNL     1      11.343  19.422  14.903  1.00  0.00     0.015 C
HETATM    8  C7  UNL     1      12.387  20.324  14.285  1.00  0.00     0.013 C
HETATM    9  C8  UNL     1      11.263  19.834  16.391  1.00  0.00     0.001 C
HETATM   10  C9  UNL     1      10.967  21.250  16.623  1.00  0.00     0.008 C
HETATM   11  C10 UNL     1      11.196  21.595  18.042  1.00  0.00     0.038 C
HETATM   12  C11 UNL     1      11.750  20.574  18.982  1.00  0.00     0.185 C
HETATM   13  C22 UNL     1      10.352  18.804  16.929  1.00  0.00     0.059 C
HETATM   14  C23 UNL     1       9.823  19.028  18.329  1.00  0.00     0.020 C
HETATM   15  C24 UNL     1       9.273  17.626  18.731  1.00  0.00     0.021 C
HETATM   16  C25 UNL     1       8.714  19.946  18.487  1.00  0.00     0.021 C
ENDROOT
BRANCH  12  17
HETATM   17  O4  UNL     1      13.036  20.450  18.869  1.00  0.00    -0.371 OA
BRANCH  17  18
HETATM   18  C12 UNL     1      14.226  20.623  18.665  1.00  0.00     0.271 C
BRANCH  18  19
HETATM   19  C13 UNL     1      14.713  21.648  17.661  1.00  0.00     0.242 C
HETATM   20  O5  UNL     1      14.171  22.813  17.692  1.00  0.00    -0.271 OA
HETATM   21  N1  UNL     1      15.701  21.385  16.726  1.00  0.00    -0.345 N
ATOM     22  H1  UNL     1      16.160  20.477  16.656  1.00  0.00     0.163 HD
BRANCH  21  23
HETATM   23  C14 UNL     1      16.053  22.561  15.805  1.00  0.00     0.185 C
BRANCH  23  24
HETATM   24  C15 UNL     1      17.462  22.777  16.091  1.00  0.00     0.037 C
BRANCH  24  25
HETATM   25  C16 UNL     1      17.884  23.649  17.181  1.00  0.00     0.008 C
BRANCH  25  26
HETATM   26  C17 UNL     1      18.340  25.009  16.865  1.00  0.00     0.060 C
BRANCH  26  27
HETATM   27  C18 UNL     1      17.938  26.042  17.905  1.00  0.00     0.159 C
BRANCH  27  28
HETATM   28  N2  UNL     1      17.320  25.443  18.983  1.00  0.00    -0.388 NA
HETATM   29  C19 UNL     1      16.732  24.847  20.050  1.00  0.00     0.286 C
HETATM   30  C20 UNL     1      15.218  24.944  20.182  1.00  0.00     0.135 C
HETATM   31  O6  UNL     1      17.297  24.199  20.971  1.00  0.00    -0.258 OA
ENDBRANCH  27  28
ENDBRANCH  26  27
ENDBRANCH  25  26
ENDBRANCH  24  25
ENDBRANCH  23  24
BRANCH  23  32
HETATM   32  C21 UNL     1      15.614  22.039  14.481  1.00  0.00     0.196 C
HETATM   33  O7  UNL     1      15.828  20.769  14.248  1.00  0.00    -0.646 OA
HETATM   34  O8  UNL     1      15.014  22.722  13.516  1.00  0.00    -0.646 OA
ENDBRANCH  23  32
ENDBRANCH  21  23
ENDBRANCH  18  19
ENDBRANCH  17  18
ENDBRANCH  12  17
BRANCH   1  35
HETATM   35  O1  UNL     1      11.181  18.691  20.268  1.00  0.00    -0.357 OA
HETATM   36  C1  UNL     1      10.572  19.240  21.300  1.00  0.00     0.205 C
ENDBRANCH   1  35
TORSDOF 11
ENDMDL