MODEL 4
REMARK VINA RESULT: -8.038346421      5.335     10.350
REMARK  12 active torsions:
REMARK  status: ('A' for Active; 'I' for Inactive)
REMARK    1  A    between atoms: C2_2  and  C3_3
REMARK    2  A    between atoms: C2_2  and  C13_17
REMARK    3  A    between atoms: C3_3  and  N1_4
REMARK    4  A    between atoms: N1_4  and  C4_6
REMARK    5  A    between atoms: C4_6  and  C5_7
REMARK    6  A    between atoms: C5_7  and  N2_8
REMARK    7  A    between atoms: N2_8  and  C6_10
REMARK    8  A    between atoms: C13_17  and  N3_18
REMARK    9  A    between atoms: C15_20  and  O1_21
REMARK   10  A    between atoms: C15_20  and  C17_23
REMARK   11  A    between atoms: N5_33  and  C25_34
REMARK   12  A    between atoms: C28_37  and  O2_38
ROOT
HETATM    1  N3  UNL     1      12.840  20.531  15.782  1.00  0.00    -0.298 N
HETATM    2  C14 UNL     1      11.674  19.845  15.444  1.00  0.00     0.127 C
HETATM    3  C15 UNL     1      11.125  18.882  16.522  1.00  0.00     0.130 C
HETATM    4  C22 UNL     1      11.055  19.634  17.782  1.00  0.00     0.066 C
HETATM    5  C23 UNL     1      10.619  18.890  19.014  1.00  0.00     0.019 C
HETATM    6  C24 UNL     1      12.382  20.229  18.121  1.00  0.00     0.091 C
HETATM    7  N5  UNL     1      13.062  20.809  17.069  1.00  0.00    -0.300 N
ENDROOT
BRANCH   1   8
HETATM    8  C13 UNL     1      13.981  20.231  14.985  1.00  0.00     0.183 C
BRANCH   8   9
HETATM    9  C2  UNL     1      14.263  21.267  13.941  1.00  0.00    -0.052 C
HETATM   10  C1  UNL     1      13.676  21.221  12.780  1.00  0.00     0.017 C
BRANCH   9  11
HETATM   11  C3  UNL     1      15.283  22.261  14.266  1.00  0.00     0.149 C
BRANCH  11  12
HETATM   12  N1  UNL     1      16.600  21.886  14.623  1.00  0.00    -0.413 N
ATOM     13  H1  UNL     1      16.780  21.223  15.377  1.00  0.00     0.153 HD
BRANCH  12  14
HETATM   14  C4  UNL     1      17.669  22.477  13.880  1.00  0.00     0.158 C
BRANCH  14  15
HETATM   15  C5  UNL     1      17.388  23.709  13.118  1.00  0.00     0.075 C
BRANCH  15  16
HETATM   16  N2  UNL     1      17.291  24.963  13.735  1.00  0.00    -0.396 N
ATOM     17  H2  UNL     1      16.528  25.170  14.379  1.00  0.00     0.159 HD
BRANCH  16  18
HETATM   18  C6  UNL     1      18.286  25.944  13.440  1.00  0.00     0.085 C
HETATM   19  C7  UNL     1      18.964  25.720  12.078  1.00  0.00     0.030 C
HETATM   20  C8  UNL     1      18.834  27.192  11.829  1.00  0.00    -0.006 C
HETATM   21  C9  UNL     1      18.253  27.553  10.476  1.00  0.00     0.005 C
HETATM   22  C12 UNL     1      17.663  27.192  12.789  1.00  0.00     0.012 C
HETATM   23  C10 UNL     1      16.851  26.972  10.506  1.00  0.00     0.001 C
HETATM   24  C11 UNL     1      16.441  26.876  11.952  1.00  0.00     0.007 C
ENDBRANCH  16  18
ENDBRANCH  15  16
ENDBRANCH  14  15
ENDBRANCH  12  14
ENDBRANCH  11  12
ENDBRANCH   9  11
ENDBRANCH   8   9
ENDBRANCH   1   8
BRANCH   7  25
HETATM   25  C25 UNL     1      13.779  22.021  17.383  1.00  0.00     0.107 C
HETATM   26  C26 UNL     1      13.112  22.726  18.509  1.00  0.00     0.030 C
HETATM   27  C27 UNL     1      14.018  23.378  19.497  1.00  0.00     0.034 C
HETATM   28  C28 UNL     1      15.350  23.808  18.989  1.00  0.00     0.118 C
HETATM   29  C29 UNL     1      15.985  22.891  17.988  1.00  0.00     0.034 C
HETATM   30  C30 UNL     1      15.183  21.615  17.930  1.00  0.00     0.030 C
BRANCH  28  31
HETATM   31  O2  UNL     1      16.189  23.900  20.126  1.00  0.00    -0.396 OA
ATOM     32  H2  UNL     1      16.315  24.828  20.282  1.00  0.00     0.210 HD
ENDBRANCH  28  31
ENDBRANCH   7  25
BRANCH   3  33
HETATM   33  O1  UNL     1      11.969  17.834  16.523  1.00  0.00    -0.374 OA
HETATM   34  C16 UNL     1      12.231  17.082  15.440  1.00  0.00     0.203 C
ENDBRANCH   3  33
BRANCH   3  35
HETATM   35  C17 UNL     1       9.800  18.481  15.966  1.00  0.00    -0.003 A
HETATM   36  C18 UNL     1       9.413  18.818  14.705  1.00  0.00     0.013 A
HETATM   37  C19 UNL     1       8.175  18.408  14.240  1.00  0.00     0.018 A
HETATM   38  C20 UNL     1       7.359  17.670  15.060  1.00  0.00     0.087 A
HETATM   39  N4  UNL     1       7.784  17.360  16.313  1.00  0.00    -0.375 N
HETATM   40  C21 UNL     1       8.982  17.753  16.770  1.00  0.00     0.098 A
ATOM     41  H4  UNL     1       7.175  16.813  16.922  1.00  0.00     0.164 HD
ENDBRANCH   3  35
TORSDOF 12
ENDMDL