MODEL 3
REMARK VINA RESULT: -8.818862470      2.336     11.108
REMARK  13 active torsions:
REMARK  status: ('A' for Active; 'I' for Inactive)
REMARK    1  A    between atoms: C2_2  and  N1_3
REMARK    2  A    between atoms: N1_3  and  C3_4
REMARK    3  A    between atoms: N1_3  and  C5_6
REMARK    4  A    between atoms: C5_6  and  C6_7
REMARK    5  A    between atoms: C6_7  and  N2_8
REMARK       I    between atoms: N2_8  and  C7_10
REMARK    6  A    between atoms: C7_10  and  C8_12
REMARK    7  A    between atoms: C8_12  and  C9_13
REMARK    8  A    between atoms: C9_13  and  C10_14
REMARK    9  A    between atoms: C11_15  and  C12_16
REMARK   10  A    between atoms: C13_18  and  O3_19
REMARK   11  A    between atoms: C14_21  and  C15_22
REMARK   12  A    between atoms: C15_22  and  O4_24
REMARK   13  A    between atoms: C20_31  and  C21_32
ROOT
HETATM    1  C10 UNL     1      11.627  19.218  15.818  1.00  0.00     0.009 C
HETATM    2  C11 UNL     1      11.046  20.143  16.677  1.00  0.00     0.046 C
HETATM    3  C13 UNL     1      10.299  19.817  17.819  1.00  0.00     0.093 C
HETATM    4  C14 UNL     1       9.648  18.562  18.025  1.00  0.00     0.038 C
HETATM    5  C17 UNL     1       9.228  17.737  17.004  1.00  0.00    -0.004 A
HETATM    6  C18 UNL     1       7.993  17.184  17.268  1.00  0.00     0.043 A
HETATM    7  C19 UNL     1       7.417  16.297  16.389  1.00  0.00     0.044 A
HETATM    8  N3  UNL     1       6.219  15.743  16.627  1.00  0.00    -0.351 N
ATOM      9  H3  UNL     1       5.726  15.994  17.485  1.00  0.00     0.166 HD
HETATM   10  C20 UNL     1       5.640  14.875  15.787  1.00  0.00     0.099 A
HETATM   11  C22 UNL     1       6.294  14.531  14.627  1.00  0.00     0.042 A
HETATM   12  C23 UNL     1       7.525  15.060  14.319  1.00  0.00    -0.047 A
HETATM   13  C24 UNL     1       8.208  14.671  13.067  1.00  0.00     0.049 C
HETATM   14  C25 UNL     1       8.084  15.948  15.209  1.00  0.00    -0.003 A
HETATM   15  C26 UNL     1       9.324  16.522  14.965  1.00  0.00     0.030 A
HETATM   16  C27 UNL     1       9.893  17.409  15.846  1.00  0.00     0.027 A
HETATM   17  C28 UNL     1      11.089  17.977  15.421  1.00  0.00     0.190 C
HETATM   18  O6  UNL     1      11.717  17.286  14.604  1.00  0.00    -0.287 OA
ENDROOT
BRANCH   1  19
HETATM   19  C9  UNL     1      12.928  19.599  15.274  1.00  0.00     0.053 C
BRANCH  19  20
HETATM   20  C8  UNL     1      13.968  19.565  16.379  1.00  0.00     0.107 C
BRANCH  20  21
HETATM   21  C7  UNL     1      14.963  20.683  16.186  1.00  0.00     0.217 C
HETATM   22  N2  UNL     1      15.060  21.640  17.226  1.00  0.00    -0.360 N
ATOM     23  H2  UNL     1      14.466  21.521  18.046  1.00  0.00     0.162 HD
HETATM   24  O1  UNL     1      15.653  20.724  15.133  1.00  0.00    -0.274 OA
BRANCH  22  25
HETATM   25  C6  UNL     1      15.962  22.788  17.192  1.00  0.00     0.142 C
BRANCH  25  26
HETATM   26  C5  UNL     1      15.834  23.533  18.470  1.00  0.00     0.141 C
BRANCH  26  27
HETATM   27  N1  UNL     1      17.057  24.100  18.964  1.00  0.00    -0.393 N
BRANCH  27  28
HETATM   28  C2  UNL     1      17.911  24.678  17.999  1.00  0.00     0.117 C
HETATM   29  C1  UNL     1      17.824  26.200  18.140  1.00  0.00     0.026 C
ENDBRANCH  27  28
BRANCH  27  30
HETATM   30  C3  UNL     1      17.024  24.662  20.251  1.00  0.00     0.054 C
HETATM   31  C4  UNL     1      15.736  24.449  21.009  1.00  0.00     0.054 C
ENDBRANCH  27  30
ENDBRANCH  26  27
ENDBRANCH  25  26
ENDBRANCH  22  25
ENDBRANCH  20  21
ENDBRANCH  19  20
ENDBRANCH   1  19
BRANCH   2  32
HETATM   32  C12 UNL     1      11.207  21.565  16.411  1.00  0.00     0.273 C
HETATM   33  O2  UNL     1      11.799  22.395  17.114  1.00  0.00    -0.301 OA
ENDBRANCH   2  32
BRANCH   3  34
HETATM   34  O3  UNL     1      10.170  20.725  18.809  1.00  0.00    -0.359 OA
ATOM     35  H3  UNL     1      10.643  20.600  19.623  1.00  0.00     0.217 HD
ENDBRANCH   3  34
BRANCH   4  36
HETATM   36  C15 UNL     1       9.403  18.176  19.371  1.00  0.00     0.053 C
HETATM   37  C16 UNL     1       8.162  18.078  20.121  1.00  0.00     0.077 C
BRANCH  36  38
HETATM   38  O4  UNL     1      10.461  17.837  20.049  1.00  0.00    -0.364 OA
ATOM     39  H4  UNL     1      10.319  17.165  20.706  1.00  0.00     0.217 HD
ENDBRANCH  36  38
ENDBRANCH   4  36
BRANCH  10  40
HETATM   40  C21 UNL     1       4.331  14.319  16.112  1.00  0.00     0.281 C
HETATM   41  N4  UNL     1       3.893  13.078  15.600  1.00  0.00    -0.056 NA
HETATM   42  O5  UNL     1       3.556  14.951  16.870  1.00  0.00    -0.269 OA
ENDBRANCH  10  40
TORSDOF 13
ENDMDL