MODEL 5
REMARK VINA RESULT: -8.621574664      1.935      3.580
REMARK  10 active torsions:
REMARK  status: ('A' for Active; 'I' for Inactive)
REMARK    1  A    between atoms: C2_2  and  C3_3
REMARK    2  A    between atoms: C3_3  and  C4_4
REMARK    3  A    between atoms: C4_4  and  N1_5
REMARK    4  A    between atoms: C4_4  and  C16_22
REMARK       I    between atoms: N1_5  and  C5_7
REMARK    5  A    between atoms: C5_7  and  C6_9
REMARK    6  A    between atoms: C6_9  and  C7_10
REMARK    7  A    between atoms: C6_9  and  N2_17
REMARK    8  A    between atoms: C7_10  and  C8_11
REMARK       I    between atoms: N2_17  and  C14_19
REMARK       I    between atoms: C16_22  and  N3_24
REMARK    9  A    between atoms: C19_28  and  C20_29
REMARK       I    between atoms: C20_29  and  N4_31
REMARK   10  A    between atoms: N4_31  and  C21_33
ROOT
HETATM    1  C4  UNL     1      10.429  18.729  18.770  1.00  0.00     0.176 C
ENDROOT
BRANCH   1   2
HETATM    2  C3  UNL     1       9.742  19.527  19.880  1.00  0.00     0.034 C
BRANCH   2   3
HETATM    3  C2  UNL     1       9.602  18.747  21.155  1.00  0.00    -0.002 C
HETATM    4  C1  UNL     1       8.249  17.995  21.148  1.00  0.00     0.005 C
ENDBRANCH   2   3
ENDBRANCH   1   2
BRANCH   1   5
HETATM    5  N1  UNL     1      11.606  19.410  18.250  1.00  0.00    -0.346 N
HETATM    6  C5  UNL     1      11.772  20.750  17.932  1.00  0.00     0.241 C
HETATM    7  O1  UNL     1      10.882  21.602  18.040  1.00  0.00    -0.271 OA
ATOM      8  H1  UNL     1      12.423  18.819  18.098  1.00  0.00     0.163 HD
BRANCH   6   9
HETATM    9  C6  UNL     1      13.113  21.243  17.416  1.00  0.00     0.177 C
BRANCH   9  10
HETATM   10  C7  UNL     1      13.358  22.569  17.984  1.00  0.00     0.039 C
BRANCH  10  11
HETATM   11  C8  UNL     1      14.527  22.816  18.870  1.00  0.00    -0.012 C
HETATM   12  C9  UNL     1      14.318  23.497  20.158  1.00  0.00     0.005 C
HETATM   13  C10 UNL     1      15.152  24.786  20.304  1.00  0.00     0.000 C
HETATM   14  C11 UNL     1      16.574  24.266  20.232  1.00  0.00     0.000 C
HETATM   15  C12 UNL     1      16.818  23.915  18.788  1.00  0.00     0.000 C
HETATM   16  C13 UNL     1      15.673  23.375  18.048  1.00  0.00     0.005 C
ENDBRANCH  10  11
ENDBRANCH   9  10
BRANCH   9  17
HETATM   17  N2  UNL     1      12.967  21.284  15.977  1.00  0.00    -0.348 N
HETATM   18  C14 UNL     1      14.044  21.162  15.062  1.00  0.00     0.214 C
HETATM   19  C15 UNL     1      13.781  21.217  13.594  1.00  0.00     0.117 C
HETATM   20  O2  UNL     1      15.223  21.004  15.445  1.00  0.00    -0.274 OA
ATOM     21  H2  UNL     1      12.029  21.409  15.596  1.00  0.00     0.163 HD
ENDBRANCH   9  17
ENDBRANCH   6   9
ENDBRANCH   1   5
BRANCH   1  22
HETATM   22  C16 UNL     1       9.476  18.387  17.735  1.00  0.00     0.244 C
HETATM   23  O3  UNL     1       8.261  18.744  17.942  1.00  0.00    -0.271 OA
HETATM   24  N3  UNL     1       9.716  17.701  16.500  1.00  0.00    -0.327 N
HETATM   25  C17 UNL     1      11.031  17.269  16.071  1.00  0.00     0.200 C
HETATM   26  C19 UNL     1       8.689  17.360  15.555  1.00  0.00     0.189 C
HETATM   27  S1  UNL     1      10.932  17.590  14.286  1.00  0.00    -0.147 SA
HETATM   28  C18 UNL     1       9.129  17.762  14.164  1.00  0.00     0.110 C
BRANCH  26  29
HETATM   29  C20 UNL     1       8.238  15.960  15.644  1.00  0.00     0.247 C
HETATM   30  O4  UNL     1       9.035  15.100  15.154  1.00  0.00    -0.271 OA
HETATM   31  N4  UNL     1       7.051  15.482  16.199  1.00  0.00    -0.310 N
ATOM     32  H4  UNL     1       6.879  14.478  16.144  1.00  0.00     0.170 HD
BRANCH  31  33
HETATM   33  C21 UNL     1       6.062  16.279  16.836  1.00  0.00     0.124 A
HETATM   34  C22 UNL     1       4.800  16.554  16.290  1.00  0.00     0.139 A
HETATM   35  N5  UNL     1       4.090  17.311  17.128  1.00  0.00    -0.354 N
HETATM   36  C23 UNL     1       2.741  17.827  16.969  1.00  0.00     0.156 C
HETATM   37  C24 UNL     1       4.883  17.522  18.200  1.00  0.00     0.183 A
HETATM   38  N6  UNL     1       6.058  16.902  18.017  1.00  0.00    -0.337 N
ATOM     39  H6  UNL     1       6.832  16.906  18.681  1.00  0.00     0.168 HD
ENDBRANCH  31  33
ENDBRANCH  26  29
ENDBRANCH   1  22
TORSDOF 10
ENDMDL