MODEL 3
REMARK VINA RESULT: -8.593300466      1.353      2.170
REMARK  13 active torsions:
REMARK  status: ('A' for Active; 'I' for Inactive)
REMARK    1  A    between atoms: S1_2  and  C2_3
REMARK    2  A    between atoms: C2_3  and  C3_4
REMARK    3  A    between atoms: C3_4  and  C11_14
REMARK    4  A    between atoms: N1_5  and  C4_7
REMARK       I    between atoms: C11_14  and  N2_16
REMARK    5  A    between atoms: C15_20  and  C16_21
REMARK       I    between atoms: C16_21  and  N3_23
REMARK    6  A    between atoms: N3_23  and  C17_24
REMARK    7  A    between atoms: C17_24  and  C18_25
REMARK    8  A    between atoms: C18_25  and  C19_26
REMARK    9  A    between atoms: C19_26  and  O3_27
REMARK   10  A    between atoms: C19_26  and  N4_29
REMARK   11  A    between atoms: N4_29  and  C20_31
REMARK   12  A    between atoms: C20_31  and  C21_32
REMARK   13  A    between atoms: C21_32  and  C22_33
ROOT
HETATM    1  C11 UNL     1       9.456  18.963  16.819  1.00  0.00     0.267 C
HETATM    2  O1  UNL     1       9.021  19.747  15.896  1.00  0.00    -0.266 OA
HETATM    3  N2  UNL     1      10.401  19.463  17.706  1.00  0.00    -0.332 N
HETATM    4  C12 UNL     1      10.859  18.783  18.961  1.00  0.00     0.127 C
HETATM    5  C13 UNL     1      10.764  19.978  19.936  1.00  0.00     0.022 C
HETATM    6  C14 UNL     1      10.811  21.236  19.041  1.00  0.00     0.038 C
HETATM    7  C15 UNL     1      11.266  20.610  17.752  1.00  0.00     0.194 C
ENDROOT
BRANCH   7   8
HETATM    8  C16 UNL     1      11.460  21.468  16.608  1.00  0.00     0.314 C
HETATM    9  O2  UNL     1      11.036  22.599  16.471  1.00  0.00    -0.255 OA
HETATM   10  N3  UNL     1      12.249  20.857  15.524  1.00  0.00    -0.386 NA
BRANCH  10  11
HETATM   11  C17 UNL     1      12.930  20.330  14.586  1.00  0.00     0.167 C
BRANCH  11  12
HETATM   12  C18 UNL     1      14.436  20.701  14.401  1.00  0.00     0.143 C
BRANCH  12  13
HETATM   13  C19 UNL     1      15.144  20.348  15.660  1.00  0.00     0.117 C
BRANCH  13  14
HETATM   14  O3  UNL     1      15.745  19.195  15.640  1.00  0.00    -0.349 OA
ATOM     15  H3  UNL     1      15.910  18.848  14.771  1.00  0.00     0.219 HD
ENDBRANCH  13  14
BRANCH  13  16
HETATM   16  N4  UNL     1      15.231  21.095  16.827  1.00  0.00    -0.374 N
ATOM     17  H4  UNL     1      15.257  20.614  17.726  1.00  0.00     0.161 HD
BRANCH  16  18
HETATM   18  C20 UNL     1      15.286  22.544  16.795  1.00  0.00     0.121 C
BRANCH  18  19
HETATM   19  C21 UNL     1      15.875  23.154  18.023  1.00  0.00     0.024 C
BRANCH  19  20
HETATM   20  C22 UNL     1      14.884  23.965  18.827  1.00  0.00    -0.010 C
HETATM   21  C23 UNL     1      14.412  23.320  20.082  1.00  0.00     0.032 C
HETATM   22  C24 UNL     1      15.112  23.886  21.318  1.00  0.00     0.232 C
HETATM   23  N5  UNL     1      16.482  24.236  21.056  1.00  0.00    -0.075 N
HETATM   24  C25 UNL     1      16.662  25.195  20.011  1.00  0.00     0.232 C
ATOM     25  H52 UNL     1      16.936  24.555  21.911  1.00  0.00     0.277 HD
ATOM     26  H51 UNL     1      17.031  23.398  20.866  1.00  0.00     0.277 HD
HETATM   27  C26 UNL     1      15.471  25.313  19.120  1.00  0.00     0.032 C
ENDBRANCH  19  20
ENDBRANCH  18  19
ENDBRANCH  16  18
ENDBRANCH  13  16
ENDBRANCH  12  13
ENDBRANCH  11  12
ENDBRANCH  10  11
ENDBRANCH   7   8
BRANCH   1  28
HETATM   28  C3  UNL     1       8.869  17.642  16.769  1.00  0.00     0.083 C
HETATM   29  N1  UNL     1       7.712  17.433  17.219  1.00  0.00    -0.383 N
ATOM     30  H1  UNL     1       7.255  18.263  17.597  1.00  0.00     0.160 HD
BRANCH  28  31
HETATM   31  C2  UNL     1       9.679  16.523  16.173  1.00  0.00     0.136 C
BRANCH  31  32
HETATM   32  S1  UNL     1      10.218  16.855  14.500  1.00  0.00    -0.167 SA
HETATM   33  C1  UNL     1       9.626  15.690  13.276  1.00  0.00     0.090 C
ENDBRANCH  31  32
ENDBRANCH  28  31
BRANCH  29  34
HETATM   34  C4  UNL     1       6.930  16.257  17.294  1.00  0.00     0.085 C
HETATM   35  C5  UNL     1       7.222  15.220  16.247  1.00  0.00     0.025 C
HETATM   36  C6  UNL     1       6.341  15.365  15.047  1.00  0.00     0.002 C
HETATM   37  C7  UNL     1       4.923  15.017  15.464  1.00  0.00     0.001 C
HETATM   38  C8  UNL     1       4.594  15.488  16.849  1.00  0.00     0.006 C
HETATM   39  C9  UNL     1       5.457  16.690  17.167  1.00  0.00     0.004 C
HETATM   40  C10 UNL     1       5.077  17.330  18.468  1.00  0.00     0.012 C
ENDBRANCH  29  34
ENDBRANCH   1  28
TORSDOF 13
ENDMDL