MODEL 4
REMARK VINA RESULT: -8.803466150      1.494      2.047
REMARK  12 active torsions:
REMARK  status: ('A' for Active; 'I' for Inactive)
REMARK    1  A    between atoms: C2_2  and  N1_3
REMARK    2  A    between atoms: N1_3  and  C3_4
REMARK    3  A    between atoms: N1_3  and  C5_6
REMARK    4  A    between atoms: C5_6  and  C6_7
REMARK    5  A    between atoms: C6_7  and  N2_8
REMARK    6  A    between atoms: C9_14  and  N4_15
REMARK    7  A    between atoms: N4_15  and  C10_17
REMARK    8  A    between atoms: C10_17  and  C11_18
REMARK    9  A    between atoms: C11_18  and  O1_19
REMARK   10  A    between atoms: C13_23  and  N6_24
REMARK   11  A    between atoms: N6_24  and  C14_26
REMARK   12  A    between atoms: C17_29  and  N7_30
ROOT
HETATM    1  N2  UNL     1      17.016  23.068  14.460  1.00  0.00    -0.224 N
ATOM      2  H2  UNL     1      17.458  23.675  15.151  1.00  0.00     0.177 HD
HETATM    3  C7  UNL     1      15.898  22.540  14.789  1.00  0.00     0.678 A
HETATM    4  N3  UNL     1      15.423  22.853  16.032  1.00  0.00    -0.186 N
ATOM      5  H3  UNL     1      15.957  23.478  16.636  1.00  0.00     0.184 HD
HETATM    6  C8  UNL     1      14.262  22.344  16.461  1.00  0.00     0.122 A
HETATM    7  C9  UNL     1      13.770  22.671  17.753  1.00  0.00     0.150 A
HETATM    8  N5  UNL     1      12.601  22.128  18.118  1.00  0.00    -0.174 N
ATOM      9  H5  UNL     1      12.217  22.340  19.038  1.00  0.00     0.186 HD
HETATM   10  C13 UNL     1      11.931  21.314  17.299  1.00  0.00     0.684 A
HETATM   11  N8  UNL     1      12.350  20.980  16.082  1.00  0.00    -0.188 N
ATOM     12  H8  UNL     1      11.809  20.355  15.484  1.00  0.00     0.184 HD
HETATM   13  C26 UNL     1      13.519  21.504  15.678  1.00  0.00     0.096 A
HETATM   14  C27 UNL     1      14.047  21.217  14.419  1.00  0.00     0.138 A
HETATM   15  N9  UNL     1      15.206  21.724  13.991  1.00  0.00    -0.200 N
ATOM     16  H9  UNL     1      15.559  21.490  13.063  1.00  0.00     0.183 HD
ENDROOT
BRANCH  10  17
HETATM   17  N6  UNL     1      10.788  20.816  17.726  1.00  0.00    -0.192 N
ATOM     18  H6  UNL     1      10.284  21.288  18.476  1.00  0.00     0.184 HD
BRANCH  17  19
HETATM   19  C14 UNL     1      10.248  19.631  17.158  1.00  0.00     0.049 A
HETATM   20  C15 UNL     1      10.464  18.445  17.835  1.00  0.00     0.032 A
HETATM   21  C16 UNL     1       9.957  17.285  17.318  1.00  0.00     0.032 A
HETATM   22  C17 UNL     1       9.214  17.213  16.119  1.00  0.00     0.036 A
HETATM   23  C23 UNL     1       9.015  18.402  15.472  1.00  0.00    -0.033 A
HETATM   24  C24 UNL     1       8.234  18.523  14.216  1.00  0.00     0.050 C
HETATM   25  C25 UNL     1       9.530  19.602  15.990  1.00  0.00     0.039 A
BRANCH  22  26
HETATM   26  N7  UNL     1       8.771  15.941  15.673  1.00  0.00    -0.380 N
HETATM   27  C18 UNL     1       7.780  15.255  16.518  1.00  0.00     0.123 C
HETATM   28  C19 UNL     1       6.632  14.689  15.736  1.00  0.00     0.020 C
HETATM   29  C20 UNL     1       6.744  15.132  14.305  1.00  0.00     0.003 C
HETATM   30  C21 UNL     1       8.066  14.656  13.732  1.00  0.00     0.020 C
HETATM   31  C22 UNL     1       9.224  15.216  14.527  1.00  0.00     0.123 C
ENDBRANCH  22  26
ENDBRANCH  17  19
ENDBRANCH  10  17
BRANCH   7  32
HETATM   32  N4  UNL     1      14.463  23.430  18.431  1.00  0.00    -0.351 N
ATOM     33  H4  UNL     1      14.622  24.271  17.876  1.00  0.00     0.166 HD
BRANCH  32  34
HETATM   34  C10 UNL     1      15.112  23.607  19.638  1.00  0.00     0.088 C
BRANCH  34  35
HETATM   35  C11 UNL     1      16.511  24.138  19.654  1.00  0.00     0.211 C
BRANCH  35  36
HETATM   36  O1  UNL     1      17.234  23.640  18.606  1.00  0.00    -0.391 OA
HETATM   37  C12 UNL     1      17.964  24.526  17.867  1.00  0.00     0.201 C
ENDBRANCH  35  36
ENDBRANCH  34  35
ENDBRANCH  32  34
ENDBRANCH   7  32
BRANCH   1  38
HETATM   38  C6  UNL     1      17.713  22.891  13.210  1.00  0.00     0.168 C
BRANCH  38  39
HETATM   39  C5  UNL     1      17.339  23.956  12.215  1.00  0.00     0.292 C
BRANCH  39  40
HETATM   40  N1  UNL     1      17.150  25.244  12.760  1.00  0.00     0.089 N
BRANCH  40  41
HETATM   41  C2  UNL     1      18.345  25.981  13.026  1.00  0.00     0.268 C
HETATM   42  C1  UNL     1      18.401  26.582  14.403  1.00  0.00     0.037 C
ENDBRANCH  40  41
BRANCH  40  43
HETATM   43  C3  UNL     1      16.217  26.085  12.054  1.00  0.00     0.268 C
HETATM   44  C4  UNL     1      16.834  26.935  10.991  1.00  0.00     0.037 C
ENDBRANCH  40  43
ENDBRANCH  39  40
ENDBRANCH  38  39
ENDBRANCH   1  38
TORSDOF 12
ENDMDL