MODEL 4
REMARK VINA RESULT: -7.039245767      1.149      1.294
REMARK  12 active torsions:
REMARK  status: ('A' for Active; 'I' for Inactive)
REMARK    1  A    between atoms: C2_2  and  C3_3
REMARK    2  A    between atoms: C4_6  and  O1_7
REMARK    3  A    between atoms: C6_10  and  O2_11
REMARK    4  A    between atoms: C12_20  and  C13_21
REMARK    5  A    between atoms: C13_21  and  O5_22
REMARK    6  A    between atoms: C16_27  and  C17_28
REMARK       I    between atoms: C17_28  and  N2_30
REMARK    7  A    between atoms: N2_30  and  C18_31
REMARK    8  A    between atoms: N2_30  and  C22_35
REMARK    9  A    between atoms: C19_32  and  C20_33
REMARK   10  A    between atoms: C22_35  and  C23_36
REMARK   11  A    between atoms: C23_36  and  C24_37
REMARK   12  A    between atoms: C24_37  and  C25_38
ROOT
HETATM    1  C3  UNL     1       8.330  19.072  19.825  1.00  0.00     0.036 C
HETATM    2  N1  UNL     1       7.177  18.739  20.294  1.00  0.00    -0.355 N
ATOM      3  H1  UNL     1       6.794  19.348  21.016  1.00  0.00     0.162 HD
HETATM    4  C4  UNL     1       6.365  17.610  19.922  1.00  0.00     0.174 C
HETATM    5  C5  UNL     1       5.082  18.121  19.410  1.00  0.00     0.091 C
HETATM    6  C6  UNL     1       3.851  17.617  20.121  1.00  0.00     0.156 C
HETATM    7  C7  UNL     1       2.805  18.284  19.313  1.00  0.00    -0.059 C
HETATM    8  C8  UNL     1       1.734  18.869  19.741  1.00  0.00     0.017 C
HETATM    9  C9  UNL     1       3.257  18.127  17.911  1.00  0.00     0.051 C
HETATM   10  C10 UNL     1       4.749  17.878  17.983  1.00  0.00     0.101 C
HETATM   11  C11 UNL     1       5.164  16.522  17.628  1.00  0.00     0.265 C
HETATM   12  O3  UNL     1       4.504  15.882  16.773  1.00  0.00    -0.265 OA
HETATM   13  O4  UNL     1       6.263  15.902  18.196  1.00  0.00    -0.302 OA
HETATM   14  C12 UNL     1       7.064  16.533  19.197  1.00  0.00     0.151 C
HETATM   15  C14 UNL     1       8.367  16.856  18.528  1.00  0.00     0.087 C
HETATM   16  C15 UNL     1       8.205  16.742  16.997  1.00  0.00     0.182 C
HETATM   17  O6  UNL     1       9.345  16.960  16.312  1.00  0.00    -0.372 OA
HETATM   18  C16 UNL     1      10.192  17.903  16.732  1.00  0.00     0.237 C
HETATM   19  C27 UNL     1       9.644  18.739  17.848  1.00  0.00     0.024 C
HETATM   20  C28 UNL     1       8.829  18.238  18.741  1.00  0.00    -0.023 C
ENDROOT
BRANCH  18  21
HETATM   21  C17 UNL     1      10.729  18.832  15.725  1.00  0.00     0.260 C
HETATM   22  O7  UNL     1       9.987  18.910  14.675  1.00  0.00    -0.269 OA
HETATM   23  N2  UNL     1      11.899  19.625  15.734  1.00  0.00    -0.305 N
BRANCH  23  24
HETATM   24  C18 UNL     1      12.128  20.456  14.558  1.00  0.00     0.095 C
HETATM   25  C19 UNL     1      13.386  21.086  14.257  1.00  0.00    -0.009 C
BRANCH  25  26
HETATM   26  C20 UNL     1      14.079  22.066  15.100  1.00  0.00     0.024 C
HETATM   27  C21 UNL     1      15.530  21.902  15.355  1.00  0.00     0.009 C
ENDBRANCH  25  26
ENDBRANCH  23  24
BRANCH  23  28
HETATM   28  C22 UNL     1      12.874  19.523  16.780  1.00  0.00     0.072 C
BRANCH  28  29
HETATM   29  C23 UNL     1      12.800  20.231  18.049  1.00  0.00     0.045 C
BRANCH  29  30
HETATM   30  C24 UNL     1      11.977  21.483  18.049  1.00  0.00     0.005 C
BRANCH  30  31
HETATM   31  C25 UNL     1      12.896  22.651  18.453  1.00  0.00    -0.004 C
HETATM   32  C26 UNL     1      13.694  22.262  19.663  1.00  0.00     0.005 C
ENDBRANCH  30  31
ENDBRANCH  29  30
ENDBRANCH  28  29
ENDBRANCH  23  28
ENDBRANCH  18  21
BRANCH   1  33
HETATM   33  C2  UNL     1       8.950  20.243  20.365  1.00  0.00     0.019 C
HETATM   34  C1  UNL     1      10.068  20.438  20.991  1.00  0.00     0.013 C
ENDBRANCH   1  33
BRANCH  14  35
HETATM   35  C13 UNL     1       7.399  15.408  20.197  1.00  0.00     0.208 C
BRANCH  35  36
HETATM   36  O5  UNL     1       8.411  15.833  21.075  1.00  0.00    -0.398 OA
ATOM     37  H5  UNL     1       9.171  16.117  20.580  1.00  0.00     0.209 HD
ENDBRANCH  35  36
ENDBRANCH  14  35
BRANCH   4  38
HETATM   38  O1  UNL     1       6.002  17.071  21.234  1.00  0.00    -0.367 OA
ATOM     39  H1  UNL     1       6.726  17.376  21.768  1.00  0.00     0.212 HD
ENDBRANCH   4  38
BRANCH   6  40
HETATM   40  O2  UNL     1       3.631  16.247  19.881  1.00  0.00    -0.391 OA
ATOM     41  H2  UNL     1       4.034  15.703  20.546  1.00  0.00     0.210 HD
ENDBRANCH   6  40
TORSDOF 12
ENDMDL