MODEL 2
REMARK VINA RESULT: -7.686976737      0.256      1.301
REMARK  15 active torsions:
REMARK  status: ('A' for Active; 'I' for Inactive)
REMARK    1  A    between atoms: C2_2  and  O1_3
REMARK    2  A    between atoms: O1_3  and  C3_4
REMARK    3  A    between atoms: C3_4  and  C18_29
REMARK       I    between atoms: N1_5  and  C4_7
REMARK    4  A    between atoms: C4_7  and  C5_9
REMARK    5  A    between atoms: C11_15  and  C12_16
REMARK    6  A    between atoms: C12_16  and  C13_17
REMARK       I    between atoms: C13_17  and  N2_19
REMARK    7  A    between atoms: N2_19  and  C14_21
REMARK    8  A    between atoms: C14_21  and  O4_22
REMARK    9  A    between atoms: C14_21  and  C15_24
REMARK   10  A    between atoms: C18_29  and  C19_31
REMARK   11  A    between atoms: C19_31  and  C20_32
REMARK   12  A    between atoms: C20_32  and  C21_33
REMARK   13  A    between atoms: C21_33  and  N4_34
REMARK   14  A    between atoms: N4_34  and  C22_35
REMARK   15  A    between atoms: N4_34  and  C24_37
ROOT
HETATM    1  C5  UNL     1      12.547  19.860  17.062  1.00  0.00     0.050 C
HETATM    2  C6  UNL     1      13.089  19.022  15.868  1.00  0.00     0.024 C
HETATM    3  C7  UNL     1      13.920  20.077  15.174  1.00  0.00    -0.012 C
HETATM    4  C8  UNL     1      12.959  21.070  14.566  1.00  0.00     0.009 C
HETATM    5  C9  UNL     1      12.097  21.675  15.654  1.00  0.00    -0.012 C
HETATM    6  C10 UNL     1      12.951  22.228  16.778  1.00  0.00     0.016 C
HETATM    7  C11 UNL     1      13.530  20.906  17.333  1.00  0.00    -0.015 C
HETATM    8  C16 UNL     1      14.694  20.640  16.342  1.00  0.00     0.016 C
HETATM    9  C17 UNL     1      11.354  20.589  16.399  1.00  0.00     0.024 C
ENDROOT
BRANCH   1  10
HETATM   10  C4  UNL     1      12.097  18.970  18.123  1.00  0.00     0.233 C
HETATM   11  N1  UNL     1      10.864  19.166  18.739  1.00  0.00    -0.309 N
HETATM   12  C3  UNL     1       9.715  18.694  18.540  1.00  0.00     0.135 C
ATOM     13  H1  UNL     1      10.900  19.831  19.512  1.00  0.00     0.170 HD
HETATM   14  O2  UNL     1      12.819  18.015  18.487  1.00  0.00    -0.272 OA
BRANCH  12  15
HETATM   15  O1  UNL     1       8.709  19.178  19.422  1.00  0.00    -0.338 OA
BRANCH  15  16
HETATM   16  C2  UNL     1       9.009  19.129  20.826  1.00  0.00     0.172 C
HETATM   17  C1  UNL     1       7.778  18.494  21.466  1.00  0.00     0.034 C
ENDBRANCH  15  16
ENDBRANCH  12  15
BRANCH  12  18
HETATM   18  C18 UNL     1       9.269  17.719  17.532  1.00  0.00     0.133 C
HETATM   19  S1  UNL     1       7.968  16.609  18.183  1.00  0.00    -0.084 SA
BRANCH  18  20
HETATM   20  C19 UNL     1       8.595  18.513  16.377  1.00  0.00     0.029 C
BRANCH  20  21
HETATM   21  C20 UNL     1       7.594  17.644  15.702  1.00  0.00     0.046 C
BRANCH  21  22
HETATM   22  C21 UNL     1       7.938  17.151  14.343  1.00  0.00     0.063 C
BRANCH  22  23
HETATM   23  N4  UNL     1       8.518  15.896  14.139  1.00  0.00    -0.375 N
BRANCH  23  24
HETATM   24  C22 UNL     1       7.705  14.822  13.744  1.00  0.00     0.058 C
HETATM   25  C23 UNL     1       6.826  14.291  14.874  1.00  0.00     0.055 C
ENDBRANCH  23  24
BRANCH  23  26
HETATM   26  C24 UNL     1       9.766  15.935  13.438  1.00  0.00     0.122 C
HETATM   27  C25 UNL     1      10.585  17.145  13.849  1.00  0.00     0.027 C
ENDBRANCH  23  26
ENDBRANCH  22  23
ENDBRANCH  21  22
ENDBRANCH  20  21
ENDBRANCH  18  20
ENDBRANCH  12  18
ENDBRANCH   1  10
BRANCH   7  28
HETATM   28  C12 UNL     1      14.122  21.080  18.655  1.00  0.00     0.113 C
BRANCH  28  29
HETATM   29  C13 UNL     1      14.126  22.423  19.274  1.00  0.00     0.224 C
HETATM   30  O3  UNL     1      13.224  22.742  20.047  1.00  0.00    -0.273 OA
HETATM   31  N2  UNL     1      15.179  23.283  18.945  1.00  0.00    -0.303 N
ATOM     32  H2  UNL     1      15.862  22.899  18.293  1.00  0.00     0.171 HD
BRANCH  31  33
HETATM   33  C14 UNL     1      15.439  24.581  19.368  1.00  0.00     0.209 C
BRANCH  33  34
HETATM   34  O4  UNL     1      14.560  25.497  19.006  1.00  0.00    -0.342 OA
ATOM     35  H4  UNL     1      14.894  26.209  18.472  1.00  0.00     0.219 HD
ENDBRANCH  33  34
BRANCH  33  36
HETATM   36  C15 UNL     1      16.510  25.125  20.144  1.00  0.00     0.305 C
HETATM   37  N3  UNL     1      16.231  26.032  21.258  1.00  0.00    -0.054 NA
HETATM   38  O5  UNL     1      17.733  24.922  19.994  1.00  0.00    -0.267 OA
ENDBRANCH  33  36
ENDBRANCH  31  33
ENDBRANCH  28  29
ENDBRANCH   7  28
TORSDOF 15
ENDMDL