MODEL 4
REMARK VINA RESULT: -8.470849314      3.973     10.971
REMARK  12 active torsions:
REMARK  status: ('A' for Active; 'I' for Inactive)
REMARK    1  A    between atoms: C2_2  and  N1_3
REMARK    2  A    between atoms: N1_3  and  C3_4
REMARK    3  A    between atoms: N1_3  and  C5_6
REMARK    4  A    between atoms: C5_6  and  C6_7
REMARK    5  A    between atoms: C6_7  and  N2_8
REMARK    6  A    between atoms: N2_8  and  C8_10
REMARK    7  A    between atoms: C8_10  and  C9_11
REMARK    8  A    between atoms: C9_11  and  C10_12
REMARK    9  A    between atoms: C10_12  and  N3_13
REMARK   10  A    between atoms: N3_13  and  C11_15
REMARK   11  A    between atoms: N8_33  and  C19_34
REMARK   12  A    between atoms: C19_34  and  C20_35
ROOT
HETATM    1  C11 UNL     1      10.635  18.284  17.077  1.00  0.00     0.117 A
HETATM    2  N4  UNL     1      10.674  18.884  18.280  1.00  0.00    -0.338 N
ATOM      3  H4  UNL     1      11.454  19.504  18.497  1.00  0.00     0.168 HD
HETATM    4  C12 UNL     1       9.705  18.690  19.218  1.00  0.00     0.183 A
HETATM    5  N5  UNL     1       8.669  17.900  19.005  1.00  0.00    -0.338 N
ATOM      6  H5  UNL     1       7.954  17.767  19.721  1.00  0.00     0.168 HD
HETATM    7  C13 UNL     1       8.584  17.282  17.825  1.00  0.00     0.125 A
HETATM    8  C14 UNL     1       9.542  17.454  16.853  1.00  0.00     0.071 A
HETATM    9  C15 UNL     1       9.161  16.697  15.796  1.00  0.00     0.094 A
HETATM   10  C16 UNL     1       9.727  16.481  14.575  1.00  0.00     0.264 A
HETATM   11  O1  UNL     1      10.780  16.968  14.130  1.00  0.00    -0.267 OA
HETATM   12  N6  UNL     1       9.084  15.637  13.721  1.00  0.00    -0.275 N
ATOM     13  H6  UNL     1       9.478  15.454  12.799  1.00  0.00     0.173 HD
HETATM   14  C17 UNL     1       7.927  15.040  14.087  1.00  0.00     0.328 A
HETATM   15  O2  UNL     1       7.339  14.245  13.271  1.00  0.00    -0.247 OA
HETATM   16  N7  UNL     1       7.379  15.258  15.288  1.00  0.00    -0.293 N
ATOM     17  H7  UNL     1       6.505  14.794  15.534  1.00  0.00     0.172 HD
HETATM   18  C18 UNL     1       7.959  16.074  16.166  1.00  0.00     0.130 A
HETATM   19  N8  UNL     1       7.601  16.431  17.412  1.00  0.00    -0.313 N
ENDROOT
BRANCH   1  20
HETATM   20  N3  UNL     1      11.559  18.474  16.255  1.00  0.00    -0.375 N
ATOM     21  H3  UNL     1      11.618  17.830  15.466  1.00  0.00     0.161 HD
BRANCH  20  22
HETATM   22  C10 UNL     1      12.528  19.502  16.322  1.00  0.00     0.123 C
BRANCH  22  23
HETATM   23  C9  UNL     1      12.524  20.395  15.070  1.00  0.00     0.050 C
BRANCH  23  24
HETATM   24  C8  UNL     1      13.243  21.658  15.462  1.00  0.00     0.273 C
BRANCH  24  25
HETATM   25  N2  UNL     1      14.574  21.373  15.957  1.00  0.00     0.086 N
HETATM   26  C7  UNL     1      15.364  21.126  14.727  1.00  0.00     0.309 C
BRANCH  25  27
HETATM   27  C6  UNL     1      15.138  22.526  16.645  1.00  0.00     0.302 C
BRANCH  27  28
HETATM   28  C5  UNL     1      14.022  23.136  17.438  1.00  0.00     0.302 C
BRANCH  28  29
HETATM   29  N1  UNL     1      14.395  23.093  18.842  1.00  0.00     0.089 N
BRANCH  29  30
HETATM   30  C2  UNL     1      13.642  22.138  19.580  1.00  0.00     0.268 C
HETATM   31  C1  UNL     1      12.231  21.923  19.184  1.00  0.00     0.037 C
ENDBRANCH  29  30
BRANCH  29  32
HETATM   32  C3  UNL     1      14.456  24.403  19.420  1.00  0.00     0.268 C
HETATM   33  C4  UNL     1      14.352  24.495  20.899  1.00  0.00     0.037 C
ENDBRANCH  29  32
ENDBRANCH  28  29
ENDBRANCH  27  28
ENDBRANCH  25  27
ENDBRANCH  24  25
ENDBRANCH  23  24
ENDBRANCH  22  23
ENDBRANCH  20  22
ENDBRANCH   1  20
BRANCH  19  34
HETATM   34  C19 UNL     1       6.455  16.018  18.195  1.00  0.00     0.171 C
BRANCH  34  35
HETATM   35  C20 UNL     1       5.252  16.852  18.043  1.00  0.00    -0.039 A
HETATM   36  C21 UNL     1       4.948  17.820  19.020  1.00  0.00     0.015 A
HETATM   37  C22 UNL     1       3.830  18.609  18.889  1.00  0.00    -0.061 A
HETATM   38  C23 UNL     1       3.489  19.649  19.896  1.00  0.00     0.048 C
HETATM   39  C24 UNL     1       3.012  18.438  17.786  1.00  0.00     0.013 A
HETATM   40  C25 UNL     1       3.307  17.481  16.815  1.00  0.00    -0.061 A
HETATM   41  C26 UNL     1       2.448  17.270  15.614  1.00  0.00     0.048 C
HETATM   42  C27 UNL     1       4.439  16.683  16.950  1.00  0.00     0.015 A
ENDBRANCH  34  35
ENDBRANCH  19  34
TORSDOF 12
ENDMDL