MODEL 2
REMARK VINA RESULT: -9.602806640      1.504      1.911
REMARK  12 active torsions:
REMARK  status: ('A' for Active; 'I' for Inactive)
REMARK    1  A    between atoms: C3_4  and  N1_5
REMARK    2  A    between atoms: N1_5  and  C4_7
REMARK    3  A    between atoms: C4_7  and  C5_8
REMARK    4  A    between atoms: C5_8  and  C6_9
REMARK       I    between atoms: C6_9  and  N2_11
REMARK    5  A    between atoms: N2_11  and  C7_13
REMARK    6  A    between atoms: C7_13  and  C8_14
REMARK    7  A    between atoms: N3_17  and  C11_18
REMARK    8  A    between atoms: C11_18  and  C12_19
REMARK       I    between atoms: C12_19  and  N4_21
REMARK    9  A    between atoms: N4_21  and  C13_23
REMARK   10  A    between atoms: C13_23  and  C14_24
REMARK   11  A    between atoms: C14_24  and  C15_25
REMARK   12  A    between atoms: N5_35  and  O3_36
ROOT
HETATM    1  C7  UNL     1      13.323  22.140  16.136  1.00  0.00     0.128 C
ENDROOT
BRANCH   1   2
HETATM    2  N2  UNL     1      13.057  21.860  17.513  1.00  0.00    -0.361 N
HETATM    3  C6  UNL     1      11.784  22.096  18.077  1.00  0.00     0.219 C
HETATM    4  O1  UNL     1      10.863  22.556  17.367  1.00  0.00    -0.274 OA
ATOM      5  H2  UNL     1      13.802  21.482  18.098  1.00  0.00     0.162 HD
BRANCH   3   6
HETATM    6  C5  UNL     1      11.545  21.794  19.529  1.00  0.00     0.122 C
BRANCH   6   7
HETATM    7  C4  UNL     1      10.121  21.150  19.581  1.00  0.00     0.129 C
BRANCH   7   8
HETATM    8  N1  UNL     1      10.283  19.803  19.165  1.00  0.00    -0.382 N
ATOM      9  H1  UNL     1      10.398  19.136  19.928  1.00  0.00     0.160 HD
BRANCH   8  10
HETATM   10  C3  UNL     1      10.311  19.227  17.874  1.00  0.00     0.095 A
HETATM   11  S1  UNL     1       8.918  19.357  16.833  1.00  0.00    -0.074 SA
HETATM   12  C2  UNL     1       9.136  18.618  15.331  1.00  0.00     0.005 A
HETATM   13  C1  UNL     1       8.086  18.592  14.264  1.00  0.00     0.058 C
HETATM   14  C25 UNL     1      10.366  18.030  15.154  1.00  0.00     0.049 A
HETATM   15  N5  UNL     1      11.334  18.016  16.054  1.00  0.00    -0.230 N
HETATM   16  C26 UNL     1      10.560  17.366  13.806  1.00  0.00     0.072 C
HETATM   17  C23 UNL     1      11.346  18.543  17.285  1.00  0.00     0.070 A
HETATM   18  C24 UNL     1      12.612  18.368  18.087  1.00  0.00     0.074 C
BRANCH  15  19
HETATM   19  O3  UNL     1      12.392  17.416  15.674  1.00  0.00    -0.283 OA
ATOM     20  H3  UNL     1      12.276  16.615  15.177  1.00  0.00     0.245 HD
ENDBRANCH  15  19
ENDBRANCH   8  10
ENDBRANCH   7   8
ENDBRANCH   6   7
ENDBRANCH   3   6
ENDBRANCH   1   2
BRANCH   1  21
HETATM   21  C8  UNL     1      13.424  20.881  15.303  1.00  0.00     0.013 C
HETATM   22  C9  UNL     1      13.213  21.205  13.859  1.00  0.00     0.051 C
HETATM   23  C10 UNL     1      14.214  22.187  13.306  1.00  0.00     0.064 C
HETATM   24  N3  UNL     1      15.522  21.961  13.759  1.00  0.00    -0.365 N
HETATM   25  C21 UNL     1      15.817  20.793  14.490  1.00  0.00     0.064 C
HETATM   26  C22 UNL     1      14.832  20.352  15.509  1.00  0.00     0.051 C
BRANCH  24  27
HETATM   27  C11 UNL     1      16.450  23.023  13.766  1.00  0.00     0.229 C
BRANCH  27  28
HETATM   28  C12 UNL     1      17.222  23.047  15.027  1.00  0.00     0.235 C
HETATM   29  O2  UNL     1      18.256  22.355  15.127  1.00  0.00    -0.272 OA
HETATM   30  N4  UNL     1      16.818  23.836  16.136  1.00  0.00    -0.359 N
ATOM     31  H4  UNL     1      15.978  24.411  16.079  1.00  0.00     0.162 HD
BRANCH  30  32
HETATM   32  C13 UNL     1      17.607  23.817  17.341  1.00  0.00     0.127 C
BRANCH  32  33
HETATM   33  C14 UNL     1      17.541  25.113  18.091  1.00  0.00     0.053 C
BRANCH  33  34
HETATM   34  C15 UNL     1      16.543  24.965  19.194  1.00  0.00    -0.082 C
HETATM   35  C16 UNL     1      16.780  25.468  20.410  1.00  0.00    -0.024 C
HETATM   36  C17 UNL     1      15.835  25.358  21.551  1.00  0.00     0.027 C
HETATM   37  C18 UNL     1      14.452  25.070  21.004  1.00  0.00     0.004 C
HETATM   38  C19 UNL     1      14.572  23.826  20.129  1.00  0.00     0.005 C
HETATM   39  C20 UNL     1      15.288  24.237  18.868  1.00  0.00     0.034 C
ENDBRANCH  33  34
ENDBRANCH  32  33
ENDBRANCH  30  32
ENDBRANCH  27  28
ENDBRANCH  24  27
ENDBRANCH   1  21
TORSDOF 12
ENDMDL