MODEL 2
REMARK VINA RESULT: -8.394478121      1.320      2.554
REMARK  13 active torsions:
REMARK  status: ('A' for Active; 'I' for Inactive)
REMARK    1  A    between atoms: O1_2  and  C2_3
REMARK    2  A    between atoms: C4_5  and  C5_6
REMARK       I    between atoms: N2_8  and  C6_10
REMARK       I    between atoms: C6_10  and  N3_12
REMARK    3  A    between atoms: N3_12  and  C7_14
REMARK    4  A    between atoms: C7_14  and  C8_15
REMARK    5  A    between atoms: C8_15  and  C9_16
REMARK    6  A    between atoms: C9_16  and  C10_17
REMARK    7  A    between atoms: C10_17  and  C11_18
REMARK    8  A    between atoms: C11_18  and  C12_19
REMARK    9  A    between atoms: C14_23  and  N5_24
REMARK   10  A    between atoms: N5_24  and  N6_26
REMARK   11  A    between atoms: N7_29  and  C15_30
REMARK   12  A    between atoms: C20_35  and  O5_36
REMARK   13  A    between atoms: C22_38  and  O6_39
ROOT
HETATM    1  C5  UNL     1       8.469  15.962  15.772  1.00  0.00     0.130 C
HETATM    2  N1  UNL     1       8.362  14.764  14.925  1.00  0.00    -0.082 NA
HETATM    3  N2  UNL     1       9.517  16.598  15.742  1.00  0.00    -0.296 N
ATOM      4  H2  UNL     1      10.146  16.134  15.086  1.00  0.00     0.171 HD
HETATM    5  C6  UNL     1      10.166  17.686  16.245  1.00  0.00     0.321 C
HETATM    6  O2  UNL     1       9.975  18.833  15.689  1.00  0.00    -0.247 OA
HETATM    7  N3  UNL     1      11.056  17.680  17.349  1.00  0.00    -0.343 N
ATOM      8  H3  UNL     1      11.215  16.779  17.801  1.00  0.00     0.164 HD
ENDROOT
BRANCH   7   9
HETATM    9  C7  UNL     1      11.755  18.802  17.898  1.00  0.00     0.124 C
BRANCH   9  10
HETATM   10  C8  UNL     1      11.052  19.476  19.034  1.00  0.00     0.020 C
BRANCH  10  11
HETATM   11  C9  UNL     1      11.608  20.859  19.269  1.00  0.00     0.002 C
BRANCH  11  12
HETATM   12  C10 UNL     1      10.956  21.913  18.425  1.00  0.00     0.002 C
BRANCH  12  13
HETATM   13  C11 UNL     1      11.815  22.301  17.211  1.00  0.00     0.028 C
BRANCH  13  14
HETATM   14  C12 UNL     1      13.218  22.389  17.651  1.00  0.00     0.121 C
HETATM   15  C13 UNL     1      13.481  23.809  18.127  1.00  0.00     0.164 C
HETATM   16  N4  UNL     1      14.899  23.903  18.042  1.00  0.00    -0.223 N
HETATM   17  C14 UNL     1      15.340  23.042  17.171  1.00  0.00     0.696 C
ATOM     18  H4  UNL     1      15.480  24.545  18.581  1.00  0.00     0.177 HD
HETATM   19  N7  UNL     1      14.232  22.303  16.611  1.00  0.00    -0.202 N
BRANCH  17  20
HETATM   20  N5  UNL     1      16.724  22.944  16.909  1.00  0.00    -0.072 N
ATOM     21  H5  UNL     1      17.112  22.084  16.523  1.00  0.00     0.212 HD
BRANCH  20  22
HETATM   22  N6  UNL     1      17.554  24.017  17.179  1.00  0.00    -0.024 N
HETATM   23  O3  UNL     1      18.115  24.595  16.240  1.00  0.00    -0.516 OA
HETATM   24  O4  UNL     1      17.801  24.490  18.450  1.00  0.00    -0.516 OA
ENDBRANCH  20  22
ENDBRANCH  17  20
BRANCH  19  25
HETATM   25  C15 UNL     1      14.201  21.664  15.320  1.00  0.00     0.039 C
HETATM   26  C16 UNL     1      12.822  21.094  15.013  1.00  0.00     0.038 C
HETATM   27  C17 UNL     1      14.673  22.650  14.282  1.00  0.00     0.038 C
HETATM   28  C18 UNL     1      15.141  20.469  15.214  1.00  0.00     0.038 C
ENDBRANCH  19  25
ENDBRANCH  13  14
ENDBRANCH  12  13
ENDBRANCH  11  12
ENDBRANCH  10  11
ENDBRANCH   9  10
ENDBRANCH   7   9
BRANCH   1  29
HETATM   29  C4  UNL     1       7.251  16.208  16.549  1.00  0.00     0.011 A
HETATM   30  C3  UNL     1       7.220  15.908  17.894  1.00  0.00     0.054 A
HETATM   31  C2  UNL     1       6.067  16.145  18.660  1.00  0.00     0.105 A
HETATM   32  C22 UNL     1       4.959  16.682  18.050  1.00  0.00     0.135 A
HETATM   33  C20 UNL     1       4.959  16.995  16.691  1.00  0.00     0.105 A
HETATM   34  C19 UNL     1       6.105  16.751  15.973  1.00  0.00     0.054 A
BRANCH  31  35
HETATM   35  O1  UNL     1       6.011  15.854  20.010  1.00  0.00    -0.353 OA
HETATM   36  C1  UNL     1       7.249  15.798  20.722  1.00  0.00     0.210 C
ENDBRANCH  31  35
BRANCH  32  37
HETATM   37  O6  UNL     1       3.821  16.914  18.813  1.00  0.00    -0.351 OA
HETATM   38  C23 UNL     1       3.737  18.238  19.368  1.00  0.00     0.210 C
ENDBRANCH  32  37
BRANCH  33  39
HETATM   39  O5  UNL     1       3.818  17.537  16.117  1.00  0.00    -0.353 OA
HETATM   40  C21 UNL     1       2.789  16.740  15.574  1.00  0.00     0.210 C
ENDBRANCH  33  39
ENDBRANCH   1  29
TORSDOF 13
ENDMDL