MODEL 5
REMARK VINA RESULT: -7.749286685      2.735      8.929
REMARK  15 active torsions:
REMARK  status: ('A' for Active; 'I' for Inactive)
REMARK    1  A    between atoms: N2_5  and  C4_6
REMARK    2  A    between atoms: C4_6  and  C5_7
REMARK    3  A    between atoms: C5_7  and  C6_8
REMARK    4  A    between atoms: C6_8  and  C7_9
REMARK    5  A    between atoms: C7_9  and  C8_10
REMARK    6  A    between atoms: C8_10  and  S1_11
REMARK    7  A    between atoms: S1_11  and  C9_12
REMARK    8  A    between atoms: C9_12  and  N5_19
REMARK    9  A    between atoms: N3_13  and  C10_15
REMARK   10  A    between atoms: C10_15  and  C11_16
REMARK   11  A    between atoms: N5_19  and  C13_21
REMARK   12  A    between atoms: C13_21  and  C14_22
REMARK   13  A    between atoms: C14_22  and  N6_23
REMARK       I    between atoms: N6_23  and  C15_25
REMARK       I    between atoms: C15_25  and  N7_27
REMARK   14  A    between atoms: N7_27  and  C16_29
REMARK   15  A    between atoms: C18_31  and  C19_32
ROOT
HETATM    1  C11 UNL     1      17.883  25.358  17.936  1.00  0.00     0.168 C
HETATM    2  C12 UNL     1      17.543  25.148  19.333  1.00  0.00     0.064 C
HETATM    3  N4  UNL     1      17.249  24.993  20.420  1.00  0.00    -0.197 NA
ENDROOT
BRANCH   1   4
HETATM    4  C10 UNL     1      17.534  24.121  17.154  1.00  0.00     0.077 C
BRANCH   4   5
HETATM    5  N3  UNL     1      16.275  23.599  17.396  1.00  0.00    -0.350 N
HETATM    6  C9  UNL     1      15.438  22.861  16.870  1.00  0.00     0.139 C
ATOM      7  H3  UNL     1      15.929  23.929  18.296  1.00  0.00     0.167 HD
BRANCH   6   8
HETATM    8  S1  UNL     1      15.672  22.080  15.286  1.00  0.00    -0.094 SA
BRANCH   8   9
HETATM    9  C8  UNL     1      14.169  22.265  14.272  1.00  0.00     0.082 C
BRANCH   9  10
HETATM   10  C7  UNL     1      13.274  21.081  14.348  1.00  0.00     0.010 C
BRANCH  10  11
HETATM   11  C6  UNL     1      13.602  20.079  15.395  1.00  0.00     0.002 C
BRANCH  11  12
HETATM   12  C5  UNL     1      12.473  19.264  15.925  1.00  0.00     0.020 C
BRANCH  12  13
HETATM   13  C4  UNL     1      11.229  19.724  15.129  1.00  0.00     0.122 C
BRANCH  13  14
HETATM   14  N2  UNL     1      10.306  18.665  15.077  1.00  0.00    -0.387 N
HETATM   15  C3  UNL     1      10.504  17.578  14.220  1.00  0.00     0.102 C
HETATM   16  C2  UNL     1       9.335  16.683  13.988  1.00  0.00     0.102 C
HETATM   17  N1  UNL     1       8.205  16.859  14.798  1.00  0.00    -0.391 N
HETATM   18  C1  UNL     1       7.307  15.760  14.922  1.00  0.00     0.148 C
HETATM   19  C24 UNL     1       8.343  17.661  15.960  1.00  0.00     0.141 C
HETATM   20  C23 UNL     1       8.972  18.975  15.489  1.00  0.00     0.142 C
ENDBRANCH  13  14
ENDBRANCH  12  13
ENDBRANCH  11  12
ENDBRANCH  10  11
ENDBRANCH   9  10
ENDBRANCH   8   9
ENDBRANCH   6   8
BRANCH   6  21
HETATM   21  N5  UNL     1      14.212  22.615  17.554  1.00  0.00    -0.369 N
ATOM     22  H5  UNL     1      13.305  22.753  17.108  1.00  0.00     0.161 HD
BRANCH  21  23
HETATM   23  C13 UNL     1      14.337  22.148  18.952  1.00  0.00     0.141 C
BRANCH  23  24
HETATM   24  C14 UNL     1      12.927  22.155  19.476  1.00  0.00     0.144 C
BRANCH  24  25
HETATM   25  N6  UNL     1      12.283  20.898  19.440  1.00  0.00    -0.341 N
HETATM   26  C15 UNL     1      10.954  20.692  18.958  1.00  0.00     0.321 C
HETATM   27  O1  UNL     1      10.331  21.720  18.556  1.00  0.00    -0.247 OA
HETATM   28  N7  UNL     1      10.362  19.412  18.926  1.00  0.00    -0.293 N
ATOM     29  H7  UNL     1      10.907  18.634  18.554  1.00  0.00     0.172 HD
ATOM     30  H6  UNL     1      12.799  20.086  19.780  1.00  0.00     0.164 HD
BRANCH  28  31
HETATM   31  C16 UNL     1       9.179  19.181  19.338  1.00  0.00     0.132 A
HETATM   32  C17 UNL     1       8.761  18.213  20.256  1.00  0.00     0.086 A
HETATM   33  C18 UNL     1       7.391  18.330  20.396  1.00  0.00     0.087 A
HETATM   34  O2  UNL     1       7.037  19.313  19.602  1.00  0.00    -0.240 OA
HETATM   35  N8  UNL     1       8.066  19.822  18.975  1.00  0.00    -0.245 N
ATOM     36  H8  UNL     1       8.024  20.594  18.309  1.00  0.00     0.196 HD
BRANCH  33  37
HETATM   37  C19 UNL     1       6.512  17.510  21.265  1.00  0.00     0.000 C
HETATM   38  C20 UNL     1       7.291  16.956  22.453  1.00  0.00     0.021 C
HETATM   39  C21 UNL     1       5.357  18.310  21.828  1.00  0.00     0.021 C
HETATM   40  C22 UNL     1       5.969  16.308  20.493  1.00  0.00     0.021 C
ENDBRANCH  33  37
ENDBRANCH  28  31
ENDBRANCH  24  25
ENDBRANCH  23  24
ENDBRANCH  21  23
ENDBRANCH   6  21
ENDBRANCH   4   5
ENDBRANCH   1   4
TORSDOF 15
ENDMDL