MODEL 3
REMARK VINA RESULT: -8.266827076      3.529      9.113
REMARK  12 active torsions:
REMARK  status: ('A' for Active; 'I' for Inactive)
REMARK    1  A    between atoms: N1_6  and  C6_8
REMARK    2  A    between atoms: C6_8  and  C7_9
REMARK    3  A    between atoms: C7_9  and  C8_10
REMARK    4  A    between atoms: C8_10  and  C9_11
REMARK    5  A    between atoms: C9_11  and  C10_12
REMARK    6  A    between atoms: C10_12  and  O1_13
REMARK    7  A    between atoms: O1_13  and  N2_14
REMARK    8  A    between atoms: C12_19  and  C13_20
REMARK    9  A    between atoms: C13_20  and  C14_21
REMARK   10  A    between atoms: C14_21  and  C15_22
REMARK   11  A    between atoms: C15_22  and  C16_23
REMARK   12  A    between atoms: C16_23  and  N4_24
ROOT
HETATM    1  N2  UNL     1      13.912  21.255  16.585  1.00  0.00    -0.211 N
HETATM    2  C11 UNL     1      14.730  22.407  16.289  1.00  0.00     0.196 C
HETATM    3  S1  UNL     1      15.769  22.637  15.052  1.00  0.00    -0.039 SA
HETATM    4  N3  UNL     1      14.438  23.372  17.342  1.00  0.00    -0.355 N
ATOM      5  H3  UNL     1      14.468  24.391  17.293  1.00  0.00     0.162 HD
HETATM    6  C12 UNL     1      14.101  22.543  18.460  1.00  0.00     0.146 C
HETATM    7  C17 UNL     1      13.116  21.583  17.782  1.00  0.00     0.250 C
HETATM    8  C18 UNL     1      11.900  22.290  17.393  1.00  0.00     0.089 C
HETATM    9  N5  UNL     1      10.950  22.853  17.081  1.00  0.00    -0.195 NA
ENDROOT
BRANCH   1  10
HETATM   10  O1  UNL     1      13.912  20.111  15.866  1.00  0.00    -0.274 OA
BRANCH  10  11
HETATM   11  C10 UNL     1      13.086  20.292  14.760  1.00  0.00     0.201 C
BRANCH  11  12
HETATM   12  C9  UNL     1      11.731  19.664  14.979  1.00  0.00     0.029 C
BRANCH  12  13
HETATM   13  C8  UNL     1      11.781  18.169  15.030  1.00  0.00     0.004 C
BRANCH  13  14
HETATM   14  C7  UNL     1      11.089  17.500  13.885  1.00  0.00     0.020 C
BRANCH  14  15
HETATM   15  C6  UNL     1       9.836  16.836  14.434  1.00  0.00     0.121 C
BRANCH  15  16
HETATM   16  N1  UNL     1       9.505  17.290  15.756  1.00  0.00    -0.376 N
HETATM   17  C5  UNL     1       8.535  16.779  16.437  1.00  0.00     0.114 A
HETATM   18  C4  UNL     1       8.264  17.258  17.705  1.00  0.00     0.035 A
HETATM   19  N6  UNL     1       7.796  15.798  15.932  1.00  0.00    -0.338 N
HETATM   20  C3  UNL     1       9.011  18.283  18.272  1.00  0.00     0.025 A
HETATM   21  C20 UNL     1       7.233  16.720  18.436  1.00  0.00     0.055 A
HETATM   22  C2  UNL     1       8.762  18.778  19.534  1.00  0.00    -0.054 A
HETATM   23  C1  UNL     1       9.555  19.875  20.149  1.00  0.00     0.049 C
HETATM   24  C22 UNL     1       7.715  18.227  20.267  1.00  0.00    -0.040 A
HETATM   25  C21 UNL     1       6.968  17.209  19.713  1.00  0.00     0.004 A
HETATM   26  C23 UNL     1       7.422  18.741  21.631  1.00  0.00     0.070 C
HETATM   27  C26 UNL     1       5.829  16.561  20.430  1.00  0.00     0.313 C
HETATM   28  N8  UNL     1       5.894  16.839  21.855  1.00  0.00     0.088 N
HETATM   29  C24 UNL     1       6.038  18.268  22.015  1.00  0.00     0.277 C
HETATM   30  C25 UNL     1       6.959  16.093  22.472  1.00  0.00     0.310 C
HETATM   31  N7  UNL     1       6.499  15.726  17.900  1.00  0.00    -0.351 N
HETATM   32  C19 UNL     1       6.779  15.277  16.672  1.00  0.00     0.182 A
ATOM     33  H7  UNL     1       5.730  15.316  18.431  1.00  0.00     0.166 HD
ATOM     34  H6  UNL     1       7.988  15.438  14.998  1.00  0.00     0.168 HD
ATOM     35  H1  UNL     1      10.054  18.042  16.171  1.00  0.00     0.161 HD
ENDBRANCH  15  16
ENDBRANCH  14  15
ENDBRANCH  13  14
ENDBRANCH  12  13
ENDBRANCH  11  12
ENDBRANCH  10  11
ENDBRANCH   1  10
BRANCH   6  36
HETATM   36  C13 UNL     1      13.626  23.108  19.698  1.00  0.00     0.001 C
BRANCH  36  37
HETATM   37  C14 UNL     1      14.410  24.000  20.524  1.00  0.00    -0.004 C
BRANCH  37  38
HETATM   38  C15 UNL     1      15.056  25.255  20.218  1.00  0.00    -0.000 C
BRANCH  38  39
HETATM   39  C16 UNL     1      16.300  25.720  20.842  1.00  0.00     0.257 C
BRANCH  39  40
HETATM   40  N4  UNL     1      17.278  26.158  19.803  1.00  0.00    -0.076 N
ATOM     41  H43 UNL     1      17.005  25.846  18.871  1.00  0.00     0.274 HD
ATOM     42  H42 UNL     1      17.237  27.165  19.646  1.00  0.00     0.274 HD
ATOM     43  H41 UNL     1      18.221  25.852  20.044  1.00  0.00     0.274 HD
ENDBRANCH  39  40
ENDBRANCH  38  39
ENDBRANCH  37  38
ENDBRANCH  36  37
ENDBRANCH   6  36
TORSDOF 12
ENDMDL