MODEL 5
REMARK VINA RESULT: -8.198461947      2.898      8.273
REMARK  13 active torsions:
REMARK  status: ('A' for Active; 'I' for Inactive)
REMARK    1  A    between atoms: N1_2  and  C2_3
REMARK    2  A    between atoms: N1_2  and  S1_9
REMARK    3  A    between atoms: S1_9  and  N2_12
REMARK    4  A    between atoms: N2_12  and  C8_13
REMARK    5  A    between atoms: N2_12  and  S2_21
REMARK    6  A    between atoms: C8_13  and  C9_14
REMARK    7  A    between atoms: C9_14  and  O3_15
REMARK    8  A    between atoms: N3_17  and  O4_19
REMARK    9  A    between atoms: S2_21  and  C11_25
REMARK   10  A    between atoms: C11_25  and  C12_26
REMARK   11  A    between atoms: C12_26  and  C13_27
REMARK   12  A    between atoms: C13_27  and  C14_28
REMARK   13  A    between atoms: C14_28  and  C15_29
ROOT
HETATM    1  S2  UNL     1       9.857  19.835  18.539  1.00  0.00     0.136 S
HETATM    2  O5  UNL     1      10.756  19.013  19.677  1.00  0.00    -0.234 OA
HETATM    3  C10 UNL     1       8.082  19.347  19.336  1.00  0.00     0.173 C
HETATM    4  N4  UNL     1       7.031  19.071  19.788  1.00  0.00    -0.181 NA
ENDROOT
BRANCH   1   5
HETATM    5  N2  UNL     1      10.517  18.600  17.357  1.00  0.00    -0.177 N
BRANCH   5   6
HETATM    6  S1  UNL     1       9.636  18.190  15.994  1.00  0.00     0.334 S
HETATM    7  O1  UNL     1       8.663  19.338  15.725  1.00  0.00    -0.181 OA
HETATM    8  O2  UNL     1      10.495  18.138  14.749  1.00  0.00    -0.181 OA
BRANCH   6   9
HETATM    9  N1  UNL     1       8.820  16.719  16.168  1.00  0.00    -0.293 N
HETATM   10  C1  UNL     1       8.502  16.317  17.489  1.00  0.00     0.165 C
BRANCH   9  11
HETATM   11  C2  UNL     1       7.829  16.452  15.156  1.00  0.00     0.097 C
HETATM   12  C3  UNL     1       6.643  15.834  15.786  1.00  0.00     0.026 C
HETATM   13  C4  UNL     1       6.258  14.473  15.276  1.00  0.00     0.002 C
HETATM   14  C5  UNL     1       6.376  14.473  13.757  1.00  0.00     0.000 C
HETATM   15  C6  UNL     1       7.864  14.525  13.497  1.00  0.00     0.002 C
HETATM   16  C7  UNL     1       8.502  15.734  14.055  1.00  0.00     0.026 C
ENDBRANCH   9  11
ENDBRANCH   6   9
ENDBRANCH   5   6
BRANCH   5  17
HETATM   17  C8  UNL     1      11.760  18.008  17.562  1.00  0.00     0.178 C
BRANCH  17  18
HETATM   18  C9  UNL     1      12.936  18.864  17.421  1.00  0.00     0.177 C
HETATM   19  N3  UNL     1      13.684  19.161  18.424  1.00  0.00    -0.246 N
ATOM     20  H3  UNL     1      13.424  18.774  19.332  1.00  0.00     0.196 HD
BRANCH  18  21
HETATM   21  O3  UNL     1      13.262  19.375  16.179  1.00  0.00    -0.344 OA
ATOM     22  H3  UNL     1      13.365  18.784  15.442  1.00  0.00     0.219 HD
ENDBRANCH  18  21
BRANCH  19  23
HETATM   23  O4  UNL     1      14.784  19.943  18.377  1.00  0.00    -0.288 OA
ATOM     24  H4  UNL     1      15.627  19.687  18.021  1.00  0.00     0.244 HD
ENDBRANCH  19  23
ENDBRANCH  17  18
ENDBRANCH   5  17
ENDBRANCH   1   5
BRANCH   1  25
HETATM   25  C11 UNL     1      10.530  21.461  19.035  1.00  0.00     0.134 C
BRANCH  25  26
HETATM   26  C12 UNL     1      11.597  22.214  18.268  1.00  0.00     0.014 C
BRANCH  26  27
HETATM   27  C13 UNL     1      12.775  22.657  19.039  1.00  0.00     0.002 C
BRANCH  27  28
HETATM   28  C14 UNL     1      13.583  23.733  18.399  1.00  0.00     0.011 C
BRANCH  28  29
HETATM   29  C15 UNL     1      14.637  24.259  19.311  1.00  0.00    -0.024 C
HETATM   30  C16 UNL     1      16.036  23.879  18.856  1.00  0.00     0.011 C
HETATM   31  C17 UNL     1      16.905  25.083  19.004  1.00  0.00     0.007 C
HETATM   32  C18 UNL     1      16.053  26.051  19.819  1.00  0.00     0.004 C
HETATM   33  C19 UNL     1      16.042  25.664  21.279  1.00  0.00     0.118 C
HETATM   34  C21 UNL     1      14.684  25.791  19.224  1.00  0.00     0.017 C
HETATM   35  N5  UNL     1      15.609  24.324  21.511  1.00  0.00    -0.420 N
HETATM   36  C20 UNL     1      14.457  23.921  20.760  1.00  0.00     0.123 C
ATOM     37  H5  UNL     1      16.084  23.699  22.163  1.00  0.00     0.153 HD
ENDBRANCH  28  29
ENDBRANCH  27  28
ENDBRANCH  26  27
ENDBRANCH  25  26
ENDBRANCH   1  25
TORSDOF 13
ENDMDL