MODEL 3
REMARK VINA RESULT: -9.634779360      1.195      1.344
REMARK  13 active torsions:
REMARK  status: ('A' for Active; 'I' for Inactive)
REMARK    1  A    between atoms: C6_8  and  C7_9
REMARK    2  A    between atoms: C8_12  and  C9_13
REMARK    3  A    between atoms: C9_13  and  C10_14
REMARK    4  A    between atoms: C10_14  and  C11_15
REMARK    5  A    between atoms: C11_15  and  C12_16
REMARK    6  A    between atoms: C12_16  and  C13_17
REMARK    7  A    between atoms: C14_22  and  N5_23
REMARK    8  A    between atoms: C15_25  and  O1_26
REMARK    9  A    between atoms: C15_25  and  C16_28
REMARK   10  A    between atoms: C16_28  and  C18_30
REMARK   11  A    between atoms: C18_30  and  C19_31
REMARK   12  A    between atoms: C19_31  and  C20_32
REMARK   13  A    between atoms: C20_32  and  N6_33
ROOT
HETATM    1  C13 UNL     1      11.178  19.694  19.318  1.00  0.00     0.069 A
HETATM    2  N3  UNL     1      11.901  18.645  19.025  1.00  0.00    -0.296 N
ATOM      3  H3  UNL     1      11.591  17.728  19.349  1.00  0.00     0.187 HD
HETATM    4  N4  UNL     1      12.971  18.727  18.354  1.00  0.00    -0.279 N
ATOM      5  H4  UNL     1      13.509  17.885  18.145  1.00  0.00     0.189 HD
HETATM    6  C14 UNL     1      13.393  19.911  17.922  1.00  0.00     0.166 A
HETATM    7  S1  UNL     1      12.119  20.941  18.558  1.00  0.00    -0.038 SA
ENDROOT
BRANCH   1   8
HETATM    8  C12 UNL     1       9.904  19.902  20.064  1.00  0.00     0.066 C
BRANCH   8   9
HETATM    9  C11 UNL     1       9.618  18.793  20.999  1.00  0.00     0.007 C
BRANCH   9  10
HETATM   10  C10 UNL     1       8.174  18.459  21.126  1.00  0.00     0.008 C
BRANCH  10  11
HETATM   11  C9  UNL     1       7.819  17.057  20.675  1.00  0.00     0.076 C
BRANCH  11  12
HETATM   12  C8  UNL     1       7.568  16.934  19.218  1.00  0.00     0.084 A
HETATM   13  N2  UNL     1       8.528  16.859  18.248  1.00  0.00    -0.343 N
HETATM   14  C7  UNL     1       7.977  16.779  17.020  1.00  0.00     0.068 A
ATOM     15  H2  UNL     1       9.532  16.864  18.429  1.00  0.00     0.167 HD
HETATM   16  C22 UNL     1       6.625  16.805  17.215  1.00  0.00     0.040 A
HETATM   17  N9  UNL     1       6.403  16.900  18.559  1.00  0.00    -0.338 N
HETATM   18  C23 UNL     1       5.322  16.767  16.496  1.00  0.00     0.061 C
HETATM   19  C25 UNL     1       4.964  16.941  18.810  1.00  0.00     0.131 C
HETATM   20  C24 UNL     1       4.300  17.280  17.492  1.00  0.00     0.026 C
BRANCH  14  21
HETATM   21  C6  UNL     1       8.735  16.694  15.774  1.00  0.00     0.014 A
HETATM   22  C2  UNL     1       9.386  17.812  15.316  1.00  0.00    -0.047 A
HETATM   23  C1  UNL     1       9.303  19.060  16.126  1.00  0.00     0.049 C
HETATM   24  C3  UNL     1      10.099  17.783  14.136  1.00  0.00     0.024 A
HETATM   25  C4  UNL     1      10.162  16.606  13.396  1.00  0.00     0.088 A
HETATM   26  N1  UNL     1       9.527  15.531  13.851  1.00  0.00    -0.374 N
HETATM   27  C5  UNL     1       8.821  15.540  15.009  1.00  0.00     0.101 A
ATOM     28  H1  UNL     1       9.572  14.669  13.308  1.00  0.00     0.164 HD
ENDBRANCH  14  21
ENDBRANCH  11  12
ENDBRANCH  10  11
ENDBRANCH   9  10
ENDBRANCH   8   9
ENDBRANCH   1   8
BRANCH   6  29
HETATM   29  N5  UNL     1      14.393  20.322  17.249  1.00  0.00    -0.319 N
HETATM   30  C15 UNL     1      14.732  20.176  15.942  1.00  0.00     0.121 C
ATOM     31  H5  UNL     1      15.066  20.861  17.794  1.00  0.00     0.169 HD
BRANCH  30  32
HETATM   32  O1  UNL     1      15.744  19.372  15.701  1.00  0.00    -0.349 OA
ATOM     33  H1  UNL     1      15.747  18.956  14.847  1.00  0.00     0.219 HD
ENDBRANCH  30  32
BRANCH  30  34
HETATM   34  C16 UNL     1      14.101  20.805  14.763  1.00  0.00     0.056 C
HETATM   35  C17 UNL     1      12.575  20.612  14.861  1.00  0.00     0.018 C
BRANCH  34  36
HETATM   36  C18 UNL     1      14.404  22.252  14.611  1.00  0.00     0.014 C
BRANCH  36  37
HETATM   37  C19 UNL     1      14.344  22.788  13.231  1.00  0.00     0.020 C
BRANCH  37  38
HETATM   38  C20 UNL     1      15.506  23.553  12.728  1.00  0.00     0.122 C
BRANCH  38  39
HETATM   39  N6  UNL     1      16.064  24.488  13.662  1.00  0.00    -0.367 N
HETATM   40  C21 UNL     1      17.307  24.811  13.639  1.00  0.00     0.196 C
HETATM   41  N7  UNL     1      17.783  25.744  14.601  1.00  0.00    -0.067 NA
HETATM   42  N8  UNL     1      18.147  24.220  12.652  1.00  0.00    -0.067 NA
ATOM     43  H6  UNL     1      15.456  24.908  14.365  1.00  0.00     0.161 HD
ENDBRANCH  38  39
ENDBRANCH  37  38
ENDBRANCH  36  37
ENDBRANCH  34  36
ENDBRANCH  30  34
ENDBRANCH   6  29
TORSDOF 13
ENDMDL