MODEL 1
REMARK VINA RESULT: -9.134645236      0.000      0.000
REMARK  12 active torsions:
REMARK  status: ('A' for Active; 'I' for Inactive)
REMARK    1  A    between atoms: C4_5  and  N1_6
REMARK       I    between atoms: N1_6  and  C5_8
REMARK    2  A    between atoms: C5_8  and  C6_10
REMARK    3  A    between atoms: C6_10  and  N2_11
REMARK    4  A    between atoms: C9_14  and  C10_15
REMARK    5  A    between atoms: C10_15  and  C11_16
REMARK    6  A    between atoms: C11_16  and  N3_17
REMARK       I    between atoms: N3_17  and  C12_19
REMARK    7  A    between atoms: C12_19  and  C13_21
REMARK    8  A    between atoms: C13_21  and  C14_22
REMARK    9  A    between atoms: C22_30  and  C23_31
REMARK   10  A    between atoms: C23_31  and  O4_33
REMARK   11  A    between atoms: O4_33  and  C24_34
REMARK   12  A    between atoms: C24_34  and  C25_35
ROOT
HETATM    1  N2  UNL     1      10.573  20.120  19.452  1.00  0.00     0.097 N
HETATM    2  C7  UNL     1       9.419  20.151  18.625  1.00  0.00     0.273 C
HETATM    3  C8  UNL     1       8.802  18.786  18.514  1.00  0.00     0.035 C
HETATM    4  C9  UNL     1       8.652  18.166  19.861  1.00  0.00    -0.010 C
HETATM    5  C20 UNL     1       8.887  19.173  20.937  1.00  0.00     0.035 C
HETATM    6  C21 UNL     1      10.302  19.692  20.803  1.00  0.00     0.273 C
ENDROOT
BRANCH   1   7
HETATM    7  C6  UNL     1      11.401  21.275  19.457  1.00  0.00     0.374 C
BRANCH   7   8
HETATM    8  C5  UNL     1      11.919  21.709  18.151  1.00  0.00     0.251 C
HETATM    9  N1  UNL     1      12.992  20.997  17.575  1.00  0.00    -0.319 N
ATOM     10  H1  UNL     1      13.410  20.196  18.048  1.00  0.00     0.169 HD
HETATM   11  O1  UNL     1      11.429  22.678  17.561  1.00  0.00    -0.271 OA
BRANCH   9  12
HETATM   12  C4  UNL     1      13.476  21.443  16.293  1.00  0.00     0.093 A
HETATM   13  S1  UNL     1      12.883  20.905  14.759  1.00  0.00    -0.083 SA
HETATM   14  C3  UNL     1      13.889  21.820  13.753  1.00  0.00     0.059 A
HETATM   15  C2  UNL     1      14.664  22.526  14.624  1.00  0.00    -0.036 A
HETATM   16  C1  UNL     1      15.716  23.485  14.071  1.00  0.00     0.050 C
HETATM   17  C22 UNL     1      14.453  22.333  15.946  1.00  0.00     0.079 A
BRANCH  17  18
HETATM   18  C23 UNL     1      15.255  23.068  16.978  1.00  0.00     0.297 C
HETATM   19  O3  UNL     1      16.510  23.136  16.925  1.00  0.00    -0.259 OA
BRANCH  18  20
HETATM   20  O4  UNL     1      14.679  23.712  18.045  1.00  0.00    -0.308 OA
BRANCH  20  21
HETATM   21  C24 UNL     1      15.143  23.753  19.351  1.00  0.00     0.278 C
BRANCH  21  22
HETATM   22  C25 UNL     1      15.913  24.933  19.732  1.00  0.00     0.255 C
HETATM   23  N4  UNL     1      17.135  24.809  20.444  1.00  0.00    -0.060 NA
HETATM   24  O5  UNL     1      15.518  26.089  19.440  1.00  0.00    -0.274 OA
ENDBRANCH  21  22
ENDBRANCH  20  21
ENDBRANCH  18  20
ENDBRANCH  17  18
ENDBRANCH   9  12
ENDBRANCH   7   8
ENDBRANCH   1   7
BRANCH   4  25
HETATM   25  C10 UNL     1       7.346  17.420  20.066  1.00  0.00     0.024 C
BRANCH  25  26
HETATM   26  C11 UNL     1       7.437  15.953  19.856  1.00  0.00     0.123 C
BRANCH  26  27
HETATM   27  N3  UNL     1       7.950  15.696  18.517  1.00  0.00    -0.361 N
HETATM   28  C12 UNL     1       7.040  15.668  17.400  1.00  0.00     0.217 C
HETATM   29  O2  UNL     1       5.835  15.868  17.642  1.00  0.00    -0.274 OA
ATOM     30  H3  UNL     1       8.947  15.537  18.371  1.00  0.00     0.162 HD
BRANCH  28  31
HETATM   31  C13 UNL     1       7.592  15.406  16.062  1.00  0.00     0.107 C
BRANCH  31  32
HETATM   32  C14 UNL     1       8.404  16.498  15.461  1.00  0.00    -0.006 C
HETATM   33  C15 UNL     1       9.028  16.000  14.162  1.00  0.00     0.005 C
HETATM   34  C16 UNL     1      10.268  16.860  13.950  1.00  0.00     0.000 C
HETATM   35  C17 UNL     1       9.985  18.297  14.353  1.00  0.00     0.000 C
HETATM   36  C18 UNL     1       8.509  18.621  14.260  1.00  0.00     0.000 C
HETATM   37  C19 UNL     1       7.666  17.760  15.181  1.00  0.00     0.005 C
ENDBRANCH  31  32
ENDBRANCH  28  31
ENDBRANCH  26  27
ENDBRANCH  25  26
ENDBRANCH   4  25
TORSDOF 12
ENDMDL