MODEL 2
REMARK VINA RESULT: -6.511265880      2.416      3.753
REMARK  0 active torsions:
REMARK  status: ('A' for Active; 'I' for Inactive)
ROOT
HETATM    1  C1  UNL     1       1.281  25.666  19.015  1.00  0.00     0.018 C
HETATM    2  C2  UNL     1       2.100  25.763  18.129  1.00  0.00    -0.078 C
HETATM    3  C3  UNL     1       3.089  25.880  17.091  1.00  0.00     0.017 A
HETATM    4  C4  UNL     1       3.682  24.763  16.534  1.00  0.00     0.021 A
HETATM    5  C5  UNL     1       4.633  24.862  15.536  1.00  0.00     0.014 A
HETATM    6  C6  UNL     1       5.032  26.092  15.051  1.00  0.00    -0.023 A
HETATM    7  C7  UNL     1       5.971  26.255  14.062  1.00  0.00     0.029 A
HETATM    8  C8  UNL     1       6.362  27.495  13.587  1.00  0.00     0.088 A
HETATM    9  N1  UNL     1       5.777  28.572  14.137  1.00  0.00    -0.374 N
ATOM     10  H1  UNL     1       6.039  29.504  13.812  1.00  0.00     0.164 HD
HETATM   11  C9  UNL     1       4.841  28.446  15.120  1.00  0.00     0.100 A
HETATM   12  C10 UNL     1       4.450  27.213  15.596  1.00  0.00    -0.009 A
HETATM   13  C11 UNL     1       3.494  27.108  16.600  1.00  0.00     0.034 A
ENDROOT
TORSDOF 0
ENDMDL