MODEL 2
REMARK VINA RESULT: -6.628149688      1.055      2.175
REMARK  0 active torsions:
REMARK  status: ('A' for Active; 'I' for Inactive)
ROOT
HETATM    1  N1  UNL     1       1.620  31.620  16.840  1.00  0.00    -0.192 NA
HETATM    2  C1  UNL     1       2.447  31.066  16.226  1.00  0.00     0.088 C
HETATM    3  C2  UNL     1       3.459  30.374  15.480  1.00  0.00     0.105 C
HETATM    4  C3  UNL     1       3.718  29.090  15.648  1.00  0.00    -0.015 A
HETATM    5  C4  UNL     1       3.071  28.164  16.567  1.00  0.00     0.014 A
HETATM    6  C5  UNL     1       3.618  26.955  16.434  1.00  0.00     0.013 A
HETATM    7  C6  UNL     1       4.674  26.982  15.413  1.00  0.00    -0.025 A
HETATM    8  C7  UNL     1       5.514  26.001  14.928  1.00  0.00     0.012 A
HETATM    9  C8  UNL     1       6.412  26.358  13.951  1.00  0.00     0.001 A
HETATM   10  C9  UNL     1       6.466  27.669  13.477  1.00  0.00     0.001 A
HETATM   11  C10 UNL     1       5.637  28.632  13.959  1.00  0.00     0.013 A
HETATM   12  C11 UNL     1       4.718  28.290  14.949  1.00  0.00    -0.015 A
ENDROOT
TORSDOF 0
ENDMDL