MODEL 4
REMARK VINA RESULT: -6.549883539      3.217      4.431
REMARK  0 active torsions:
REMARK  status: ('A' for Active; 'I' for Inactive)
ROOT
HETATM    1  N1  UNL     1       4.242  23.669  16.908  1.00  0.00    -0.191 NA
HETATM    2  C1  UNL     1       4.409  24.569  16.198  1.00  0.00     0.099 C
HETATM    3  C2  UNL     1       4.611  25.713  15.327  1.00  0.00     0.045 A
HETATM    4  C3  UNL     1       5.605  26.644  15.564  1.00  0.00     0.023 A
HETATM    5  C4  UNL     1       5.793  27.731  14.733  1.00  0.00     0.014 A
HETATM    6  C5  UNL     1       4.987  27.919  13.634  1.00  0.00    -0.026 A
HETATM    7  C6  UNL     1       5.159  29.003  12.786  1.00  0.00     0.012 A
HETATM    8  C7  UNL     1       4.374  29.224  11.679  1.00  0.00     0.001 A
HETATM    9  C8  UNL     1       3.362  28.291  11.425  1.00  0.00     0.001 A
HETATM   10  C9  UNL     1       3.185  27.211  12.264  1.00  0.00     0.012 A
HETATM   11  C10 UNL     1       3.981  27.002  13.370  1.00  0.00    -0.025 A
HETATM   12  C11 UNL     1       3.817  25.926  14.220  1.00  0.00     0.034 A
ENDROOT
TORSDOF 0
ENDMDL