MODEL 2
REMARK VINA RESULT: -6.550328667      2.427      4.647
REMARK  0 active torsions:
REMARK  status: ('A' for Active; 'I' for Inactive)
ROOT
HETATM    1  C1  UNL     1       5.353  29.619  12.487  1.00  0.00     0.023 C
HETATM    2  C2  UNL     1       5.219  28.773  13.492  1.00  0.00    -0.046 C
HETATM    3  C3  UNL     1       5.953  27.514  13.434  1.00  0.00     0.011 C
HETATM    4  C4  UNL     1       5.762  26.395  14.155  1.00  0.00     0.013 C
HETATM    5  C5  UNL     1       4.778  26.110  15.194  1.00  0.00    -0.023 A
HETATM    6  C6  UNL     1       4.727  24.791  15.586  1.00  0.00     0.029 A
HETATM    7  C7  UNL     1       3.863  24.333  16.555  1.00  0.00     0.088 A
HETATM    8  N1  UNL     1       3.030  25.231  17.140  1.00  0.00    -0.374 N
ATOM      9  H1  UNL     1       2.378  24.921  17.860  1.00  0.00     0.164 HD
HETATM   10  C8  UNL     1       3.056  26.526  16.778  1.00  0.00     0.099 A
HETATM   11  C9  UNL     1       3.915  26.995  15.812  1.00  0.00    -0.011 A
HETATM   12  C10 UNL     1       3.793  28.429  15.558  1.00  0.00     0.014 C
HETATM   13  C11 UNL     1       4.339  29.174  14.588  1.00  0.00     0.011 C
ENDROOT
TORSDOF 0
ENDMDL