MODEL 3
REMARK VINA RESULT: -6.338804719      1.258      1.511
REMARK  0 active torsions:
REMARK  status: ('A' for Active; 'I' for Inactive)
ROOT
HETATM    1  C1  UNL     1       2.731  26.682  17.374  1.00  0.00     0.229 C
HETATM    2  N1  UNL     1       3.498  26.811  16.515  1.00  0.00    -0.428 NA
HETATM    3  C2  UNL     1       4.402  26.969  15.467  1.00  0.00     0.116 A
HETATM    4  C3  UNL     1       5.339  26.021  15.152  1.00  0.00     0.045 A
HETATM    5  C4  UNL     1       6.225  26.207  14.101  1.00  0.00     0.004 A
HETATM    6  C5  UNL     1       6.191  27.352  13.340  1.00  0.00     0.014 A
HETATM    7  C6  UNL     1       5.243  28.333  13.642  1.00  0.00    -0.007 A
HETATM    8  C7  UNL     1       5.204  29.491  12.875  1.00  0.00     0.100 A
HETATM    9  N2  UNL     1       4.283  30.407  13.195  1.00  0.00    -0.374 N
ATOM     10  H2  UNL     1       4.232  31.266  12.649  1.00  0.00     0.164 HD
HETATM   11  C8  UNL     1       3.421  30.233  14.214  1.00  0.00     0.088 A
HETATM   12  C9  UNL     1       3.439  29.092  14.988  1.00  0.00     0.032 A
HETATM   13  C10 UNL     1       4.377  28.127  14.685  1.00  0.00     0.017 A
ENDROOT
TORSDOF 0
ENDMDL