MODEL 2
REMARK VINA RESULT: -6.952741850      2.285      3.402
REMARK  0 active torsions:
REMARK  status: ('A' for Active; 'I' for Inactive)
ROOT
HETATM    1  N1  UNL     1       3.433  30.777  15.385  1.00  0.00    -0.191 NA
HETATM    2  C1  UNL     1       4.013  29.816  15.100  1.00  0.00     0.100 C
HETATM    3  C2  UNL     1       4.723  28.597  14.751  1.00  0.00     0.055 A
HETATM    4  C3  UNL     1       5.759  28.596  13.851  1.00  0.00     0.023 A
HETATM    5  C4  UNL     1       6.431  27.427  13.523  1.00  0.00     0.002 A
HETATM    6  C5  UNL     1       6.076  26.224  14.097  1.00  0.00     0.012 A
HETATM    7  C6  UNL     1       5.040  26.203  15.003  1.00  0.00    -0.025 A
HETATM    8  C7  UNL     1       4.683  24.999  15.578  1.00  0.00     0.012 A
HETATM    9  C8  UNL     1       3.641  25.006  16.482  1.00  0.00     0.001 A
HETATM   10  C9  UNL     1       2.968  26.184  16.807  1.00  0.00     0.001 A
HETATM   11  C10 UNL     1       3.341  27.367  16.224  1.00  0.00     0.014 A
HETATM   12  C11 UNL     1       4.374  27.382  15.323  1.00  0.00    -0.005 A
ENDROOT
TORSDOF 0
ENDMDL