MODEL 2
REMARK VINA RESULT: -6.730727215      1.984      3.092
REMARK  0 active torsions:
REMARK  status: ('A' for Active; 'I' for Inactive)
ROOT
HETATM    1  C1  UNL     1       2.674  28.870  17.899  1.00  0.00     0.018 C
HETATM    2  C2  UNL     1       3.139  27.934  17.271  1.00  0.00    -0.077 C
HETATM    3  C3  UNL     1       3.708  26.837  16.539  1.00  0.00     0.030 A
HETATM    4  C4  UNL     1       3.352  25.526  16.796  1.00  0.00     0.038 A
HETATM    5  C5  UNL     1       3.933  24.519  16.060  1.00  0.00     0.090 A
HETATM    6  N1  UNL     1       4.826  24.801  15.112  1.00  0.00    -0.365 N
ATOM      7  H1  UNL     1       5.235  24.028  14.587  1.00  0.00     0.165 HD
HETATM    8  C6  UNL     1       5.212  26.052  14.815  1.00  0.00     0.043 A
HETATM    9  C7  UNL     1       6.137  26.338  13.833  1.00  0.00     0.030 A
HETATM   10  C8  UNL     1       6.497  27.645  13.571  1.00  0.00     0.002 A
HETATM   11  C9  UNL     1       5.928  28.661  14.294  1.00  0.00     0.001 A
HETATM   12  C10 UNL     1       5.006  28.360  15.272  1.00  0.00     0.015 A
HETATM   13  C11 UNL     1       4.634  27.076  15.551  1.00  0.00     0.009 A
ENDROOT
TORSDOF 0
ENDMDL