MODEL 2
REMARK VINA RESULT: -6.276457927      2.117      2.502
REMARK  1 active torsions:
REMARK  status: ('A' for Active; 'I' for Inactive)
REMARK    1  A    between atoms: O1_1  and  N1_3
ROOT
HETATM    1  N1  UNL     1       4.567  29.168  11.950  1.00  0.00    -0.235 N
HETATM    2  C1  UNL     1       3.453  29.021  11.221  1.00  0.00     0.123 A
HETATM    3  C2  UNL     1       2.759  27.832  11.232  1.00  0.00     0.021 A
HETATM    4  C3  UNL     1       3.218  26.783  12.002  1.00  0.00     0.015 A
HETATM    5  C4  UNL     1       4.371  26.917  12.764  1.00  0.00    -0.007 A
HETATM    6  C5  UNL     1       4.848  25.875  13.544  1.00  0.00     0.014 A
HETATM    7  C6  UNL     1       5.991  26.021  14.292  1.00  0.00     0.001 A
HETATM    8  C7  UNL     1       6.639  27.238  14.236  1.00  0.00     0.002 A
HETATM    9  C8  UNL     1       6.169  28.278  13.463  1.00  0.00     0.033 A
HETATM   10  C9  UNL     1       5.009  28.138  12.699  1.00  0.00     0.072 A
ENDROOT
BRANCH   1  11
HETATM   11  O1  UNL     1       5.218  30.373  11.902  1.00  0.00    -0.283 OA
ATOM     12  H1  UNL     1       6.082  30.401  11.508  1.00  0.00     0.245 HD
ENDBRANCH   1  11
TORSDOF 1
ENDMDL