MODEL 5
REMARK VINA RESULT: -6.023969439      2.862      4.437
REMARK  1 active torsions:
REMARK  status: ('A' for Active; 'I' for Inactive)
REMARK    1  A    between atoms: O1_1  and  N1_3
ROOT
HETATM    1  N1  UNL     1       4.798  25.208  15.033  1.00  0.00    -0.246 N
HETATM    2  C1  UNL     1       5.756  26.096  15.356  1.00  0.00     0.123 A
HETATM    3  C2  UNL     1       5.835  27.243  14.589  1.00  0.00     0.032 A
HETATM    4  C3  UNL     1       4.982  27.491  13.530  1.00  0.00    -0.023 A
HETATM    5  C4  UNL     1       5.050  28.628  12.758  1.00  0.00     0.012 A
HETATM    6  C5  UNL     1       4.196  28.871  11.703  1.00  0.00     0.001 A
HETATM    7  C6  UNL     1       3.227  27.938  11.400  1.00  0.00     0.001 A
HETATM    8  C7  UNL     1       3.149  26.787  12.172  1.00  0.00     0.014 A
HETATM    9  C8  UNL     1       4.010  26.556  13.226  1.00  0.00    -0.008 A
HETATM   10  C9  UNL     1       3.945  25.416  14.004  1.00  0.00     0.134 A
ENDROOT
BRANCH   1  11
HETATM   11  O1  UNL     1       4.713  24.062  15.794  1.00  0.00    -0.284 OA
ATOM     12  H1  UNL     1       4.391  24.152  16.684  1.00  0.00     0.245 HD
ENDBRANCH   1  11
TORSDOF 1
ENDMDL