MODEL 2
REMARK VINA RESULT: -9.287624639      2.462      4.323
REMARK  15 active torsions:
REMARK  status: ('A' for Active; 'I' for Inactive)
REMARK    1  A    between atoms: N1_1  and  N2_4
REMARK    2  A    between atoms: C1_6  and  N3_7
REMARK    3  A    between atoms: C1_6  and  C5_17
REMARK    4  A    between atoms: N3_7  and  C2_9
REMARK    5  A    between atoms: C2_9  and  C3_10
REMARK    6  A    between atoms: C3_10  and  S1_11
REMARK    7  A    between atoms: S1_11  and  N4_12
REMARK    8  A    between atoms: C5_17  and  C6_18
REMARK    9  A    between atoms: C5_17  and  N10_28
REMARK   10  A    between atoms: C6_18  and  S2_19
REMARK   11  A    between atoms: S2_19  and  S3_20
REMARK   12  A    between atoms: S3_20  and  C7_21
REMARK   13  A    between atoms: C7_21  and  C8_22
REMARK   14  A    between atoms: C8_22  and  N7_23
REMARK   15  A    between atoms: N10_28  and  C10_30
REMARK       I    between atoms: N12_37  and  C14_38
ROOT
HETATM    1  C5  UNL     1     -17.290 -19.594 -21.823  1.00  0.00     0.162 C
ENDROOT
BRANCH   1   2
HETATM    2  C1  UNL     1     -16.463 -20.437 -20.844  1.00  0.00     0.115 C
HETATM    3  N2  UNL     1     -16.918 -20.530 -19.666  1.00  0.00    -0.294 N
ATOM      4  H2  UNL     1     -17.789 -20.026 -19.494  1.00  0.00     0.187 HD
BRANCH   3   5
HETATM    5  N1  UNL     1     -16.415 -21.204 -18.594  1.00  0.00    -0.344 N
ATOM      6  H12 UNL     1     -15.740 -20.671 -18.046  1.00  0.00     0.176 HD
ATOM      7  H11 UNL     1     -16.618 -22.150 -18.270  1.00  0.00     0.176 HD
ENDBRANCH   3   5
BRANCH   2   8
HETATM    8  N3  UNL     1     -15.288 -21.020 -21.368  1.00  0.00    -0.376 N
ATOM      9  H3  UNL     1     -14.634 -20.429 -21.882  1.00  0.00     0.160 HD
BRANCH   8  10
HETATM   10  C2  UNL     1     -14.985 -22.393 -21.208  1.00  0.00     0.133 C
BRANCH  10  11
HETATM   11  C3  UNL     1     -14.596 -23.103 -22.490  1.00  0.00     0.117 C
BRANCH  11  12
HETATM   12  S1  UNL     1     -13.096 -22.302 -23.123  1.00  0.00    -0.052 SA
BRANCH  12  13
HETATM   13  N4  UNL     1     -13.530 -21.277 -24.490  1.00  0.00    -0.307 N
HETATM   14  C4  UNL     1     -12.798 -21.170 -25.563  1.00  0.00     0.206 C
HETATM   15  N5  UNL     1     -13.305 -20.299 -26.559  1.00  0.00    -0.066 NA
HETATM   16  N6  UNL     1     -11.586 -21.884 -25.697  1.00  0.00    -0.066 NA
ATOM     17  H4  UNL     1     -14.396 -20.741 -24.438  1.00  0.00     0.176 HD
ENDBRANCH  12  13
ENDBRANCH  11  12
ENDBRANCH  10  11
ENDBRANCH   8  10
ENDBRANCH   2   8
ENDBRANCH   1   2
BRANCH   1  18
HETATM   18  C6  UNL     1     -18.523 -20.390 -22.151  1.00  0.00     0.119 C
BRANCH  18  19
HETATM   19  S2  UNL     1     -19.771 -19.460 -22.982  1.00  0.00    -0.095 SA
BRANCH  19  20
HETATM   20  S3  UNL     1     -19.560 -17.438 -23.184  1.00  0.00    -0.096 SA
BRANCH  20  21
HETATM   21  C7  UNL     1     -19.498 -16.717 -24.788  1.00  0.00     0.105 C
BRANCH  21  22
HETATM   22  C8  UNL     1     -18.979 -15.311 -24.797  1.00  0.00     0.133 C
BRANCH  22  23
HETATM   23  N7  UNL     1     -19.674 -14.462 -25.723  1.00  0.00    -0.366 N
HETATM   24  C9  UNL     1     -20.336 -13.419 -25.413  1.00  0.00     0.196 C
HETATM   25  N8  UNL     1     -20.484 -12.935 -24.086  1.00  0.00    -0.067 NA
HETATM   26  N9  UNL     1     -20.959 -12.713 -26.506  1.00  0.00    -0.067 NA
ATOM     27  H7  UNL     1     -19.635 -14.716 -26.710  1.00  0.00     0.161 HD
ENDBRANCH  22  23
ENDBRANCH  21  22
ENDBRANCH  20  21
ENDBRANCH  19  20
ENDBRANCH  18  19
ENDBRANCH   1  18
BRANCH   1  28
HETATM   28  N10 UNL     1     -16.513 -19.478 -23.016  1.00  0.00    -0.362 N
ATOM     29  H10 UNL     1     -16.165 -20.358 -23.396  1.00  0.00     0.162 HD
BRANCH  28  30
HETATM   30  C10 UNL     1     -16.193 -18.444 -23.671  1.00  0.00     0.128 A
HETATM   31  C11 UNL     1     -15.818 -17.290 -23.037  1.00  0.00     0.056 A
HETATM   32  C12 UNL     1     -15.450 -16.150 -23.742  1.00  0.00     0.079 A
HETATM   33  C13 UNL     1     -15.477 -16.220 -25.118  1.00  0.00     0.260 A
HETATM   34  O1  UNL     1     -15.148 -15.198 -25.784  1.00  0.00    -0.267 OA
HETATM   35  N11 UNL     1     -15.846 -17.355 -25.711  1.00  0.00    -0.254 N
HETATM   36  N12 UNL     1     -16.197 -18.445 -25.006  1.00  0.00    -0.189 N
ATOM     37  H11 UNL     1     -15.864 -17.398 -26.731  1.00  0.00     0.191 HD
HETATM   38  C14 UNL     1     -16.571 -19.607 -25.710  1.00  0.00     0.355 C
HETATM   39  N13 UNL     1     -16.954 -20.800 -25.050  1.00  0.00    -0.038 NA
HETATM   40  O2  UNL     1     -16.564 -19.585 -26.995  1.00  0.00    -0.249 OA
ENDBRANCH  28  30
ENDBRANCH   1  28
TORSDOF 15
ENDMDL