MODEL 2
REMARK VINA RESULT: -9.960934405      0.941      1.743
REMARK  15 active torsions:
REMARK  status: ('A' for Active; 'I' for Inactive)
REMARK    1  A    between atoms: N1_1  and  C1_5
REMARK    2  A    between atoms: C1_5  and  C2_6
REMARK       I    between atoms: C2_6  and  N2_8
REMARK    3  A    between atoms: N2_8  and  C3_10
REMARK    4  A    between atoms: C3_10  and  C4_11
REMARK    5  A    between atoms: C4_11  and  O2_12
REMARK    6  A    between atoms: O2_12  and  C5_13
REMARK    7  A    between atoms: C5_13  and  C6_14
REMARK    8  A    between atoms: C6_14  and  N3_15
REMARK       I    between atoms: N3_15  and  C7_17
REMARK    9  A    between atoms: C7_17  and  C8_19
REMARK   10  A    between atoms: C8_19  and  O4_20
REMARK   11  A    between atoms: O4_20  and  C9_21
REMARK   12  A    between atoms: C12_24  and  S1_25
REMARK   13  A    between atoms: S1_25  and  N4_28
REMARK   14  A    between atoms: N4_28  and  C13_30
REMARK   15  A    between atoms: C14_33  and  O7_34
ROOT
HETATM    1  C9  UNL     1     -16.616 -20.789 -21.439  1.00  0.00     0.069 A
HETATM    2  C10 UNL     1     -15.699 -20.381 -22.385  1.00  0.00     0.038 A
HETATM    3  C11 UNL     1     -16.113 -19.693 -23.504  1.00  0.00     0.028 A
HETATM    4  C12 UNL     1     -17.454 -19.413 -23.671  1.00  0.00     0.080 A
HETATM    5  C17 UNL     1     -18.358 -19.826 -22.720  1.00  0.00     0.028 A
HETATM    6  C18 UNL     1     -17.936 -20.511 -21.609  1.00  0.00     0.038 A
ENDROOT
BRANCH   1   7
HETATM    7  O4  UNL     1     -16.162 -21.491 -20.306  1.00  0.00    -0.342 OA
BRANCH   7   8
HETATM    8  C8  UNL     1     -17.063 -21.841 -19.298  1.00  0.00     0.278 C
BRANCH   8   9
HETATM    9  C7  UNL     1     -16.538 -21.412 -17.942  1.00  0.00     0.241 C
HETATM   10  N3  UNL     1     -15.194 -21.521 -17.689  1.00  0.00    -0.357 N
ATOM     11  H3  UNL     1     -14.652 -21.892 -18.470  1.00  0.00     0.162 HD
HETATM   12  O3  UNL     1     -17.413 -20.995 -17.180  1.00  0.00    -0.271 OA
BRANCH  10  13
HETATM   13  C6  UNL     1     -14.423 -21.213 -16.545  1.00  0.00     0.148 C
BRANCH  13  14
HETATM   14  C5  UNL     1     -14.225 -22.241 -15.509  1.00  0.00     0.187 C
BRANCH  14  15
HETATM   15  O2  UNL     1     -13.451 -23.324 -15.717  1.00  0.00    -0.388 OA
BRANCH  15  16
HETATM   16  C4  UNL     1     -12.662 -23.683 -14.614  1.00  0.00     0.187 C
BRANCH  16  17
HETATM   17  C3  UNL     1     -12.026 -25.044 -14.798  1.00  0.00     0.148 C
BRANCH  17  18
HETATM   18  N2  UNL     1     -12.884 -26.108 -14.336  1.00  0.00    -0.358 N
HETATM   19  C2  UNL     1     -13.399 -27.029 -15.265  1.00  0.00     0.243 C
HETATM   20  O1  UNL     1     -13.120 -26.933 -16.477  1.00  0.00    -0.272 OA
ATOM     21  H2  UNL     1     -13.115 -26.191 -13.346  1.00  0.00     0.162 HD
BRANCH  19  22
HETATM   22  C1  UNL     1     -14.278 -28.123 -14.809  1.00  0.00     0.331 C
BRANCH  22  23
HETATM   23  N1  UNL     1     -15.074 -28.649 -15.901  1.00  0.00    -0.071 N
ATOM     24  H13 UNL     1     -14.658 -28.432 -16.807  1.00  0.00     0.274 HD
ATOM     25  H12 UNL     1     -15.024 -29.667 -15.945  1.00  0.00     0.274 HD
ATOM     26  H11 UNL     1     -16.040 -28.324 -15.846  1.00  0.00     0.274 HD
ENDBRANCH  22  23
ENDBRANCH  19  22
ENDBRANCH  17  18
ENDBRANCH  16  17
ENDBRANCH  15  16
ENDBRANCH  14  15
ENDBRANCH  13  14
ENDBRANCH  10  13
ENDBRANCH   8   9
ENDBRANCH   7   8
ENDBRANCH   1   7
BRANCH   4  27
HETATM   27  S1  UNL     1     -17.992 -18.547 -25.073  1.00  0.00     0.276 S
HETATM   28  O5  UNL     1     -19.502 -18.710 -25.161  1.00  0.00    -0.200 OA
HETATM   29  O6  UNL     1     -17.432 -19.160 -26.345  1.00  0.00    -0.200 OA
BRANCH  27  30
HETATM   30  N4  UNL     1     -17.545 -16.893 -24.934  1.00  0.00    -0.112 N
ATOM     31  H4  UNL     1     -16.608 -16.613 -25.225  1.00  0.00     0.197 HD
BRANCH  30  32
HETATM   32  C13 UNL     1     -18.350 -15.984 -24.473  1.00  0.00     0.697 A
HETATM   33  N5  UNL     1     -18.646 -14.900 -25.227  1.00  0.00    -0.168 N
HETATM   34  C14 UNL     1     -19.470 -13.922 -24.813  1.00  0.00     0.185 A
ATOM     35  H5  UNL     1     -18.224 -14.821 -26.152  1.00  0.00     0.186 HD
HETATM   36  C15 UNL     1     -20.058 -13.996 -23.564  1.00  0.00     0.165 A
HETATM   37  N6  UNL     1     -20.937 -12.968 -23.105  1.00  0.00    -0.092 NA
HETATM   38  C16 UNL     1     -19.762 -15.097 -22.789  1.00  0.00     0.288 A
HETATM   39  O8  UNL     1     -20.268 -15.205 -21.664  1.00  0.00    -0.265 OA
HETATM   40  N7  UNL     1     -18.922 -16.056 -23.259  1.00  0.00    -0.153 N
ATOM     41  H7  UNL     1     -18.718 -16.860 -22.667  1.00  0.00     0.187 HD
BRANCH  34  42
HETATM   42  O7  UNL     1     -19.758 -12.815 -25.613  1.00  0.00    -0.344 OA
ATOM     43  H7  UNL     1     -19.783 -11.934 -25.259  1.00  0.00     0.219 HD
ENDBRANCH  34  42
ENDBRANCH  30  32
ENDBRANCH  27  30
ENDBRANCH   4  27
TORSDOF 15
ENDMDL