MODEL 5
REMARK VINA RESULT: -7.893865206      6.460      9.605
REMARK  17 active torsions:
REMARK  status: ('A' for Active; 'I' for Inactive)
REMARK    1  A    between atoms: C2_2  and  N1_3
REMARK    2  A    between atoms: C2_2  and  N2_6
REMARK    3  A    between atoms: N2_6  and  C3_8
REMARK    4  A    between atoms: C3_8  and  C4_9
REMARK    5  A    between atoms: C4_9  and  N3_10
REMARK    6  A    between atoms: N3_10  and  C5_13
REMARK    7  A    between atoms: C5_13  and  C6_14
REMARK    8  A    between atoms: N5_17  and  C8_18
REMARK    9  A    between atoms: C8_18  and  C9_19
REMARK   10  A    between atoms: C9_19  and  O1_20
REMARK   11  A    between atoms: C9_19  and  C10_22
REMARK   12  A    between atoms: C10_22  and  C11_23
REMARK   13  A    between atoms: C11_23  and  O2_24
REMARK   14  A    between atoms: C11_23  and  C12_26
REMARK   15  A    between atoms: C12_26  and  N6_27
REMARK   16  A    between atoms: C15_33  and  C16_34
REMARK       I    between atoms: C16_34  and  N8_36
REMARK   17  A    between atoms: N8_36  and  C17_38
ROOT
HETATM    1  C11 UNL     1     -16.548 -19.652 -25.251  1.00  0.00     0.158 C
ENDROOT
BRANCH   1   2
HETATM    2  C10 UNL     1     -16.044 -19.815 -26.709  1.00  0.00     0.070 C
BRANCH   2   3
HETATM    3  C9  UNL     1     -14.607 -19.430 -26.754  1.00  0.00     0.140 C
BRANCH   3   4
HETATM    4  C8  UNL     1     -13.684 -20.606 -27.142  1.00  0.00     0.170 C
BRANCH   4   5
HETATM    5  N5  UNL     1     -12.999 -21.021 -26.049  1.00  0.00    -0.321 N
HETATM    6  C6  UNL     1     -11.858 -21.770 -25.876  1.00  0.00     0.140 C
HETATM    7  C7  UNL     1     -12.264 -21.733 -24.385  1.00  0.00     0.162 C
HETATM    8  N4  UNL     1     -13.041 -20.606 -24.795  1.00  0.00    -0.141 NA
BRANCH   6   9
HETATM    9  C5  UNL     1     -10.512 -21.108 -25.967  1.00  0.00     0.259 C
BRANCH   9  10
HETATM   10  N3  UNL     1      -9.688 -21.203 -24.807  1.00  0.00    -0.072 N
ATOM     11  H32 UNL     1     -10.193 -21.610 -24.020  1.00  0.00     0.277 HD
ATOM     12  H31 UNL     1      -9.493 -20.285 -24.408  1.00  0.00     0.277 HD
BRANCH  10  13
HETATM   13  C4  UNL     1      -8.456 -21.939 -25.098  1.00  0.00     0.251 C
BRANCH  13  14
HETATM   14  C3  UNL     1      -7.732 -21.358 -26.273  1.00  0.00     0.148 C
BRANCH  14  15
HETATM   15  N2  UNL     1      -6.879 -20.250 -25.878  1.00  0.00    -0.379 N
ATOM     16  H2  UNL     1      -6.522 -20.181 -24.925  1.00  0.00     0.160 HD
BRANCH  15  17
HETATM   17  C2  UNL     1      -6.554 -19.267 -26.848  1.00  0.00     0.066 C
HETATM   18  C1  UNL     1      -7.614 -18.889 -27.863  1.00  0.00     0.088 C
BRANCH  17  19
HETATM   19  N1  UNL     1      -5.443 -18.693 -26.907  1.00  0.00    -0.389 N
ATOM     20  H12 UNL     1      -4.554 -19.190 -26.973  1.00  0.00     0.157 HD
ATOM     21  H11 UNL     1      -5.422 -17.674 -26.884  1.00  0.00     0.157 HD
ENDBRANCH  17  19
ENDBRANCH  15  17
ENDBRANCH  14  15
ENDBRANCH  13  14
ENDBRANCH  10  13
ENDBRANCH   9  10
ENDBRANCH   6   9
ENDBRANCH   4   5
ENDBRANCH   3   4
BRANCH   3  22
HETATM   22  O1  UNL     1     -14.329 -18.289 -27.472  1.00  0.00    -0.394 OA
ATOM     23  H1  UNL     1     -14.263 -17.521 -26.916  1.00  0.00     0.210 HD
ENDBRANCH   3  22
ENDBRANCH   2   3
ENDBRANCH   1   2
BRANCH   1  24
HETATM   24  O2  UNL     1     -17.069 -20.914 -24.958  1.00  0.00    -0.390 OA
ATOM     25  H2  UNL     1     -17.995 -20.740 -24.841  1.00  0.00     0.210 HD
ENDBRANCH   1  24
BRANCH   1  26
HETATM   26  C12 UNL     1     -17.554 -18.549 -25.262  1.00  0.00     0.092 C
BRANCH  26  27
HETATM   27  N6  UNL     1     -17.325 -17.418 -24.479  1.00  0.00    -0.355 N
HETATM   28  C13 UNL     1     -16.131 -16.658 -24.792  1.00  0.00     0.152 C
HETATM   29  C14 UNL     1     -15.475 -16.428 -23.435  1.00  0.00     0.255 C
HETATM   30  N7  UNL     1     -16.618 -16.427 -22.529  1.00  0.00    -0.044 N
HETATM   31  C15 UNL     1     -17.543 -17.441 -23.071  1.00  0.00     0.379 C
ATOM     32  H72 UNL     1     -16.369 -16.577 -21.552  1.00  0.00     0.280 HD
ATOM     33  H71 UNL     1     -17.043 -15.508 -22.403  1.00  0.00     0.280 HD
BRANCH  31  34
HETATM   34  C16 UNL     1     -18.952 -16.881 -22.861  1.00  0.00     0.274 C
HETATM   35  O3  UNL     1     -19.915 -17.596 -22.577  1.00  0.00    -0.269 OA
HETATM   36  N8  UNL     1     -19.099 -15.469 -23.032  1.00  0.00    -0.304 N
ATOM     37  H8  UNL     1     -18.609 -14.795 -22.443  1.00  0.00     0.171 HD
BRANCH  36  38
HETATM   38  C17 UNL     1     -19.897 -15.100 -23.987  1.00  0.00     0.154 A
HETATM   39  N9  UNL     1     -20.764 -15.877 -24.642  1.00  0.00    -0.346 N
HETATM   40  C18 UNL     1     -21.528 -15.588 -25.683  1.00  0.00     0.095 A
ATOM     41  H9  UNL     1     -20.849 -16.830 -24.288  1.00  0.00     0.167 HD
HETATM   42  C19 UNL     1     -21.591 -14.380 -26.335  1.00  0.00     0.080 A
HETATM   43  C20 UNL     1     -20.849 -13.277 -25.980  1.00  0.00     0.217 A
HETATM   44  O4  UNL     1     -20.982 -12.196 -26.663  1.00  0.00    -0.280 OA
HETATM   45  S1  UNL     1     -19.810 -13.484 -24.647  1.00  0.00    -0.012 SA
ENDBRANCH  36  38
ENDBRANCH  31  34
ENDBRANCH  26  27
ENDBRANCH   1  26
TORSDOF 17
ENDMDL