MODEL 2
REMARK VINA RESULT: -9.604082828      4.839      8.737
REMARK  14 active torsions:
REMARK  status: ('A' for Active; 'I' for Inactive)
REMARK    1  A    between atoms: N1_1  and  C1_4
REMARK    2  A    between atoms: C2_7  and  N3_8
REMARK    3  A    between atoms: C4_14  and  S1_15
REMARK    4  A    between atoms: S1_15  and  N5_18
REMARK    5  A    between atoms: N5_18  and  C5_20
REMARK    6  A    between atoms: C5_20  and  C6_21
REMARK    7  A    between atoms: C6_21  and  O3_22
REMARK    8  A    between atoms: O3_22  and  C7_23
REMARK    9  A    between atoms: C7_23  and  C8_24
REMARK   10  A    between atoms: C8_24  and  O4_25
REMARK   11  A    between atoms: O4_25  and  C9_26
REMARK   12  A    between atoms: C9_26  and  N6_27
REMARK   13  A    between atoms: C11_29  and  C12_30
REMARK       I    between atoms: C12_30  and  N7_32
REMARK   14  A    between atoms: N7_32  and  N8_34
REMARK       I    between atoms: N8_34  and  C13_36
ROOT
HETATM    1  N5  UNL     1     -14.696 -21.632 -17.553  1.00  0.00    -0.312 N
ATOM      2  H5  UNL     1     -13.882 -21.878 -18.116  1.00  0.00     0.172 HD
ENDROOT
BRANCH   1   3
HETATM    3  S1  UNL     1     -16.355 -21.797 -18.066  1.00  0.00     0.275 S
HETATM    4  O1  UNL     1     -16.801 -23.217 -17.928  1.00  0.00    -0.199 OA
HETATM    5  O2  UNL     1     -17.272 -20.934 -17.278  1.00  0.00    -0.199 OA
BRANCH   3   6
HETATM    6  C4  UNL     1     -16.366 -21.300 -19.761  1.00  0.00     0.165 A
HETATM    7  N4  UNL     1     -15.341 -21.651 -20.559  1.00  0.00    -0.338 N
HETATM    8  C3  UNL     1     -15.316 -21.283 -21.873  1.00  0.00     0.123 A
ATOM      9  H4  UNL     1     -14.572 -22.200 -20.176  1.00  0.00     0.167 HD
HETATM   10  C2  UNL     1     -14.258 -21.648 -22.684  1.00  0.00     0.145 A
HETATM   11  C15 UNL     1     -16.362 -20.539 -22.380  1.00  0.00     0.151 A
HETATM   12  N2  UNL     1     -14.268 -21.265 -23.979  1.00  0.00    -0.175 N
HETATM   13  C1  UNL     1     -15.297 -20.542 -24.450  1.00  0.00     0.679 A
ATOM     14  H2  UNL     1     -13.498 -21.523 -24.597  1.00  0.00     0.186 HD
HETATM   15  N13 UNL     1     -16.337 -20.174 -23.680  1.00  0.00    -0.174 N
ATOM     16  H13 UNL     1     -17.101 -19.624 -24.074  1.00  0.00     0.186 HD
HETATM   17  N12 UNL     1     -17.411 -20.170 -21.594  1.00  0.00    -0.347 N
HETATM   18  C14 UNL     1     -17.388 -20.557 -20.311  1.00  0.00     0.133 A
ATOM     19  H12 UNL     1     -18.185 -19.620 -21.967  1.00  0.00     0.167 HD
BRANCH  10  20
HETATM   20  N3  UNL     1     -13.304 -22.339 -22.179  1.00  0.00    -0.383 N
ATOM     21  H32 UNL     1     -12.446 -22.455 -22.716  1.00  0.00     0.157 HD
ATOM     22  H31 UNL     1     -13.373 -22.777 -21.260  1.00  0.00     0.157 HD
ENDBRANCH  10  20
BRANCH  13  23
HETATM   23  N1  UNL     1     -15.310 -20.170 -25.701  1.00  0.00    -0.234 N
ATOM     24  H12 UNL     1     -14.772 -19.341 -25.953  1.00  0.00     0.174 HD
ATOM     25  H11 UNL     1     -15.847 -20.706 -26.383  1.00  0.00     0.174 HD
ENDBRANCH  13  23
ENDBRANCH   3   6
ENDBRANCH   1   3
BRANCH   1  26
HETATM   26  C5  UNL     1     -14.647 -21.097 -16.218  1.00  0.00     0.158 C
BRANCH  26  27
HETATM   27  C6  UNL     1     -14.247 -22.149 -15.226  1.00  0.00     0.188 C
BRANCH  27  28
HETATM   28  O3  UNL     1     -13.444 -23.124 -15.759  1.00  0.00    -0.387 OA
BRANCH  28  29
HETATM   29  C7  UNL     1     -12.359 -23.486 -15.002  1.00  0.00     0.193 C
BRANCH  29  30
HETATM   30  C8  UNL     1     -12.663 -24.632 -14.054  1.00  0.00     0.196 C
BRANCH  30  31
HETATM   31  O4  UNL     1     -12.439 -25.813 -14.730  1.00  0.00    -0.368 OA
BRANCH  31  32
HETATM   32  C9  UNL     1     -12.667 -26.934 -13.936  1.00  0.00     0.317 C
BRANCH  32  33
HETATM   33  N6  UNL     1     -13.474 -27.920 -14.596  1.00  0.00    -0.263 N
HETATM   34  C10 UNL     1     -14.514 -27.632 -15.418  1.00  0.00     0.150 A
HETATM   35  C11 UNL     1     -15.047 -28.817 -15.865  1.00  0.00     0.136 A
HETATM   36  N10 UNL     1     -14.318 -29.797 -15.306  1.00  0.00    -0.280 N
HETATM   37  N11 UNL     1     -13.394 -29.221 -14.559  1.00  0.00    -0.238 N
ATOM     38  H10 UNL     1     -14.453 -30.800 -15.434  1.00  0.00     0.189 HD
ATOM     39  H11 UNL     1     -12.699 -29.734 -14.015  1.00  0.00     0.208 HD
BRANCH  35  40
HETATM   40  C12 UNL     1     -16.176 -28.984 -16.769  1.00  0.00     0.289 C
HETATM   41  O5  UNL     1     -15.971 -29.146 -17.999  1.00  0.00    -0.264 OA
HETATM   42  N7  UNL     1     -17.506 -28.971 -16.303  1.00  0.00    -0.261 N
ATOM     43  H7  UNL     1     -17.655 -28.840 -15.303  1.00  0.00     0.190 HD
BRANCH  42  44
HETATM   44  N8  UNL     1     -18.619 -29.122 -17.096  1.00  0.00    -0.251 N
HETATM   45  C13 UNL     1     -19.721 -28.244 -16.948  1.00  0.00     0.347 C
HETATM   46  N9  UNL     1     -20.874 -28.393 -17.763  1.00  0.00    -0.038 NA
HETATM   47  O6  UNL     1     -19.686 -27.341 -16.106  1.00  0.00    -0.249 OA
ATOM     48  H8  UNL     1     -18.652 -29.867 -17.791  1.00  0.00     0.191 HD
ENDBRANCH  42  44
ENDBRANCH  35  40
ENDBRANCH  32  33
ENDBRANCH  31  32
ENDBRANCH  30  31
ENDBRANCH  29  30
ENDBRANCH  28  29
ENDBRANCH  27  28
ENDBRANCH  26  27
ENDBRANCH   1  26
TORSDOF 14
ENDMDL