MODEL 3
REMARK VINA RESULT: -8.888645282      7.324     11.682
REMARK  16 active torsions:
REMARK  status: ('A' for Active; 'I' for Inactive)
REMARK    1  A    between atoms: C2_3  and  N4_9
REMARK    2  A    between atoms: N2_4  and  N3_6
REMARK    3  A    between atoms: N4_9  and  C3_11
REMARK    4  A    between atoms: C4_14  and  N6_15
REMARK    5  A    between atoms: C5_17  and  C6_18
REMARK    6  A    between atoms: C6_18  and  C7_19
REMARK    7  A    between atoms: C7_19  and  N7_20
REMARK    8  A    between atoms: N9_27  and  C9_29
REMARK       I    between atoms: N10_32  and  C12_33
REMARK    9  A    between atoms: C12_33  and  C13_35
REMARK   10  A    between atoms: C13_35  and  C14_36
REMARK   11  A    between atoms: C14_36  and  C15_37
REMARK   12  A    between atoms: C15_37  and  N11_38
REMARK   13  A    between atoms: N11_38  and  C16_41
REMARK   14  A    between atoms: C16_41  and  O2_42
REMARK   15  A    between atoms: C16_41  and  C17_44
REMARK   16  A    between atoms: C17_44  and  C18_45
ROOT
HETATM    1  N1  UNL     1      -2.351 -20.836 -22.559  1.00  0.00    -0.188 NA
HETATM    2  C1  UNL     1      -2.345 -20.900 -23.724  1.00  0.00     0.139 C
HETATM    3  C2  UNL     1      -2.322 -20.999 -25.156  1.00  0.00     0.217 C
HETATM    4  N2  UNL     1      -1.349 -20.430 -25.798  1.00  0.00    -0.283 N
ATOM      5  H2  UNL     1      -0.640 -19.935 -25.257  1.00  0.00     0.188 HD
ENDROOT
BRANCH   3   6
HETATM    6  N4  UNL     1      -3.358 -21.710 -25.797  1.00  0.00    -0.164 N
ATOM      7  H4  UNL     1      -3.158 -22.640 -26.168  1.00  0.00     0.186 HD
BRANCH   6   8
HETATM    8  C3  UNL     1      -4.556 -21.227 -25.934  1.00  0.00     0.713 A
HETATM    9  N5  UNL     1      -4.687 -19.973 -26.444  1.00  0.00    -0.021 N
HETATM   10  C4  UNL     1      -5.886 -19.405 -26.616  1.00  0.00     0.710 A
ATOM     11  H5  UNL     1      -3.849 -19.452 -26.701  1.00  0.00     0.203 HD
HETATM   12  N8  UNL     1      -6.997 -20.139 -26.256  1.00  0.00    -0.021 N
HETATM   13  C8  UNL     1      -6.927 -21.370 -25.753  1.00  0.00     0.707 A
ATOM     14  H8  UNL     1      -7.918 -19.719 -26.382  1.00  0.00     0.203 HD
HETATM   15  N9  UNL     1      -7.900 -22.059 -25.422  1.00  0.00    -0.220 N
HETATM   16  N13 UNL     1      -5.650 -21.896 -25.603  1.00  0.00    -0.021 N
ATOM     17  H9  UNL     1      -7.557 -22.953 -25.072  1.00  0.00     0.178 HD
ATOM     18  H13 UNL     1      -5.552 -22.837 -25.221  1.00  0.00     0.203 HD
BRANCH  10  19
HETATM   19  N6  UNL     1      -6.072 -18.276 -27.074  1.00  0.00    -0.204 N
HETATM   20  C5  UNL     1      -5.983 -17.433 -28.141  1.00  0.00     0.080 C
ATOM     21  H6  UNL     1      -6.471 -17.726 -26.313  1.00  0.00     0.183 HD
BRANCH  20  22
HETATM   22  C6  UNL     1      -5.512 -17.967 -29.474  1.00  0.00     0.072 C
BRANCH  22  23
HETATM   23  C7  UNL     1      -6.269 -17.313 -30.620  1.00  0.00     0.234 C
BRANCH  23  24
HETATM   24  N7  UNL     1      -7.683 -17.476 -30.340  1.00  0.00    -0.079 N
ATOM     25  H73 UNL     1      -8.068 -18.342 -30.715  1.00  0.00     0.274 HD
ATOM     26  H72 UNL     1      -7.879 -17.663 -29.357  1.00  0.00     0.274 HD
ATOM     27  H71 UNL     1      -8.153 -16.642 -30.692  1.00  0.00     0.274 HD
ENDBRANCH  23  24
ENDBRANCH  22  23
ENDBRANCH  20  22
ENDBRANCH  10  19
BRANCH  15  28
HETATM   28  C9  UNL     1      -9.278 -22.062 -25.353  1.00  0.00     0.102 C
HETATM   29  C10 UNL     1      -9.938 -21.383 -26.528  1.00  0.00     0.045 C
HETATM   30  C11 UNL     1     -11.421 -21.329 -26.418  1.00  0.00     0.127 C
HETATM   31  N10 UNL     1     -11.949 -21.330 -25.071  1.00  0.00    -0.352 N
HETATM   32  C12 UNL     1     -13.287 -20.837 -24.872  1.00  0.00     0.219 C
HETATM   33  C19 UNL     1     -11.213 -21.796 -23.939  1.00  0.00     0.127 C
HETATM   34  O1  UNL     1     -13.743 -20.838 -23.716  1.00  0.00    -0.273 OA
HETATM   35  C20 UNL     1      -9.763 -21.304 -24.111  1.00  0.00     0.045 C
BRANCH  32  36
HETATM   36  C13 UNL     1     -14.106 -20.340 -25.991  1.00  0.00     0.105 C
BRANCH  36  37
HETATM   37  C14 UNL     1     -14.332 -18.873 -25.877  1.00  0.00     0.037 C
BRANCH  37  38
HETATM   38  C15 UNL     1     -15.651 -18.392 -26.425  1.00  0.00     0.236 C
BRANCH  38  39
HETATM   39  N11 UNL     1     -16.213 -17.390 -25.534  1.00  0.00    -0.049 N
ATOM     40 2H11 UNL     1     -17.019 -16.937 -25.966  1.00  0.00     0.280 HD
ATOM     41 1H11 UNL     1     -16.672 -17.833 -24.738  1.00  0.00     0.280 HD
BRANCH  39  42
HETATM   42  C16 UNL     1     -15.266 -16.417 -25.092  1.00  0.00     0.326 C
BRANCH  42  43
HETATM   43  O2  UNL     1     -15.346 -15.219 -25.796  1.00  0.00    -0.369 OA
ATOM     44  H2  UNL     1     -14.555 -14.698 -25.734  1.00  0.00     0.212 HD
ENDBRANCH  42  43
BRANCH  42  45
HETATM   45  C17 UNL     1     -15.454 -16.085 -23.634  1.00  0.00     0.160 C
BRANCH  45  46
HETATM   46  C18 UNL     1     -16.141 -17.194 -22.916  1.00  0.00     0.235 C
HETATM   47  N12 UNL     1     -17.510 -17.026 -22.580  1.00  0.00    -0.062 NA
HETATM   48  O3  UNL     1     -15.578 -18.254 -22.597  1.00  0.00    -0.277 OA
ENDBRANCH  45  46
ENDBRANCH  42  45
ENDBRANCH  39  42
ENDBRANCH  38  39
ENDBRANCH  37  38
ENDBRANCH  36  37
ENDBRANCH  32  36
ENDBRANCH  15  28
ENDBRANCH   6   8
ENDBRANCH   3   6
BRANCH   4  49
HETATM   49  N3  UNL     1      -1.217 -20.455 -27.171  1.00  0.00    -0.343 N
ATOM     50  H32 UNL     1      -1.793 -21.125 -27.681  1.00  0.00     0.176 HD
ATOM     51  H31 UNL     1      -0.584 -19.847 -27.691  1.00  0.00     0.176 HD
ENDBRANCH   4  49
TORSDOF 16
ENDMDL