MODEL 3
REMARK VINA RESULT: -9.445217110      1.133      1.437
REMARK  15 active torsions:
REMARK  status: ('A' for Active; 'I' for Inactive)
REMARK       I    between atoms: C1_4  and  N3_6
REMARK    1  A    between atoms: N3_6  and  C2_7
REMARK    2  A    between atoms: N3_6  and  C16_41
REMARK    3  A    between atoms: C2_7  and  C3_8
REMARK    4  A    between atoms: C3_8  and  C4_9
REMARK    5  A    between atoms: C4_9  and  N4_10
REMARK    6  A    between atoms: N4_10  and  C5_12
REMARK    7  A    between atoms: C6_15  and  N6_16
REMARK    8  A    between atoms: N6_16  and  C7_18
REMARK    9  A    between atoms: C7_18  and  C8_19
REMARK   10  A    between atoms: C8_19  and  N7_20
REMARK   11  A    between atoms: C10_24  and  N8_25
REMARK   12  A    between atoms: N10_32  and  C12_33
REMARK   13  A    between atoms: C12_33  and  C13_34
REMARK   14  A    between atoms: C13_34  and  C14_35
REMARK   15  A    between atoms: C16_41  and  C17_42
ROOT
HETATM    1  C5  UNL     1     -16.476 -19.700 -23.121  1.00  0.00     0.681 A
HETATM    2  N5  UNL     1     -16.170 -20.523 -22.109  1.00  0.00    -0.176 N
ATOM      3  H5  UNL     1     -16.792 -20.551 -21.301  1.00  0.00     0.186 HD
HETATM    4  C6  UNL     1     -15.085 -21.312 -22.107  1.00  0.00     0.134 A
HETATM    5  C9  UNL     1     -14.249 -21.264 -23.209  1.00  0.00     0.097 A
HETATM    6  C10 UNL     1     -13.140 -22.073 -23.273  1.00  0.00     0.120 A
HETATM    7  N9  UNL     1     -12.389 -22.002 -24.377  1.00  0.00    -0.294 N
ATOM      8  H9  UNL     1     -11.560 -22.592 -24.452  1.00  0.00     0.172 HD
HETATM    9  C11 UNL     1     -12.697 -21.177 -25.388  1.00  0.00     0.330 A
HETATM   10  O3  UNL     1     -11.942 -21.157 -26.410  1.00  0.00    -0.246 OA
HETATM   11  N10 UNL     1     -13.791 -20.348 -25.371  1.00  0.00    -0.280 N
HETATM   12  C15 UNL     1     -14.562 -20.405 -24.269  1.00  0.00     0.145 A
HETATM   13  N12 UNL     1     -15.659 -19.644 -24.209  1.00  0.00    -0.175 N
ATOM     14  H12 UNL     1     -15.885 -19.018 -24.983  1.00  0.00     0.186 HD
ENDROOT
BRANCH   1  15
HETATM   15  N4  UNL     1     -17.511 -18.944 -23.140  1.00  0.00    -0.226 N
ATOM     16  H4  UNL     1     -17.340 -17.939 -23.109  1.00  0.00     0.177 HD
BRANCH  15  17
HETATM   17  C4  UNL     1     -18.868 -19.355 -23.199  1.00  0.00     0.139 C
BRANCH  17  18
HETATM   18  C3  UNL     1     -19.604 -18.572 -24.277  1.00  0.00     0.040 C
BRANCH  18  19
HETATM   19  C2  UNL     1     -18.786 -17.353 -24.652  1.00  0.00     0.127 C
BRANCH  19  20
HETATM   20  N3  UNL     1     -19.393 -16.161 -24.095  1.00  0.00    -0.347 N
HETATM   21  C1  UNL     1     -19.056 -15.710 -22.791  1.00  0.00     0.184 C
HETATM   22  N1  UNL     1     -20.012 -15.350 -22.011  1.00  0.00    -0.374 N
HETATM   23  N2  UNL     1     -17.704 -15.671 -22.388  1.00  0.00    -0.064 NA
ATOM     24  H12 UNL     1     -19.770 -15.026 -21.075  1.00  0.00     0.158 HD
ATOM     25  H11 UNL     1     -20.989 -15.378 -22.303  1.00  0.00     0.158 HD
BRANCH  20  26
HETATM   26  C16 UNL     1     -20.364 -15.397 -24.852  1.00  0.00     0.224 C
BRANCH  26  27
HETATM   27  C17 UNL     1     -19.897 -13.982 -25.024  1.00  0.00     0.249 C
HETATM   28  N13 UNL     1     -20.524 -12.908 -24.331  1.00  0.00    -0.061 NA
HETATM   29  O5  UNL     1     -18.945 -13.710 -25.783  1.00  0.00    -0.275 OA
ENDBRANCH  26  27
ENDBRANCH  20  26
ENDBRANCH  19  20
ENDBRANCH  18  19
ENDBRANCH  17  18
ENDBRANCH  15  17
ENDBRANCH   1  15
BRANCH   4  30
HETATM   30  N6  UNL     1     -14.771 -22.106 -21.165  1.00  0.00    -0.373 N
ATOM     31  H6  UNL     1     -13.826 -22.489 -21.150  1.00  0.00     0.161 HD
BRANCH  30  32
HETATM   32  C7  UNL     1     -15.680 -22.491 -20.119  1.00  0.00     0.147 C
BRANCH  32  33
HETATM   33  C8  UNL     1     -15.549 -21.674 -18.859  1.00  0.00     0.221 C
BRANCH  33  34
HETATM   34  N7  UNL     1     -16.771 -21.040 -18.443  1.00  0.00    -0.154 N
HETATM   35  O1  UNL     1     -17.502 -20.471 -19.303  1.00  0.00    -0.536 OA
HETATM   36  O2  UNL     1     -17.224 -20.996 -17.151  1.00  0.00    -0.536 OA
ENDBRANCH  33  34
ENDBRANCH  32  33
ENDBRANCH  30  32
ENDBRANCH   4  30
BRANCH  11  37
HETATM   37  C12 UNL     1     -14.049 -19.568 -26.522  1.00  0.00     0.167 C
BRANCH  37  38
HETATM   38  C13 UNL     1     -14.713 -20.184 -27.688  1.00  0.00     0.064 C
BRANCH  38  39
HETATM   39  C14 UNL     1     -16.098 -20.051 -27.990  1.00  0.00     0.252 C
HETATM   40  N11 UNL     1     -16.934 -19.451 -26.947  1.00  0.00    -0.058 NA
HETATM   41  O4  UNL     1     -16.723 -20.367 -29.005  1.00  0.00    -0.272 OA
ENDBRANCH  38  39
ENDBRANCH  37  38
ENDBRANCH  11  37
BRANCH   6  42
HETATM   42  N8  UNL     1     -12.889 -22.838 -22.279  1.00  0.00    -0.384 N
ATOM     43  H82 UNL     1     -13.121 -22.617 -21.311  1.00  0.00     0.157 HD
ATOM     44  H81 UNL     1     -12.431 -23.731 -22.460  1.00  0.00     0.157 HD
ENDBRANCH   6  42
TORSDOF 15
ENDMDL