MODEL 5
REMARK VINA RESULT: -8.505706889      1.401      3.460
REMARK  15 active torsions:
REMARK  status: ('A' for Active; 'I' for Inactive)
REMARK    1  A    between atoms: N1_1  and  C1_4
REMARK    2  A    between atoms: C7_15  and  C8_16
REMARK    3  A    between atoms: C8_16  and  N4_17
REMARK    4  A    between atoms: N4_17  and  C9_20
REMARK    5  A    between atoms: C9_20  and  C10_21
REMARK    6  A    between atoms: C10_21  and  N5_22
REMARK    7  A    between atoms: C15_35  and  C16_36
REMARK    8  A    between atoms: C16_36  and  C17_37
REMARK       I    between atoms: C17_37  and  N9_39
REMARK    9  A    between atoms: N9_39  and  C18_40
REMARK   10  A    between atoms: C18_40  and  C19_41
REMARK   11  A    between atoms: C19_41  and  N10_42
REMARK   12  A    between atoms: N10_42  and  C20_43
REMARK   13  A    between atoms: N10_42  and  C21_45
REMARK   14  A    between atoms: C21_45  and  C22_46
REMARK   15  A    between atoms: C22_46  and  O4_47
ROOT
HETATM    1  C1  UNL     1     -14.480 -22.558 -22.116  1.00  0.00     0.679 A
HETATM    2  N2  UNL     1     -15.293 -22.400 -21.090  1.00  0.00    -0.156 N
ATOM      3  H2  UNL     1     -15.292 -23.072 -20.323  1.00  0.00     0.187 HD
HETATM    4  C2  UNL     1     -16.135 -21.325 -21.067  1.00  0.00     0.274 A
HETATM    5  O1  UNL     1     -16.879 -21.191 -20.077  1.00  0.00    -0.267 OA
HETATM    6  C3  UNL     1     -16.135 -20.440 -22.085  1.00  0.00     0.084 A
HETATM    7  C4  UNL     1     -15.234 -20.632 -23.183  1.00  0.00     0.079 A
HETATM    8  N3  UNL     1     -14.436 -21.705 -23.155  1.00  0.00    -0.190 N
ATOM      9  H3  UNL     1     -13.792 -21.877 -23.926  1.00  0.00     0.184 HD
HETATM   10  C5  UNL     1     -15.009 -20.096 -24.379  1.00  0.00     0.020 A
HETATM   11  C6  UNL     1     -13.945 -20.755 -24.897  1.00  0.00     0.025 A
HETATM   12  C7  UNL     1     -13.564 -20.545 -26.208  1.00  0.00    -0.032 A
HETATM   13  C11 UNL     1     -14.275 -19.641 -27.004  1.00  0.00     0.011 A
HETATM   14  C12 UNL     1     -15.342 -18.980 -26.452  1.00  0.00     0.031 A
HETATM   15  C13 UNL     1     -15.732 -19.178 -25.156  1.00  0.00     0.047 A
HETATM   16  N6  UNL     1     -16.665 -18.339 -24.925  1.00  0.00    -0.330 N
ATOM     17  H6  UNL     1     -16.958 -17.827 -25.757  1.00  0.00     0.168 HD
HETATM   18  C14 UNL     1     -17.374 -17.970 -23.777  1.00  0.00     0.193 C
HETATM   19  N7  UNL     1     -18.031 -16.727 -23.968  1.00  0.00    -0.063 NA
HETATM   20  N8  UNL     1     -17.547 -18.458 -22.613  1.00  0.00    -0.333 N
ATOM     21  H8  UNL     1     -18.161 -17.853 -22.067  1.00  0.00     0.168 HD
HETATM   22  C15 UNL     1     -17.143 -19.611 -21.819  1.00  0.00     0.039 C
ENDROOT
BRANCH  22  23
HETATM   23  C16 UNL     1     -17.952 -19.924 -20.686  1.00  0.00     0.177 C
BRANCH  23  24
HETATM   24  C17 UNL     1     -19.402 -19.587 -21.224  1.00  0.00     0.296 C
HETATM   25  O2  UNL     1     -20.091 -18.703 -20.742  1.00  0.00    -0.257 OA
HETATM   26  N9  UNL     1     -19.871 -20.350 -22.294  1.00  0.00    -0.386 NA
BRANCH  26  27
HETATM   27  C18 UNL     1     -20.325 -21.091 -23.332  1.00  0.00     0.178 C
BRANCH  27  28
HETATM   28  C19 UNL     1     -21.450 -22.108 -23.051  1.00  0.00     0.184 C
BRANCH  28  29
HETATM   29  N10 UNL     1     -22.730 -21.422 -23.155  1.00  0.00    -0.352 N
BRANCH  29  30
HETATM   30  C20 UNL     1     -22.835 -20.474 -24.215  1.00  0.00     0.351 C
HETATM   31  O3  UNL     1     -22.992 -19.243 -24.035  1.00  0.00    -0.284 OA
ENDBRANCH  29  30
BRANCH  29  32
HETATM   32  C21 UNL     1     -23.852 -21.616 -22.291  1.00  0.00     0.151 C
BRANCH  32  33
HETATM   33  C22 UNL     1     -23.966 -20.612 -21.180  1.00  0.00     0.183 C
BRANCH  33  34
HETATM   34  O4  UNL     1     -22.799 -19.890 -20.957  1.00  0.00    -0.399 OA
ATOM     35  H4  UNL     1     -22.952 -19.000 -20.661  1.00  0.00     0.209 HD
ENDBRANCH  33  34
ENDBRANCH  32  33
ENDBRANCH  29  32
ENDBRANCH  28  29
ENDBRANCH  27  28
ENDBRANCH  26  27
ENDBRANCH  23  24
ENDBRANCH  22  23
BRANCH   1  36
HETATM   36  N1  UNL     1     -13.660 -23.576 -22.173  1.00  0.00    -0.234 N
ATOM     37  H12 UNL     1     -14.090 -24.489 -22.322  1.00  0.00     0.174 HD
ATOM     38  H11 UNL     1     -12.654 -23.444 -22.069  1.00  0.00     0.174 HD
ENDBRANCH   1  36
BRANCH  12  39
HETATM   39  C8  UNL     1     -12.391 -21.262 -26.771  1.00  0.00     0.270 C
BRANCH  39  40
HETATM   40  N4  UNL     1     -11.477 -21.712 -25.773  1.00  0.00    -0.070 N
ATOM     41  H42 UNL     1     -11.746 -21.370 -24.851  1.00  0.00     0.277 HD
ATOM     42  H41 UNL     1     -11.576 -22.714 -25.612  1.00  0.00     0.277 HD
BRANCH  40  43
HETATM   43  C9  UNL     1     -10.127 -21.373 -26.072  1.00  0.00     0.260 C
BRANCH  43  44
HETATM   44  C10 UNL     1      -9.224 -21.721 -24.913  1.00  0.00     0.257 C
BRANCH  44  45
HETATM   45  N5  UNL     1      -9.664 -21.209 -23.653  1.00  0.00    -0.078 N
ATOM     46  H53 UNL     1     -10.383 -20.498 -23.787  1.00  0.00     0.274 HD
ATOM     47  H52 UNL     1     -10.208 -21.912 -23.152  1.00  0.00     0.274 HD
ATOM     48  H51 UNL     1      -8.914 -20.851 -23.062  1.00  0.00     0.274 HD
ENDBRANCH  44  45
ENDBRANCH  43  44
ENDBRANCH  40  43
ENDBRANCH  39  40
ENDBRANCH  12  39
TORSDOF 15
ENDMDL