MODEL 4
REMARK VINA RESULT: -7.366632742      2.919      5.004
REMARK  7 active torsions:
REMARK  status: ('A' for Active; 'I' for Inactive)
REMARK    1  A    between atoms: C2_2  and  C3_3
REMARK    2  A    between atoms: C3_3  and  C4_4
REMARK    3  A    between atoms: C4_4  and  C5_5
REMARK    4  A    between atoms: C5_5  and  C6_6
REMARK    5  A    between atoms: C5_5  and  N1_9
REMARK    6  A    between atoms: C6_6  and  C7_7
REMARK    7  A    between atoms: N1_9  and  C8_11
ROOT
HETATM    1  C8  UNL     1     -16.463   4.065  10.364  1.00  0.00     0.133 A
HETATM    2  N2  UNL     1     -17.298   4.641  11.230  1.00  0.00    -0.326 N
ATOM      3  H2  UNL     1     -17.878   4.065  11.839  1.00  0.00     0.169 HD
HETATM    4  C9  UNL     1     -17.374   5.998  11.300  1.00  0.00     0.124 A
HETATM    5  N3  UNL     1     -18.228   6.575  12.187  1.00  0.00    -0.338 N
ATOM      6  H3  UNL     1     -18.796   5.975  12.785  1.00  0.00     0.168 HD
HETATM    7  C10 UNL     1     -18.349   7.901  12.302  1.00  0.00     0.183 A
HETATM    8  N4  UNL     1     -17.613   8.673  11.529  1.00  0.00    -0.338 N
ATOM      9  H4  UNL     1     -17.702   9.685  11.615  1.00  0.00     0.168 HD
HETATM   10  C11 UNL     1     -16.722   8.156  10.603  1.00  0.00     0.116 A
HETATM   11  N5  UNL     1     -16.094   8.987   9.942  1.00  0.00    -0.385 N
ATOM     12  H51 UNL     1     -15.439   8.606   9.260  1.00  0.00     0.157 HD
ATOM     13  H52 UNL     1     -16.187   9.999  10.031  1.00  0.00     0.157 HD
HETATM   14  C12 UNL     1     -16.597   6.781  10.483  1.00  0.00     0.081 A
HETATM   15  C13 UNL     1     -15.711   6.190   9.564  1.00  0.00     0.088 A
HETATM   16  N6  UNL     1     -14.915   6.857   8.729  1.00  0.00    -0.309 N
ATOM     17  H6  UNL     1     -14.824   7.867   8.627  1.00  0.00     0.176 HD
HETATM   18  S1  UNL     1     -14.099   5.667   7.886  1.00  0.00     0.068 SA
HETATM   19  N7  UNL     1     -14.792   4.326   8.620  1.00  0.00    -0.307 N
ATOM     20  H7  UNL     1     -14.605   3.341   8.433  1.00  0.00     0.176 HD
HETATM   21  C14 UNL     1     -15.650   4.852   9.510  1.00  0.00     0.112 A
ENDROOT
BRANCH   1  22
HETATM   22  N1  UNL     1     -16.371   2.790  10.277  1.00  0.00    -0.370 N
ATOM     23  H1  UNL     1     -16.482   2.385   9.348  1.00  0.00     0.161 HD
BRANCH  22  24
HETATM   24  C5  UNL     1     -16.123   1.857  11.369  1.00  0.00     0.083 C
BRANCH  24  25
HETATM   25  C4  UNL     1     -17.294   0.985  11.593  1.00  0.00     0.025 C
BRANCH  25  26
HETATM   26  C3  UNL     1     -18.279   1.279  12.648  1.00  0.00     0.002 C
BRANCH  26  27
HETATM   27  C2  UNL     1     -18.173   0.167  13.723  1.00  0.00    -0.004 C
HETATM   28  C1  UNL     1     -17.012   0.421  14.634  1.00  0.00     0.005 C
ENDBRANCH  26  27
ENDBRANCH  25  26
ENDBRANCH  24  25
BRANCH  24  29
HETATM   29  C6  UNL     1     -14.760   1.310  11.264  1.00  0.00     0.036 C
BRANCH  29  30
HETATM   30  C7  UNL     1     -14.262   0.287  12.193  1.00  0.00     0.087 C
HETATM   31 BR1  UNL     1     -12.316   0.546  12.430  1.00  0.00    -0.096 Br
ENDBRANCH  29  30
ENDBRANCH  24  29
ENDBRANCH  22  24
ENDBRANCH   1  22
TORSDOF 7
ENDMDL