MODEL 2
REMARK VINA RESULT: -6.496145746      2.353      4.628
REMARK  7 active torsions:
REMARK  status: ('A' for Active; 'I' for Inactive)
REMARK    1  A    between atoms: O1_2  and  C2_3
REMARK    2  A    between atoms: C2_3  and  O2_4
REMARK    3  A    between atoms: O2_4  and  C3_5
REMARK    4  A    between atoms: C9_12  and  C10_13
REMARK    5  A    between atoms: C10_13  and  O3_14
REMARK    6  A    between atoms: C13_21  and  O4_22
REMARK    7  A    between atoms: C16_25  and  O5_26
ROOT
HETATM    1  C3  UNL     1     -13.970   2.791  10.120  1.00  0.00     0.162 C
HETATM    2  C4  UNL     1     -13.067   3.973  10.475  1.00  0.00     0.044 C
HETATM    3  C5  UNL     1     -13.086   5.075   9.492  1.00  0.00     0.020 C
HETATM    4  C6  UNL     1     -12.975   4.679   8.045  1.00  0.00     0.023 C
HETATM    5  C7  UNL     1     -12.986   6.078   7.405  1.00  0.00     0.061 C
HETATM    6  S1  UNL     1     -13.189   6.008   5.632  1.00  0.00    -0.092 SA
HETATM    7  C8  UNL     1     -14.220   6.647   8.111  1.00  0.00     0.049 C
HETATM    8  C9  UNL     1     -14.229   5.996   9.486  1.00  0.00     0.056 C
HETATM    9  N1  UNL     1     -15.524   5.442   9.711  1.00  0.00    -0.375 N
ATOM     10  H1  UNL     1     -16.266   5.995   9.283  1.00  0.00     0.160 HD
HETATM   11  C11 UNL     1     -16.018   4.310  10.385  1.00  0.00     0.082 A
HETATM   12  C12 UNL     1     -17.295   4.461  10.882  1.00  0.00     0.176 A
HETATM   13  F1  UNL     1     -17.931   5.636  10.658  1.00  0.00    -0.201 F
HETATM   14  C13 UNL     1     -17.910   3.447  11.583  1.00  0.00     0.111 A
HETATM   15  C15 UNL     1     -17.208   2.284  11.771  1.00  0.00     0.077 A
HETATM   16  C16 UNL     1     -15.911   2.106  11.276  1.00  0.00     0.082 A
HETATM   17  C18 UNL     1     -15.306   3.112  10.581  1.00  0.00     0.034 A
ENDROOT
BRANCH   1  18
HETATM   18  O2  UNL     1     -13.405   1.689  10.715  1.00  0.00    -0.357 OA
BRANCH  18  19
HETATM   19  C2  UNL     1     -12.189   1.982  11.369  1.00  0.00     0.337 C
BRANCH  19  20
HETATM   20  O1  UNL     1     -12.112   1.332  12.604  1.00  0.00    -0.372 OA
HETATM   21  C1  UNL     1     -11.740   0.003  12.449  1.00  0.00     0.204 C
ENDBRANCH  19  20
ENDBRANCH  18  19
ENDBRANCH   1  18
BRANCH  16  22
HETATM   22  O5  UNL     1     -15.286   0.903  11.517  1.00  0.00    -0.355 OA
HETATM   23  C17 UNL     1     -15.476   0.189  12.725  1.00  0.00     0.210 C
ENDBRANCH  16  22
BRANCH   8  24
HETATM   24  C10 UNL     1     -13.999   7.061  10.542  1.00  0.00     0.195 C
BRANCH  24  25
HETATM   25  O3  UNL     1     -12.698   7.521  10.382  1.00  0.00    -0.398 OA
ATOM     26  H3  UNL     1     -12.258   6.915   9.796  1.00  0.00     0.209 HD
ENDBRANCH  24  25
ENDBRANCH   8  24
BRANCH  14  27
HETATM   27  O4  UNL     1     -19.214   3.603  12.090  1.00  0.00    -0.353 OA
HETATM   28  C14 UNL     1     -19.363   3.947  13.453  1.00  0.00     0.210 C
ENDBRANCH  14  27
TORSDOF 7
ENDMDL