MODEL 1
REMARK VINA RESULT: -7.442422901      0.000      0.000
REMARK  9 active torsions:
REMARK  status: ('A' for Active; 'I' for Inactive)
REMARK    1  A    between atoms: O1_2  and  C2_3
REMARK    2  A    between atoms: C4_5  and  C5_6
REMARK    3  A    between atoms: N1_7  and  N2_9
REMARK    4  A    between atoms: N2_9  and  C6_11
REMARK    5  A    between atoms: C9_18  and  C10_19
REMARK    6  A    between atoms: C10_19  and  O3_21
REMARK    7  A    between atoms: O3_21  and  C11_22
REMARK    8  A    between atoms: C14_26  and  O4_27
REMARK    9  A    between atoms: C16_29  and  O5_30
ROOT
HETATM    1  N2  UNL     1     -13.303   4.088   8.646  1.00  0.00    -0.284 N
ATOM      2  H2  UNL     1     -12.534   3.563   8.229  1.00  0.00     0.188 HD
ENDROOT
BRANCH   1   3
HETATM    3  N1  UNL     1     -13.798   3.425   9.662  1.00  0.00    -0.309 N
HETATM    4  C5  UNL     1     -14.396   2.265   9.632  1.00  0.00     0.118 C
ATOM      5  H1  UNL     1     -13.704   3.863  10.579  1.00  0.00     0.186 HD
BRANCH   4   6
HETATM    6  C4  UNL     1     -14.891   1.662  10.835  1.00  0.00    -0.014 A
HETATM    7  C3  UNL     1     -16.202   1.607  11.235  1.00  0.00     0.052 A
HETATM    8  C2  UNL     1     -16.640   1.021  12.393  1.00  0.00     0.104 A
HETATM    9  C16 UNL     1     -15.674   0.440  13.221  1.00  0.00     0.133 A
HETATM   10  C14 UNL     1     -14.329   0.459  12.876  1.00  0.00     0.104 A
HETATM   11  C13 UNL     1     -13.966   1.065  11.699  1.00  0.00     0.052 A
BRANCH   8  12
HETATM   12  O1  UNL     1     -17.937   0.949  12.817  1.00  0.00    -0.353 OA
HETATM   13  C1  UNL     1     -18.953   0.122  12.352  1.00  0.00     0.210 C
ENDBRANCH   8  12
BRANCH   9  14
HETATM   14  O5  UNL     1     -16.061  -0.171  14.410  1.00  0.00    -0.356 OA
ATOM     15  H5  UNL     1     -15.421  -0.308  15.100  1.00  0.00     0.218 HD
ENDBRANCH   9  14
BRANCH  10  16
HETATM   16  O4  UNL     1     -13.375  -0.111  13.686  1.00  0.00    -0.353 OA
HETATM   17  C15 UNL     1     -12.017   0.191  13.587  1.00  0.00     0.210 C
ENDBRANCH  10  16
ENDBRANCH   4   6
ENDBRANCH   1   3
BRANCH   1  18
HETATM   18  C6  UNL     1     -13.473   5.149   8.032  1.00  0.00     0.153 A
HETATM   19  N3  UNL     1     -13.142   5.286   6.683  1.00  0.00    -0.283 N
HETATM   20  N4  UNL     1     -13.433   6.510   6.339  1.00  0.00    -0.302 N
ATOM     21  H3  UNL     1     -12.747   4.565   6.079  1.00  0.00     0.188 HD
HETATM   22  C7  UNL     1     -13.937   7.201   7.367  1.00  0.00     0.042 A
ATOM     23  H4  UNL     1     -13.294   6.892   5.404  1.00  0.00     0.186 HD
HETATM   24  C8  UNL     1     -14.360   8.623   7.273  1.00  0.00     0.071 C
HETATM   25  C9  UNL     1     -13.973   6.343   8.472  1.00  0.00     0.109 A
BRANCH  25  26
HETATM   26  C10 UNL     1     -14.479   6.782   9.746  1.00  0.00     0.300 C
HETATM   27  O2  UNL     1     -13.643   7.203  10.635  1.00  0.00    -0.259 OA
BRANCH  26  28
HETATM   28  O3  UNL     1     -15.780   6.823  10.177  1.00  0.00    -0.297 OA
BRANCH  28  29
HETATM   29  C11 UNL     1     -16.455   5.696  10.715  1.00  0.00     0.223 C
HETATM   30  C12 UNL     1     -17.133   4.841   9.704  1.00  0.00     0.057 C
HETATM   31 CL1  UNL     1     -17.686   6.322  11.848  1.00  0.00    -0.095 Cl
ENDBRANCH  28  29
ENDBRANCH  26  28
ENDBRANCH  25  26
ENDBRANCH   1  18
TORSDOF 9
ENDMDL