MODEL 3
REMARK VINA RESULT: -6.860812444      2.451      3.379
REMARK  9 active torsions:
REMARK  status: ('A' for Active; 'I' for Inactive)
REMARK    1  A    between atoms: C2_2  and  O1_3
REMARK    2  A    between atoms: O1_3  and  C3_4
REMARK    3  A    between atoms: C3_4  and  C4_5
REMARK    4  A    between atoms: C4_5  and  N1_6
REMARK    5  A    between atoms: C5_9  and  O2_10
REMARK    6  A    between atoms: C6_12  and  N3_13
REMARK    7  A    between atoms: N3_13  and  N4_15
REMARK    8  A    between atoms: N4_15  and  C7_17
REMARK    9  A    between atoms: C8_18  and  O3_19
ROOT
HETATM    1  N3  UNL     1     -14.767   2.682   9.749  1.00  0.00    -0.291 N
ATOM      2  H3  UNL     1     -13.797   2.809   9.463  1.00  0.00     0.187 HD
ENDROOT
BRANCH   1   3
HETATM    3  C6  UNL     1     -15.056   1.817  10.835  1.00  0.00     0.170 A
HETATM    4  C5  UNL     1     -14.105   1.110  11.547  1.00  0.00     0.189 A
HETATM    5  N2  UNL     1     -14.769   0.422  12.474  1.00  0.00    -0.273 N
HETATM    6  N1  UNL     1     -16.071   0.639  12.407  1.00  0.00    -0.252 N
ATOM      7  H2  UNL     1     -14.326  -0.196  13.152  1.00  0.00     0.189 HD
HETATM    8  C13 UNL     1     -16.277   1.502  11.396  1.00  0.00     0.294 A
HETATM    9  O4  UNL     1     -17.395   1.952  11.019  1.00  0.00    -0.264 OA
BRANCH   4  10
HETATM   10  O2  UNL     1     -12.730   1.157  11.286  1.00  0.00    -0.343 OA
ATOM     11  H2  UNL     1     -11.997   1.101  11.888  1.00  0.00     0.219 HD
ENDBRANCH   4  10
BRANCH   6  12
HETATM   12  C4  UNL     1     -17.121   0.062  13.257  1.00  0.00     0.178 C
BRANCH  12  13
HETATM   13  C3  UNL     1     -16.835   0.468  14.677  1.00  0.00     0.189 C
BRANCH  13  14
HETATM   14  O1  UNL     1     -17.636   1.480  15.143  1.00  0.00    -0.390 OA
BRANCH  14  15
HETATM   15  C2  UNL     1     -18.812   1.642  14.419  1.00  0.00     0.163 C
HETATM   16  C1  UNL     1     -18.983   3.111  14.088  1.00  0.00     0.033 C
ENDBRANCH  14  15
ENDBRANCH  13  14
ENDBRANCH  12  13
ENDBRANCH   6  12
ENDBRANCH   1   3
BRANCH   1  17
HETATM   17  N4  UNL     1     -15.694   3.313   9.114  1.00  0.00    -0.297 N
ATOM     18  H4  UNL     1     -16.296   2.856   8.430  1.00  0.00     0.187 HD
BRANCH  17  19
HETATM   19  C7  UNL     1     -15.816   4.710   9.440  1.00  0.00     0.086 A
HETATM   20  C8  UNL     1     -15.034   5.549   8.777  1.00  0.00     0.128 A
HETATM   21  C9  UNL     1     -15.140   6.963   9.089  1.00  0.00     0.115 A
HETATM   22 BR1  UNL     1     -14.008   8.180   8.130  1.00  0.00    -0.028 Br
HETATM   23  N5  UNL     1     -15.967   7.389   9.981  1.00  0.00    -0.352 N
HETATM   24  C10 UNL     1     -16.799   6.506  10.688  1.00  0.00     0.008 A
ATOM     25  H5  UNL     1     -16.017   8.389  10.178  1.00  0.00     0.166 HD
HETATM   26  C11 UNL     1     -17.767   6.999  11.731  1.00  0.00     0.068 C
HETATM   27  C12 UNL     1     -16.731   5.211  10.431  1.00  0.00     0.058 A
BRANCH  20  28
HETATM   28  O3  UNL     1     -14.143   5.074   7.813  1.00  0.00    -0.356 OA
ATOM     29  H3  UNL     1     -13.647   5.680   7.275  1.00  0.00     0.218 HD
ENDBRANCH  20  28
ENDBRANCH  17  19
ENDBRANCH   1  17
TORSDOF 9
ENDMDL