MODEL 1
REMARK VINA RESULT: -7.241551965      0.000      0.000
REMARK  9 active torsions:
REMARK  status: ('A' for Active; 'I' for Inactive)
REMARK    1  A    between atoms: O1_2  and  C2_3
REMARK    2  A    between atoms: C2_3  and  C3_5
REMARK    3  A    between atoms: C8_12  and  N2_13
REMARK    4  A    between atoms: N2_13  and  C9_15
REMARK    5  A    between atoms: C9_15  and  C10_16
REMARK    6  A    between atoms: C10_16  and  C11_18
REMARK    7  A    between atoms: C11_18  and  N3_20
REMARK       I    between atoms: N3_20  and  C13_22
REMARK    8  A    between atoms: C13_22  and  O5_24
REMARK    9  A    between atoms: O5_24  and  C14_25
ROOT
HETATM    1  N2  UNL     1     -17.303   2.274  10.887  1.00  0.00    -0.382 N
ATOM      2  H2  UNL     1     -17.860   1.796  10.179  1.00  0.00     0.160 HD
ENDROOT
BRANCH   1   3
HETATM    3  C8  UNL     1     -16.105   1.703  11.370  1.00  0.00     0.046 A
HETATM    4  C3  UNL     1     -16.136   0.709  12.302  1.00  0.00     0.067 A
HETATM    5  C4  UNL     1     -14.899   0.191  12.729  1.00  0.00     0.045 A
HETATM    6  C5  UNL     1     -13.726   0.676  12.219  1.00  0.00     0.059 A
HETATM    7 CL1  UNL     1     -12.192   0.019  12.762  1.00  0.00    -0.082 Cl
HETATM    8  C6  UNL     1     -13.684   1.677  11.281  1.00  0.00     0.070 A
HETATM    9  N1  UNL     1     -12.430   2.166  10.766  1.00  0.00    -0.101 NA
HETATM   10  C7  UNL     1     -14.878   2.187  10.860  1.00  0.00     0.058 A
BRANCH   4  11
HETATM   11  C2  UNL     1     -17.308   0.133  12.899  1.00  0.00     0.295 C
HETATM   12  O2  UNL     1     -18.118  -0.594  12.214  1.00  0.00    -0.259 OA
BRANCH  11  13
HETATM   13  O1  UNL     1     -17.669   0.288  14.200  1.00  0.00    -0.322 OA
HETATM   14  C1  UNL     1     -18.120   1.512  14.748  1.00  0.00     0.213 C
ENDBRANCH  11  13
ENDBRANCH   4  11
ENDBRANCH   1   3
BRANCH   1  15
HETATM   15  C9  UNL     1     -17.726   3.570  11.428  1.00  0.00     0.200 C
BRANCH  15  16
HETATM   16  C10 UNL     1     -17.269   4.689  10.584  1.00  0.00     0.166 C
HETATM   17  O3  UNL     1     -17.429   4.645   9.389  1.00  0.00    -0.294 OA
BRANCH  16  18
HETATM   18  C11 UNL     1     -16.616   5.858  11.202  1.00  0.00     0.154 C
HETATM   19  C12 UNL     1     -17.615   6.887  11.697  1.00  0.00     0.040 C
BRANCH  18  20
HETATM   20  N3  UNL     1     -15.719   6.488  10.233  1.00  0.00    -0.326 N
HETATM   21  C13 UNL     1     -14.317   6.260  10.300  1.00  0.00     0.361 C
HETATM   22  O4  UNL     1     -13.792   5.523  11.172  1.00  0.00    -0.238 OA
ATOM     23  H3  UNL     1     -16.101   7.094   9.507  1.00  0.00     0.165 HD
BRANCH  21  24
HETATM   24  O5  UNL     1     -13.466   6.846   9.398  1.00  0.00    -0.294 OA
BRANCH  24  25
HETATM   25  C14 UNL     1     -12.914   6.262   8.264  1.00  0.00     0.061 C
HETATM   26  C15 UNL     1     -12.604   4.799   8.395  1.00  0.00     0.046 C
HETATM   27  C16 UNL     1     -13.943   6.377   7.137  1.00  0.00     0.046 C
HETATM   28  C17 UNL     1     -11.698   7.018   7.835  1.00  0.00     0.046 C
ENDBRANCH  24  25
ENDBRANCH  21  24
ENDBRANCH  18  20
ENDBRANCH  16  18
ENDBRANCH  15  16
ENDBRANCH   1  15
TORSDOF 9
ENDMDL