MODEL 4
REMARK VINA RESULT: -5.810560140      3.258      5.147
REMARK  9 active torsions:
REMARK  status: ('A' for Active; 'I' for Inactive)
REMARK    1  A    between atoms: C2_2  and  N1_3
REMARK    2  A    between atoms: C2_2  and  C8_14
REMARK       I    between atoms: N1_3  and  C3_5
REMARK    3  A    between atoms: C3_5  and  C4_7
REMARK    4  A    between atoms: C4_7  and  C5_8
REMARK    5  A    between atoms: C5_8  and  S1_9
REMARK    6  A    between atoms: S1_9  and  C6_10
REMARK    7  A    between atoms: C8_14  and  O2_15
REMARK    8  A    between atoms: C17_26  and  O4_27
REMARK    9  A    between atoms: O4_27  and  O5_28
ROOT
HETATM    1  C6  UNL     1     -18.470   1.553  12.825  1.00  0.00     0.338 C
HETATM    2  F1  UNL     1     -18.019   0.622  13.746  1.00  0.00    -0.222 F
HETATM    3  C7  UNL     1     -18.873   2.799  13.478  1.00  0.00     0.107 C
HETATM    4  N2  UNL     1     -19.199   3.793  13.985  1.00  0.00    -0.193 NA
ENDROOT
BRANCH   1   5
HETATM    5  S1  UNL     1     -17.244   1.915  11.563  1.00  0.00    -0.118 SA
BRANCH   5   6
HETATM    6  C5  UNL     1     -17.383   3.625  11.002  1.00  0.00     0.087 C
BRANCH   6   7
HETATM    7  C4  UNL     1     -16.703   3.829   9.665  1.00  0.00     0.113 C
BRANCH   7   8
HETATM    8  C3  UNL     1     -15.370   4.441   9.822  1.00  0.00     0.222 C
HETATM    9  N1  UNL     1     -14.602   4.718   8.666  1.00  0.00    -0.332 N
ATOM     10  H1  UNL     1     -15.004   4.482   7.758  1.00  0.00     0.168 HD
HETATM   11  O1  UNL     1     -14.937   4.704  10.955  1.00  0.00    -0.273 OA
BRANCH   9  12
HETATM   12  C2  UNL     1     -13.296   5.308   8.686  1.00  0.00     0.023 C
HETATM   13  C1  UNL     1     -12.257   4.282   8.283  1.00  0.00     0.066 C
BRANCH  12  14
HETATM   14  C8  UNL     1     -13.106   6.644   8.126  1.00  0.00     0.126 C
HETATM   15  C9  UNL     1     -11.647   6.745   7.638  1.00  0.00     0.050 C
HETATM   16  C10 UNL     1     -11.691   7.802   6.551  1.00  0.00     0.044 C
HETATM   17  C11 UNL     1     -12.208   9.067   7.215  1.00  0.00     0.087 C
HETATM   18  C12 UNL     1     -11.035  10.057   7.169  1.00  0.00     0.049 C
HETATM   19  O3  UNL     1     -12.488   8.890   8.536  1.00  0.00    -0.364 OA
HETATM   20  C17 UNL     1     -13.394   9.655   6.527  1.00  0.00     0.194 C
HETATM   21  C13 UNL     1     -13.453   7.879   8.798  1.00  0.00     0.095 C
HETATM   22  C14 UNL     1     -13.503   7.896  10.310  1.00  0.00     0.050 C
HETATM   23  C15 UNL     1     -14.755   8.480   8.309  1.00  0.00     0.044 C
HETATM   24  C16 UNL     1     -14.713   9.122   6.976  1.00  0.00     0.041 C
BRANCH  14  25
HETATM   25  O2  UNL     1     -13.837   6.618   6.895  1.00  0.00    -0.381 OA
ATOM     26  H2  UNL     1     -14.718   6.372   7.150  1.00  0.00     0.211 HD
ENDBRANCH  14  25
BRANCH  20  27
HETATM   27  O4  UNL     1     -13.333  11.050   6.599  1.00  0.00    -0.235 OA
BRANCH  27  28
HETATM   28  O5  UNL     1     -14.049  11.545   7.576  1.00  0.00    -0.250 OA
ATOM     29  H5  UNL     1     -14.792  12.054   7.274  1.00  0.00     0.253 HD
ENDBRANCH  27  28
ENDBRANCH  20  27
ENDBRANCH  12  14
ENDBRANCH   9  12
ENDBRANCH   7   8
ENDBRANCH   6   7
ENDBRANCH   5   6
ENDBRANCH   1   5
TORSDOF 9
ENDMDL