MODEL 4
REMARK VINA RESULT: -6.860852681      2.047      7.754
REMARK  8 active torsions:
REMARK  status: ('A' for Active; 'I' for Inactive)
REMARK    1  A    between atoms: O1_2  and  C2_3
REMARK    2  A    between atoms: C4_5  and  C5_6
REMARK    3  A    between atoms: C7_8  and  C8_9
REMARK    4  A    between atoms: C8_9  and  C9_10
REMARK    5  A    between atoms: C9_10  and  C10_11
REMARK    6  A    between atoms: C13_17  and  O2_18
REMARK    7  A    between atoms: C16_25  and  O4_26
REMARK    8  A    between atoms: C18_28  and  O5_29
ROOT
HETATM    1  C5  UNL     1     -13.743   4.587  10.261  1.00  0.00     0.110 C
HETATM    2  C6  UNL     1     -13.731   3.235   9.589  1.00  0.00     0.047 C
HETATM    3  C7  UNL     1     -14.494   2.834  10.885  1.00  0.00     0.077 C
HETATM    4  N2  UNL     1     -15.026   4.184  10.859  1.00  0.00    -0.214 NA
HETATM    5 CL1  UNL     1     -16.368   4.310   9.783  1.00  0.00    -0.021 Cl
ENDROOT
BRANCH   3   6
HETATM    6  C8  UNL     1     -15.433   1.715  10.674  1.00  0.00     0.026 C
BRANCH   6   7
HETATM    7  C9  UNL     1     -15.913   0.905  11.788  1.00  0.00     0.070 C
BRANCH   7   8
HETATM    8  C10 UNL     1     -17.278   1.040  12.323  1.00  0.00     0.222 C
HETATM    9  C11 UNL     1     -18.227   0.075  11.680  1.00  0.00     0.078 C
HETATM   10  N1  UNL     1     -17.750   2.403  12.110  1.00  0.00    -0.041 N
HETATM   11  C12 UNL     1     -18.957   2.712  12.829  1.00  0.00     0.269 C
ATOM     12  H12 UNL     1     -17.017   3.077  12.328  1.00  0.00     0.280 HD
ATOM     13  H11 UNL     1     -17.865   2.594  11.115  1.00  0.00     0.280 HD
HETATM   14  C13 UNL     1     -18.595   2.519  14.310  1.00  0.00     0.167 C
HETATM   15  C14 UNL     1     -18.306   1.026  14.423  1.00  0.00     0.204 C
HETATM   16  O3  UNL     1     -17.219   0.710  13.675  1.00  0.00    -0.352 OA
BRANCH  14  17
HETATM   17  O2  UNL     1     -19.658   2.819  15.137  1.00  0.00    -0.392 OA
ATOM     18  H2  UNL     1     -19.385   2.897  16.044  1.00  0.00     0.210 HD
ENDBRANCH  14  17
ENDBRANCH   7   8
ENDBRANCH   6   7
ENDBRANCH   3   6
BRANCH   1  19
HETATM   19  C4  UNL     1     -13.818   5.744   9.365  1.00  0.00    -0.034 A
HETATM   20  C3  UNL     1     -13.812   5.528   8.004  1.00  0.00     0.048 A
HETATM   21  C2  UNL     1     -13.880   6.558   7.090  1.00  0.00     0.104 A
HETATM   22  C18 UNL     1     -13.957   7.867   7.515  1.00  0.00     0.133 A
HETATM   23  C16 UNL     1     -13.964   8.087   8.877  1.00  0.00     0.104 A
HETATM   24  C15 UNL     1     -13.895   7.052   9.794  1.00  0.00     0.048 A
BRANCH  21  25
HETATM   25  O1  UNL     1     -13.875   6.350   5.712  1.00  0.00    -0.353 OA
HETATM   26  C1  UNL     1     -12.661   5.849   5.143  1.00  0.00     0.210 C
ENDBRANCH  21  25
BRANCH  22  27
HETATM   27  O5  UNL     1     -14.026   8.925   6.609  1.00  0.00    -0.356 OA
ATOM     28  H5  UNL     1     -14.653   8.927   5.896  1.00  0.00     0.218 HD
ENDBRANCH  22  27
BRANCH  23  29
HETATM   29  O4  UNL     1     -14.040   9.395   9.338  1.00  0.00    -0.353 OA
HETATM   30  C17 UNL     1     -15.051   9.807  10.232  1.00  0.00     0.210 C
ENDBRANCH  23  29
ENDBRANCH   1  19
TORSDOF 8
ENDMDL