MODEL 2
REMARK VINA RESULT: -7.247141106      2.410      4.137
REMARK  9 active torsions:
REMARK  status: ('A' for Active; 'I' for Inactive)
REMARK    1  A    between atoms: O1_2  and  C2_3
REMARK    2  A    between atoms: C4_5  and  C5_6
REMARK    3  A    between atoms: C5_6  and  C6_7
REMARK    4  A    between atoms: C6_7  and  C7_8
REMARK    5  A    between atoms: C10_12  and  O3_13
REMARK    6  A    between atoms: C11_15  and  O4_16
REMARK    7  A    between atoms: C14_21  and  O6_22
REMARK    8  A    between atoms: O6_22  and  C15_23
REMARK    9  A    between atoms: C18_28  and  O8_29
ROOT
HETATM    1  C7  UNL     1     -14.378   4.708   9.582  1.00  0.00     0.041 C
HETATM    2  C8  UNL     1     -13.097   3.925   9.900  1.00  0.00     0.026 C
HETATM    3  C9  UNL     1     -14.099   5.468   8.338  1.00  0.00     0.084 A
HETATM    4  O2  UNL     1     -14.032   5.409   7.029  1.00  0.00    -0.288 OA
HETATM    5  C10 UNL     1     -13.697   6.551   6.498  1.00  0.00     0.218 A
HETATM    6  C11 UNL     1     -13.530   7.435   7.540  1.00  0.00     0.141 A
HETATM    7  C12 UNL     1     -13.786   6.746   8.707  1.00  0.00     0.081 A
HETATM    8  C13 UNL     1     -13.843   6.893  10.159  1.00  0.00     0.195 C
HETATM    9  O5  UNL     1     -13.336   7.872  10.750  1.00  0.00    -0.289 OA
HETATM   10  C14 UNL     1     -14.563   5.728  10.659  1.00  0.00     0.220 C
ENDROOT
BRANCH   1  11
HETATM   11  C6  UNL     1     -15.505   3.744   9.462  1.00  0.00     0.024 C
BRANCH  11  12
HETATM   12  C5  UNL     1     -15.050   2.339   9.729  1.00  0.00     0.042 C
BRANCH  12  13
HETATM   13  C4  UNL     1     -15.671   1.788  10.972  1.00  0.00    -0.034 A
HETATM   14  C3  UNL     1     -16.988   2.084  11.301  1.00  0.00     0.048 A
HETATM   15  C2  UNL     1     -17.589   1.591  12.432  1.00  0.00     0.101 A
HETATM   16  C18 UNL     1     -16.822   0.769  13.251  1.00  0.00     0.100 A
HETATM   17  C17 UNL     1     -15.518   0.475  12.924  1.00  0.00     0.063 A
HETATM   18  C16 UNL     1     -14.916   0.978  11.778  1.00  0.00     0.043 A
HETATM   19 CL1  UNL     1     -13.239   0.585  11.393  1.00  0.00    -0.084 Cl
BRANCH  15  20
HETATM   20  O1  UNL     1     -18.884   1.845  12.815  1.00  0.00    -0.353 OA
HETATM   21  C1  UNL     1     -19.218   3.129  13.302  1.00  0.00     0.210 C
ENDBRANCH  15  20
BRANCH  16  22
HETATM   22  O8  UNL     1     -17.381   0.231  14.425  1.00  0.00    -0.358 OA
ATOM     23  H8  UNL     1     -17.816  -0.613  14.399  1.00  0.00     0.217 HD
ENDBRANCH  16  22
ENDBRANCH  12  13
ENDBRANCH  11  12
ENDBRANCH   1  11
BRANCH  10  24
HETATM   24  O6  UNL     1     -15.891   5.956  11.022  1.00  0.00    -0.314 OA
BRANCH  24  25
HETATM   25  C15 UNL     1     -16.650   7.037  10.627  1.00  0.00     0.398 C
HETATM   26  O7  UNL     1     -17.525   7.442  11.423  1.00  0.00    -0.276 OA
ENDBRANCH  24  25
ENDBRANCH  10  24
BRANCH   5  27
HETATM   27  O3  UNL     1     -13.532   6.849   5.130  1.00  0.00    -0.339 OA
ATOM     28  H3  UNL     1     -12.727   7.077   4.679  1.00  0.00     0.220 HD
ENDBRANCH   5  27
BRANCH   6  29
HETATM   29  O4  UNL     1     -13.168   8.776   7.425  1.00  0.00    -0.355 OA
ATOM     30  H4  UNL     1     -12.289   9.105   7.280  1.00  0.00     0.218 HD
ENDBRANCH   6  29
TORSDOF 9
ENDMDL