MODEL 2
REMARK VINA RESULT: -7.235827689      1.532      6.246
REMARK  8 active torsions:
REMARK  status: ('A' for Active; 'I' for Inactive)
REMARK    1  A    between atoms: O1_2  and  C2_3
REMARK    2  A    between atoms: C3_4  and  C4_5
REMARK    3  A    between atoms: C4_5  and  C5_6
REMARK    4  A    between atoms: C5_6  and  C6_7
REMARK    5  A    between atoms: C6_7  and  O2_8
REMARK    6  A    between atoms: C14_17  and  O3_18
REMARK    7  A    between atoms: C16_20  and  O4_21
REMARK    8  A    between atoms: C20_26  and  O6_27
ROOT
HETATM    1  C2  UNL     1     -16.245   5.520  10.158  1.00  0.00     0.113 A
HETATM    2  C3  UNL     1     -16.036   4.232  10.580  1.00  0.00     0.005 A
HETATM    3  C12 UNL     1     -14.852   3.625  10.215  1.00  0.00     0.049 A
HETATM    4  C13 UNL     1     -13.910   4.322   9.439  1.00  0.00     0.012 A
HETATM    5  C14 UNL     1     -14.158   5.617   9.033  1.00  0.00     0.113 A
HETATM    6  C16 UNL     1     -15.336   6.237   9.390  1.00  0.00     0.136 A
HETATM    7  C18 UNL     1     -12.623   3.709   9.022  1.00  0.00     0.127 C
HETATM    8  C19 UNL     1     -12.699   2.248   9.229  1.00  0.00     0.179 C
HETATM    9  O5  UNL     1     -12.306   1.486   8.389  1.00  0.00    -0.293 OA
HETATM   10  C20 UNL     1     -13.269   1.734  10.493  1.00  0.00     0.289 C
HETATM   11  N1  UNL     1     -14.592   2.298  10.638  1.00  0.00    -0.357 N
ATOM     12  H1  UNL     1     -15.341   1.738  11.045  1.00  0.00     0.162 HD
ENDROOT
BRANCH   2  13
HETATM   13  C4  UNL     1     -17.084   3.583  11.398  1.00  0.00     0.047 C
BRANCH  13  14
HETATM   14  C5  UNL     1     -17.360   2.166  10.940  1.00  0.00     0.042 C
BRANCH  14  15
HETATM   15  C6  UNL     1     -17.659   1.321  12.151  1.00  0.00     0.058 C
HETATM   16  C7  UNL     1     -18.399   0.054  11.822  1.00  0.00     0.038 C
HETATM   17  C8  UNL     1     -19.453  -0.300  12.827  1.00  0.00     0.003 C
HETATM   18  C9  UNL     1     -19.131   0.055  14.227  1.00  0.00     0.000 C
HETATM   19  C10 UNL     1     -18.456   1.359  14.441  1.00  0.00     0.003 C
HETATM   20  C11 UNL     1     -18.458   2.148  13.145  1.00  0.00     0.038 C
BRANCH  15  21
HETATM   21  O2  UNL     1     -16.470   0.959  12.779  1.00  0.00    -0.390 OA
ATOM     22  H2  UNL     1     -16.288   0.040  12.620  1.00  0.00     0.210 HD
ENDBRANCH  15  21
ENDBRANCH  14  15
ENDBRANCH  13  14
ENDBRANCH   2  13
BRANCH   1  23
HETATM   23  O1  UNL     1     -17.407   6.168  10.493  1.00  0.00    -0.352 OA
HETATM   24  C1  UNL     1     -17.602   6.899  11.700  1.00  0.00     0.210 C
ENDBRANCH   1  23
BRANCH   6  25
HETATM   25  O4  UNL     1     -15.615   7.539   8.999  1.00  0.00    -0.351 OA
HETATM   26  C17 UNL     1     -15.140   8.694   9.616  1.00  0.00     0.210 C
ENDBRANCH   6  25
BRANCH   5  27
HETATM   27  O3  UNL     1     -13.206   6.284   8.264  1.00  0.00    -0.352 OA
HETATM   28  C15 UNL     1     -13.247   6.437   6.878  1.00  0.00     0.210 C
ENDBRANCH   5  27
BRANCH  10  29
HETATM   29  O6  UNL     1     -12.529   2.139  11.600  1.00  0.00    -0.370 OA
ATOM     30  H6  UNL     1     -12.983   1.960  12.416  1.00  0.00     0.212 HD
ENDBRANCH  10  29
TORSDOF 8
ENDMDL