MODEL 1
REMARK VINA RESULT: -6.760825232      0.000      0.000
REMARK  9 active torsions:
REMARK  status: ('A' for Active; 'I' for Inactive)
REMARK    1  A    between atoms: C2_2  and  O1_3
REMARK    2  A    between atoms: O1_3  and  C3_4
REMARK    3  A    between atoms: C3_4  and  C4_6
REMARK    4  A    between atoms: C7_9  and  C8_10
REMARK       I    between atoms: C8_10  and  N1_12
REMARK    5  A    between atoms: N1_12  and  C9_14
REMARK    6  A    between atoms: C9_14  and  C10_15
REMARK    7  A    between atoms: C10_15  and  O4_18
REMARK    8  A    between atoms: O4_18  and  C12_19
REMARK    9  A    between atoms: N2_21  and  C14_22
ROOT
HETATM    1  C4  UNL     1     -16.824   2.009  11.540  1.00  0.00     0.089 A
HETATM    2  C5  UNL     1     -16.714   3.240  10.967  1.00  0.00    -0.010 A
HETATM    3  C6  UNL     1     -17.792   4.259  10.833  1.00  0.00     0.052 C
HETATM    4  C7  UNL     1     -15.377   3.377  10.573  1.00  0.00     0.112 A
HETATM    5  N2  UNL     1     -14.694   2.236  10.913  1.00  0.00    -0.321 N
HETATM    6  C18 UNL     1     -15.567   1.414  11.495  1.00  0.00     0.137 A
HETATM    7  N3  UNL     1     -15.396   0.100  12.056  1.00  0.00    -0.081 NA
ENDROOT
BRANCH   4   8
HETATM    8  C8  UNL     1     -14.862   4.530   9.868  1.00  0.00     0.269 C
HETATM    9  O3  UNL     1     -14.721   4.560   8.619  1.00  0.00    -0.266 OA
HETATM   10  N1  UNL     1     -14.496   5.700  10.576  1.00  0.00    -0.352 N
ATOM     11  H1  UNL     1     -14.598   5.736  11.590  1.00  0.00     0.162 HD
BRANCH  10  12
HETATM   12  C9  UNL     1     -13.964   6.875   9.840  1.00  0.00     0.177 C
BRANCH  12  13
HETATM   13  C10 UNL     1     -15.057   7.901   9.685  1.00  0.00     0.149 C
HETATM   14  C11 UNL     1     -15.096   8.324   8.222  1.00  0.00     0.066 C
HETATM   15 CL1  UNL     1     -14.526   9.378  10.596  1.00  0.00    -0.087 Cl
BRANCH  13  16
HETATM   16  O4  UNL     1     -16.236   7.546  10.183  1.00  0.00    -0.364 OA
BRANCH  16  17
HETATM   17  C12 UNL     1     -17.112   8.332  10.806  1.00  0.00     0.166 C
HETATM   18  C13 UNL     1     -17.915   7.775  11.942  1.00  0.00     0.033 C
ENDBRANCH  16  17
ENDBRANCH  13  16
ENDBRANCH  12  13
ENDBRANCH  10  12
ENDBRANCH   4   8
BRANCH   5  19
HETATM   19  C14 UNL     1     -13.297   1.932  10.684  1.00  0.00     0.028 C
HETATM   20  C15 UNL     1     -12.419   3.178  10.855  1.00  0.00     0.038 C
HETATM   21  C16 UNL     1     -12.729   0.928  11.662  1.00  0.00     0.038 C
HETATM   22  C17 UNL     1     -13.097   1.427   9.294  1.00  0.00     0.038 C
ENDBRANCH   5  19
BRANCH   1  23
HETATM   23  C3  UNL     1     -18.055   1.422  12.094  1.00  0.00     0.297 C
HETATM   24  O2  UNL     1     -18.548   0.386  11.519  1.00  0.00    -0.259 OA
BRANCH  23  25
HETATM   25  O1  UNL     1     -18.733   1.886  13.180  1.00  0.00    -0.318 OA
BRANCH  25  26
HETATM   26  C2  UNL     1     -18.768   1.133  14.367  1.00  0.00     0.174 C
HETATM   27  C1  UNL     1     -17.411   1.131  15.065  1.00  0.00     0.034 C
ENDBRANCH  25  26
ENDBRANCH  23  25
ENDBRANCH   1  23
TORSDOF 9
ENDMDL