MODEL 1
REMARK VINA RESULT: -7.882626507      0.000      0.000
REMARK  8 active torsions:
REMARK  status: ('A' for Active; 'I' for Inactive)
REMARK    1  A    between atoms: C2_2  and  C3_3
REMARK    2  A    between atoms: N1_5  and  C5_6
REMARK    3  A    between atoms: C5_6  and  C6_7
REMARK    4  A    between atoms: C6_7  and  N2_8
REMARK    5  A    between atoms: N3_11  and  C9_12
REMARK    6  A    between atoms: C9_12  and  C10_13
REMARK    7  A    between atoms: C10_13  and  C11_14
REMARK    8  A    between atoms: C11_14  and  N4_15
ROOT
HETATM    1  C5  UNL     1      -7.371  -8.203  -9.273  1.00  0.00     0.104 C
ENDROOT
BRANCH   1   2
HETATM    2  N1  UNL     1      -8.742  -8.399  -9.006  1.00  0.00    -0.287 N
HETATM    3  C4  UNL     1      -9.100  -8.721  -7.729  1.00  0.00     0.116 A
HETATM    4  C3  UNL     1     -10.422  -8.925  -7.415  1.00  0.00     0.023 A
HETATM    5  C15 UNL     1     -11.350  -8.790  -8.427  1.00  0.00     0.114 A
HETATM    6  N5  UNL     1     -10.964  -8.467  -9.698  1.00  0.00    -0.294 N
HETATM    7  N6  UNL     1     -12.606  -8.974  -8.169  1.00  0.00    -0.385 N
HETATM    8  C14 UNL     1      -9.661  -8.275  -9.969  1.00  0.00     0.331 A
ATOM      9  H5  UNL     1     -11.662  -8.372 -10.437  1.00  0.00     0.172 HD
HETATM   10  O1  UNL     1      -9.236  -7.976 -11.111  1.00  0.00    -0.246 OA
ATOM     11  H62 UNL     1     -12.895  -9.215  -7.221  1.00  0.00     0.157 HD
ATOM     12  H61 UNL     1     -13.293  -8.874  -8.917  1.00  0.00     0.157 HD
BRANCH   4  13
HETATM   13  C2  UNL     1     -10.900  -9.277  -6.068  1.00  0.00     0.006 C
HETATM   14  C1  UNL     1     -10.743 -10.458  -5.522  1.00  0.00     0.012 C
ENDBRANCH   4  13
ENDBRANCH   1   2
BRANCH   1  15
HETATM   15  C6  UNL     1      -6.833  -6.838  -9.078  1.00  0.00     0.318 C
BRANCH  15  16
HETATM   16  N2  UNL     1      -5.606  -6.967  -8.272  1.00  0.00     0.102 N
HETATM   17  C7  UNL     1      -4.615  -6.114  -8.883  1.00  0.00     0.318 C
HETATM   18  C8  UNL     1      -3.625  -5.532  -7.903  1.00  0.00     0.098 C
HETATM   19  N3  UNL     1      -3.594  -6.140  -6.632  1.00  0.00    -0.351 N
HETATM   20  C12 UNL     1      -4.807  -6.450  -6.009  1.00  0.00     0.098 C
HETATM   21  C13 UNL     1      -5.978  -6.554  -6.948  1.00  0.00     0.318 C
BRANCH  19  22
HETATM   22  C9  UNL     1      -2.369  -6.490  -6.054  1.00  0.00     0.069 C
BRANCH  22  23
HETATM   23  C10 UNL     1      -1.332  -5.421  -6.023  1.00  0.00     0.072 C
BRANCH  23  24
HETATM   24  C11 UNL     1      -1.663  -4.389  -4.979  1.00  0.00     0.234 C
BRANCH  24  25
HETATM   25  N4  UNL     1      -2.010  -3.107  -5.533  1.00  0.00    -0.079 N
ATOM     26  H43 UNL     1      -1.969  -3.131  -6.553  1.00  0.00     0.274 HD
ATOM     27  H42 UNL     1      -3.004  -2.916  -5.409  1.00  0.00     0.274 HD
ATOM     28  H41 UNL     1      -1.446  -2.341  -5.166  1.00  0.00     0.274 HD
ENDBRANCH  24  25
ENDBRANCH  23  24
ENDBRANCH  22  23
ENDBRANCH  19  22
ENDBRANCH  15  16
ENDBRANCH   1  15
TORSDOF 8
ENDMDL