MODEL 4
REMARK VINA RESULT: -7.694884594      1.373      2.327
REMARK  10 active torsions:
REMARK  status: ('A' for Active; 'I' for Inactive)
REMARK    1  A    between atoms: O1_1  and  C1_3
REMARK    2  A    between atoms: C1_3  and  C2_4
REMARK    3  A    between atoms: C2_4  and  C3_5
REMARK    4  A    between atoms: C3_5  and  C4_6
REMARK    5  A    between atoms: C7_10  and  N1_11
REMARK    6  A    between atoms: N2_14  and  C10_15
REMARK    7  A    between atoms: C10_15  and  C11_16
REMARK    8  A    between atoms: C10_15  and  C12_19
REMARK    9  A    between atoms: C11_16  and  O3_17
REMARK   10  A    between atoms: C12_19  and  O4_20
ROOT
HETATM    1  N1  UNL     1      -5.431  -6.841  -8.014  1.00  0.00    -0.361 N
HETATM    2  C8  UNL     1      -5.689  -6.767  -6.640  1.00  0.00     0.107 C
HETATM    3  C9  UNL     1      -4.965  -5.736  -5.850  1.00  0.00     0.103 C
HETATM    4  N2  UNL     1      -3.710  -5.414  -6.339  1.00  0.00    -0.375 N
HETATM    5  C13 UNL     1      -3.604  -5.214  -7.736  1.00  0.00     0.167 C
HETATM    6  C14 UNL     1      -4.288  -6.284  -8.557  1.00  0.00     0.083 C
ENDROOT
BRANCH   1   7
HETATM    7  C7  UNL     1      -6.617  -6.967  -8.793  1.00  0.00     0.112 C
HETATM    8  C6  UNL     1      -7.721  -7.383  -7.847  1.00  0.00     0.193 C
HETATM    9  O2  UNL     1      -8.932  -7.185  -8.449  1.00  0.00    -0.389 OA
HETATM   10  C5  UNL     1      -8.892  -7.010  -9.814  1.00  0.00     0.172 C
HETATM   11  C4  UNL     1      -7.990  -7.964 -10.526  1.00  0.00     0.011 C
HETATM   12  C15 UNL     1      -6.571  -7.922  -9.914  1.00  0.00     0.034 C
BRANCH  11  13
HETATM   13  C3  UNL     1      -8.534  -9.341 -10.496  1.00  0.00     0.009 C
BRANCH  13  14
HETATM   14  C2  UNL     1     -10.003  -9.435 -10.776  1.00  0.00     0.026 C
BRANCH  14  15
HETATM   15  C1  UNL     1     -10.733  -9.895  -9.546  1.00  0.00     0.164 C
BRANCH  15  16
HETATM   16  O1  UNL     1      -9.847 -10.134  -8.488  1.00  0.00    -0.401 OA
ATOM     17  H1  UNL     1     -10.277 -10.590  -7.774  1.00  0.00     0.209 HD
ENDBRANCH  15  16
ENDBRANCH  14  15
ENDBRANCH  13  14
ENDBRANCH  11  13
ENDBRANCH   1   7
BRANCH   4  18
HETATM   18  C10 UNL     1      -2.570  -5.323  -5.556  1.00  0.00     0.131 C
BRANCH  18  19
HETATM   19  C11 UNL     1      -1.336  -5.637  -6.377  1.00  0.00     0.191 C
BRANCH  19  20
HETATM   20  O3  UNL     1      -0.199  -5.033  -5.884  1.00  0.00    -0.399 OA
ATOM     21  H3  UNL     1       0.055  -4.265  -6.383  1.00  0.00     0.209 HD
ENDBRANCH  19  20
ENDBRANCH  18  19
BRANCH  18  22
HETATM   22  C12 UNL     1      -2.399  -4.072  -4.732  1.00  0.00     0.191 C
BRANCH  22  23
HETATM   23  O4  UNL     1      -2.537  -2.902  -5.425  1.00  0.00    -0.399 OA
ATOM     24  H4  UNL     1      -3.104  -2.259  -5.017  1.00  0.00     0.209 HD
ENDBRANCH  22  23
ENDBRANCH  18  22
ENDBRANCH   4  18
TORSDOF 10
ENDMDL