MODEL 4
REMARK VINA RESULT: -6.692234816      1.379      1.519
REMARK  10 active torsions:
REMARK  status: ('A' for Active; 'I' for Inactive)
REMARK    1  A    between atoms: N1_1  and  S1_4
REMARK    2  A    between atoms: S1_4  and  C1_6
REMARK    3  A    between atoms: S1_4  and  N4_21
REMARK    4  A    between atoms: C2_7  and  C3_8
REMARK    5  A    between atoms: C3_8  and  N2_9
REMARK    6  A    between atoms: C3_8  and  C4_13
REMARK    7  A    between atoms: C4_13  and  C5_14
REMARK    8  A    between atoms: C5_14  and  C6_15
REMARK    9  A    between atoms: C6_15  and  C7_16
REMARK   10  A    between atoms: C7_16  and  N3_17
ROOT
HETATM    1  C1  UNL     1      -4.560  -5.987  -5.737  1.00  0.00     0.100 C
HETATM    2  C2  UNL     1      -4.717  -6.115  -7.043  1.00  0.00     0.017 C
ENDROOT
BRANCH   2   3
HETATM    3  C3  UNL     1      -5.698  -7.034  -7.662  1.00  0.00     0.207 C
BRANCH   3   4
HETATM    4  N2  UNL     1      -6.985  -6.824  -6.977  1.00  0.00    -0.072 N
ATOM      5  H23 UNL     1      -7.736  -7.405  -7.352  1.00  0.00     0.275 HD
ATOM      6  H22 UNL     1      -6.996  -7.193  -6.026  1.00  0.00     0.275 HD
ATOM      7  H21 UNL     1      -7.191  -5.826  -7.020  1.00  0.00     0.275 HD
ENDBRANCH   3   4
BRANCH   3   8
HETATM    8  C4  UNL     1      -5.950  -6.713  -9.114  1.00  0.00     0.037 C
BRANCH   8   9
HETATM    9  C5  UNL     1      -7.373  -6.946  -9.530  1.00  0.00     0.004 C
BRANCH   9  10
HETATM   10  C6  UNL     1      -7.548  -8.219 -10.319  1.00  0.00     0.027 C
BRANCH  10  11
HETATM   11  C7  UNL     1      -9.040  -8.300 -10.673  1.00  0.00     0.229 C
BRANCH  11  12
HETATM   12  N3  UNL     1      -9.440  -9.703 -10.704  1.00  0.00    -0.079 N
ATOM     13  H33 UNL     1      -9.116 -10.182 -11.545  1.00  0.00     0.274 HD
ATOM     14  H32 UNL     1      -8.938 -10.267 -10.018  1.00  0.00     0.274 HD
ATOM     15  H31 UNL     1     -10.452  -9.759 -10.590  1.00  0.00     0.274 HD
ENDBRANCH  11  12
ENDBRANCH  10  11
ENDBRANCH   9  10
ENDBRANCH   8   9
ENDBRANCH   3   8
ENDBRANCH   2   3
BRANCH   1  16
HETATM   16  S1  UNL     1      -3.418  -4.920  -4.988  1.00  0.00     0.108 S
HETATM   17  O1  UNL     1      -4.112  -3.839  -4.172  1.00  0.00    -0.230 OA
BRANCH  16  18
HETATM   18  N1  UNL     1      -2.633  -4.153  -6.103  1.00  0.00    -0.345 N
ATOM     19  H12 UNL     1      -2.998  -3.850  -7.006  1.00  0.00     0.167 HD
ATOM     20  H11 UNL     1      -1.692  -4.028  -5.731  1.00  0.00     0.167 HD
ENDBRANCH  16  18
BRANCH  16  21
HETATM   21  N4  UNL     1      -2.419  -5.795  -3.942  1.00  0.00    -0.212 NA
HETATM   22  C8  UNL     1      -1.076  -5.964  -4.353  1.00  0.00     0.119 C
HETATM   23  C9  UNL     1      -0.276  -4.741  -3.960  1.00  0.00     0.125 C
HETATM   24  S2  UNL     1      -1.071  -4.367  -2.388  1.00  0.00     0.030 S
HETATM   25  O2  UNL     1      -1.568  -2.763  -2.394  1.00  0.00    -0.257 OA
HETATM   26  C10 UNL     1      -2.495  -5.453  -2.571  1.00  0.00     0.214 C
ENDBRANCH  16  21
ENDBRANCH   1  16
TORSDOF 10
ENDMDL