MODEL 5
REMARK VINA RESULT: -8.179974102      1.113      1.121
REMARK  7 active torsions:
REMARK  status: ('A' for Active; 'I' for Inactive)
REMARK    1  A    between atoms: C3_6  and  N3_7
REMARK    2  A    between atoms: N3_7  and  C4_10
REMARK    3  A    between atoms: C4_10  and  C5_11
REMARK    4  A    between atoms: C5_11  and  C6_12
REMARK    5  A    between atoms: C6_12  and  C7_13
REMARK    6  A    between atoms: C7_13  and  N4_14
REMARK    7  A    between atoms: N5_17  and  C10_18
ROOT
HETATM    1  C5  UNL     1      -5.390  -6.884  -9.013  1.00  0.00     0.029 C
ENDROOT
BRANCH   1   2
HETATM    2  C4  UNL     1      -6.484  -6.801  -7.997  1.00  0.00     0.235 C
BRANCH   2   3
HETATM    3  N3  UNL     1      -7.363  -7.967  -8.081  1.00  0.00    -0.053 N
ATOM      4  H32 UNL     1      -7.844  -8.155  -7.201  1.00  0.00     0.279 HD
ATOM      5  H31 UNL     1      -6.845  -8.842  -8.149  1.00  0.00     0.279 HD
BRANCH   3   6
HETATM    6  C3  UNL     1      -8.275  -7.783  -9.176  1.00  0.00     0.304 A
HETATM    7  C2  UNL     1      -8.344  -9.006 -10.029  1.00  0.00     0.176 A
HETATM    8  N2  UNL     1      -9.722  -9.441  -9.857  1.00  0.00    -0.361 N
HETATM    9  C1  UNL     1     -10.391  -8.627  -9.139  1.00  0.00     0.185 A
ATOM     10  H2  UNL     1     -10.106 -10.295 -10.262  1.00  0.00     0.162 HD
HETATM   11  N1  UNL     1     -11.782  -8.751  -8.767  1.00  0.00    -0.064 NA
HETATM   12  N6  UNL     1      -9.628  -7.523  -8.712  1.00  0.00    -0.336 N
ATOM     13  H6  UNL     1      -9.956  -6.712  -8.187  1.00  0.00     0.164 HD
ENDBRANCH   3   6
ENDBRANCH   2   3
ENDBRANCH   1   2
BRANCH   1  14
HETATM   14  C6  UNL     1      -4.048  -6.758  -8.359  1.00  0.00     0.032 C
BRANCH  14  15
HETATM   15  C7  UNL     1      -3.867  -5.495  -7.589  1.00  0.00     0.273 C
BRANCH  15  16
HETATM   16  N4  UNL     1      -3.173  -5.725  -6.356  1.00  0.00     0.097 N
HETATM   17  C8  UNL     1      -3.846  -6.653  -5.528  1.00  0.00     0.292 C
HETATM   18  C9  UNL     1      -2.867  -7.429  -4.624  1.00  0.00     0.147 C
HETATM   19  N5  UNL     1      -2.118  -6.509  -3.866  1.00  0.00    -0.400 N
HETATM   20  C13 UNL     1      -2.796  -5.421  -3.268  1.00  0.00     0.197 C
HETATM   21  C14 UNL     1      -3.274  -4.519  -4.341  1.00  0.00     0.172 C
HETATM   22  O1  UNL     1      -4.131  -3.731  -4.012  1.00  0.00    -0.294 OA
HETATM   23  C15 UNL     1      -2.823  -4.471  -5.770  1.00  0.00     0.352 C
BRANCH  19  24
HETATM   24  C10 UNL     1      -0.850  -6.869  -3.374  1.00  0.00     0.079 A
HETATM   25  C11 UNL     1      -0.528  -7.255  -1.999  1.00  0.00     0.027 A
HETATM   26  C12 UNL     1      -0.130  -5.888  -2.516  1.00  0.00     0.027 A
ENDBRANCH  19  24
ENDBRANCH  15  16
ENDBRANCH  14  15
ENDBRANCH   1  14
TORSDOF 7
ENDMDL