MODEL 5
REMARK VINA RESULT: -6.400463074      1.970      5.832
REMARK  8 active torsions:
REMARK  status: ('A' for Active; 'I' for Inactive)
REMARK    1  A    between atoms: C2_3  and  C4_8
REMARK    2  A    between atoms: C6_10  and  C7_11
REMARK    3  A    between atoms: C7_11  and  C8_12
REMARK    4  A    between atoms: C8_12  and  C9_13
REMARK    5  A    between atoms: C9_13  and  C10_14
REMARK    6  A    between atoms: C10_14  and  N4_15
REMARK    7  A    between atoms: N5_19  and  C11_20
REMARK    8  A    between atoms: C11_20  and  C12_21
ROOT
HETATM    1  C1  UNL     1      -4.045  -5.648  -8.777  1.00  0.00     0.231 C
HETATM    2  N1  UNL     1      -4.639  -6.010  -7.849  1.00  0.00    -0.413 NA
HETATM    3  C2  UNL     1      -5.334  -6.460  -6.756  1.00  0.00     0.185 C
HETATM    4  N2  UNL     1      -6.547  -6.870  -6.891  1.00  0.00    -0.270 N
ATOM      5  H2  UNL     1      -7.044  -7.199  -6.063  1.00  0.00     0.180 HD
HETATM    6  C3  UNL     1      -7.207  -6.884  -8.105  1.00  0.00     0.184 C
HETATM    7  N3  UNL     1      -7.741  -6.908  -9.122  1.00  0.00    -0.172 NA
ENDROOT
BRANCH   3   8
HETATM    8  C4  UNL     1      -4.639  -6.460  -5.420  1.00  0.00     0.162 C
HETATM    9  C5  UNL     1      -3.425  -7.306  -5.554  1.00  0.00     0.058 C
HETATM   10  C6  UNL     1      -2.685  -7.525  -4.218  1.00  0.00     0.087 C
HETATM   11  N5  UNL     1      -1.703  -6.413  -4.111  1.00  0.00    -0.279 NA
HETATM   12  C13 UNL     1      -2.461  -5.225  -3.732  1.00  0.00     0.115 C
HETATM   13  C14 UNL     1      -3.152  -4.604  -4.896  1.00  0.00     0.129 C
HETATM   14  N7  UNL     1      -4.470  -5.106  -5.051  1.00  0.00    -0.408 N
ATOM     15  H7  UNL     1      -5.279  -4.504  -4.899  1.00  0.00     0.154 HD
BRANCH  10  16
HETATM   16  C7  UNL     1      -1.966  -8.792  -4.230  1.00  0.00    -0.011 C
BRANCH  16  17
HETATM   17  C8  UNL     1      -2.265  -9.893  -3.310  1.00  0.00    -0.027 C
BRANCH  17  18
HETATM   18  C9  UNL     1      -2.998  -9.691  -2.061  1.00  0.00     0.054 C
BRANCH  18  19
HETATM   19  C10 UNL     1      -2.197  -9.133  -0.929  1.00  0.00     0.233 C
BRANCH  19  20
HETATM   20  N4  UNL     1      -2.800  -7.787  -0.649  1.00  0.00    -0.079 N
ATOM     21  H43 UNL     1      -2.125  -7.022  -0.655  1.00  0.00     0.274 HD
ATOM     22  H42 UNL     1      -3.387  -7.432  -1.404  1.00  0.00     0.274 HD
ATOM     23  H41 UNL     1      -3.292  -7.896   0.238  1.00  0.00     0.274 HD
ENDBRANCH  19  20
ENDBRANCH  18  19
ENDBRANCH  17  18
ENDBRANCH  16  17
ENDBRANCH  10  16
BRANCH  11  24
HETATM   24  C11 UNL     1      -0.567  -6.689  -3.341  1.00  0.00     0.131 C
BRANCH  24  25
HETATM   25  C12 UNL     1      -0.217  -5.600  -2.400  1.00  0.00     0.265 C
HETATM   26  N6  UNL     1      -0.504  -5.682  -1.009  1.00  0.00    -0.057 NA
HETATM   27  O1  UNL     1       0.344  -4.573  -2.815  1.00  0.00    -0.271 OA
ENDBRANCH  24  25
ENDBRANCH  11  24
ENDBRANCH   3   8
TORSDOF 8
ENDMDL