MODEL 1
REMARK VINA RESULT: -7.978491466      0.000      0.000
REMARK  9 active torsions:
REMARK  status: ('A' for Active; 'I' for Inactive)
REMARK    1  A    between atoms: C2_2  and  C3_3
REMARK    2  A    between atoms: C3_3  and  C4_4
REMARK    3  A    between atoms: C4_4  and  N1_5
REMARK    4  A    between atoms: N1_5  and  C5_7
REMARK    5  A    between atoms: C7_14  and  N5_15
REMARK    6  A    between atoms: N5_15  and  C8_17
REMARK    7  A    between atoms: C8_17  and  C9_18
REMARK    8  A    between atoms: C9_18  and  C10_19
REMARK    9  A    between atoms: C10_19  and  N6_20
ROOT
HETATM    1  C5  UNL     1     -10.777  -8.933  -6.999  1.00  0.00     0.695 A
HETATM    2  N2  UNL     1     -11.303  -8.977  -8.234  1.00  0.00    -0.162 N
ATOM      3  H2  UNL     1     -12.171  -9.487  -8.399  1.00  0.00     0.187 HD
HETATM    4  C6  UNL     1     -10.681  -8.340  -9.269  1.00  0.00     0.221 A
HETATM    5  N3  UNL     1     -11.255  -8.400 -10.568  1.00  0.00    -0.062 NA
HETATM    6  N4  UNL     1      -9.536  -7.671  -9.028  1.00  0.00    -0.162 N
ATOM      7  H4  UNL     1      -9.070  -7.193  -9.800  1.00  0.00     0.187 HD
HETATM    8  C7  UNL     1      -8.993  -7.613  -7.804  1.00  0.00     0.695 A
HETATM    9  N7  UNL     1      -9.637  -8.258  -6.795  1.00  0.00    -0.022 N
ATOM     10  H7  UNL     1      -9.241  -8.227  -5.855  1.00  0.00     0.203 HD
ENDROOT
BRANCH   8  11
HETATM   11  N5  UNL     1      -7.909  -6.994  -7.514  1.00  0.00    -0.225 N
ATOM     12  H5  UNL     1      -7.717  -6.686  -6.560  1.00  0.00     0.177 HD
BRANCH  11  13
HETATM   13  C8  UNL     1      -6.968  -6.746  -8.583  1.00  0.00     0.140 C
BRANCH  13  14
HETATM   14  C9  UNL     1      -5.544  -7.126  -8.152  1.00  0.00     0.050 C
BRANCH  14  15
HETATM   15  C10 UNL     1      -5.362  -6.608  -6.769  1.00  0.00     0.274 C
BRANCH  15  16
HETATM   16  N6  UNL     1      -4.475  -5.485  -6.658  1.00  0.00     0.092 N
HETATM   17  C11 UNL     1      -3.880  -5.396  -5.333  1.00  0.00     0.298 C
HETATM   18  C12 UNL     1      -2.751  -4.385  -5.446  1.00  0.00     0.198 C
HETATM   19  O1  UNL     1      -1.699  -5.006  -6.101  1.00  0.00    -0.388 OA
HETATM   20  C13 UNL     1      -2.102  -5.755  -7.195  1.00  0.00     0.198 C
HETATM   21  C14 UNL     1      -3.490  -5.358  -7.672  1.00  0.00     0.298 C
ENDBRANCH  15  16
ENDBRANCH  14  15
ENDBRANCH  13  14
ENDBRANCH  11  13
ENDBRANCH   8  11
BRANCH   1  22
HETATM   22  N1  UNL     1     -11.366  -9.534  -6.024  1.00  0.00    -0.225 N
ATOM     23  H1  UNL     1     -11.939  -9.004  -5.367  1.00  0.00     0.177 HD
BRANCH  22  24
HETATM   24  C4  UNL     1     -11.209 -10.971  -5.862  1.00  0.00     0.138 C
BRANCH  24  25
HETATM   25  C3  UNL     1     -11.365 -11.370  -4.409  1.00  0.00     0.020 C
BRANCH  25  26
HETATM   26  C2  UNL     1      -9.977 -11.802  -3.936  1.00  0.00    -0.003 C
HETATM   27  C1  UNL     1     -10.073 -12.937  -2.928  1.00  0.00     0.005 C
ENDBRANCH  25  26
ENDBRANCH  24  25
ENDBRANCH  22  24
ENDBRANCH   1  22
TORSDOF 9
ENDMDL