MODEL 5
REMARK VINA RESULT: -6.980317527      2.656      4.725
REMARK  9 active torsions:
REMARK  status: ('A' for Active; 'I' for Inactive)
REMARK    1  A    between atoms: N1_2  and  C2_4
REMARK    2  A    between atoms: C3_8  and  N3_9
REMARK    3  A    between atoms: N3_9  and  C4_11
REMARK    4  A    between atoms: C4_11  and  C5_12
REMARK    5  A    between atoms: C5_12  and  N4_13
REMARK    6  A    between atoms: N4_13  and  C6_15
REMARK    7  A    between atoms: C6_15  and  C7_16
REMARK    8  A    between atoms: C7_16  and  C8_17
REMARK    9  A    between atoms: C8_17  and  N5_18
ROOT
HETATM    1  C4  UNL     1      -4.276  -5.911  -6.891  1.00  0.00     0.141 C
ENDROOT
BRANCH   1   2
HETATM    2  N3  UNL     1      -5.547  -6.463  -6.420  1.00  0.00    -0.367 N
ATOM      3  H3  UNL     1      -5.765  -6.589  -5.432  1.00  0.00     0.161 HD
BRANCH   2   4
HETATM    4  C3  UNL     1      -6.383  -6.783  -7.385  1.00  0.00     0.176 A
HETATM    5  S1  UNL     1      -6.112  -6.981  -9.057  1.00  0.00     0.039 SA
HETATM    6  N2  UNL     1      -7.684  -7.377  -9.518  1.00  0.00    -0.157 N
HETATM    7  C2  UNL     1      -8.349  -7.339  -8.360  1.00  0.00     0.686 A
ATOM      8  H2  UNL     1      -8.040  -7.592 -10.450  1.00  0.00     0.193 HD
HETATM    9  N6  UNL     1      -7.691  -7.038  -7.280  1.00  0.00    -0.169 N
ATOM     10  H6  UNL     1      -8.160  -6.998  -6.376  1.00  0.00     0.186 HD
BRANCH   7  11
HETATM   11  N1  UNL     1      -9.646  -7.610  -8.374  1.00  0.00    -0.230 N
HETATM   12  C1  UNL     1     -10.250  -8.376  -9.440  1.00  0.00     0.165 C
ATOM     13  H1  UNL     1     -10.233  -7.269  -7.612  1.00  0.00     0.177 HD
ENDBRANCH   7  11
ENDBRANCH   2   4
ENDBRANCH   1   2
BRANCH   1  14
HETATM   14  C5  UNL     1      -3.175  -6.803  -6.415  1.00  0.00     0.133 C
BRANCH  14  15
HETATM   15  N4  UNL     1      -3.457  -7.482  -5.192  1.00  0.00    -0.420 N
ATOM     16  H4  UNL     1      -4.395  -7.525  -4.793  1.00  0.00     0.153 HD
BRANCH  15  17
HETATM   17  C6  UNL     1      -2.321  -8.102  -4.561  1.00  0.00     0.115 C
BRANCH  17  18
HETATM   18  C7  UNL     1      -1.118  -7.186  -4.507  1.00  0.00     0.038 C
BRANCH  18  19
HETATM   19  C8  UNL     1      -1.078  -6.415  -3.249  1.00  0.00     0.118 C
BRANCH  19  20
HETATM   20  N5  UNL     1      -1.613  -5.106  -3.275  1.00  0.00    -0.408 N
HETATM   21  C9  UNL     1      -1.158  -4.278  -4.331  1.00  0.00     0.143 C
HETATM   22  C10 UNL     1      -2.188  -3.494  -5.059  1.00  0.00     0.187 C
HETATM   23  O1  UNL     1      -3.158  -3.042  -4.178  1.00  0.00    -0.388 OA
HETATM   24  C11 UNL     1      -3.859  -4.195  -3.755  1.00  0.00     0.187 C
HETATM   25  C12 UNL     1      -2.902  -4.893  -2.779  1.00  0.00     0.143 C
ENDBRANCH  19  20
ENDBRANCH  18  19
ENDBRANCH  17  18
ENDBRANCH  15  17
ENDBRANCH  14  15
ENDBRANCH   1  14
TORSDOF 9
ENDMDL