MODEL 1
REMARK VINA RESULT: -8.291488440      0.000      0.000
REMARK  9 active torsions:
REMARK  status: ('A' for Active; 'I' for Inactive)
REMARK    1  A    between atoms: N1_2  and  C2_3
REMARK    2  A    between atoms: C2_3  and  C3_4
REMARK    3  A    between atoms: C3_4  and  C4_5
REMARK    4  A    between atoms: C4_5  and  N2_6
REMARK    5  A    between atoms: C7_12  and  C8_13
REMARK    6  A    between atoms: C8_13  and  O1_14
REMARK    7  A    between atoms: O1_14  and  C9_15
REMARK    8  A    between atoms: C10_17  and  C11_18
REMARK    9  A    between atoms: C11_18  and  O3_19
ROOT
HETATM    1  C1  UNL     1      -7.599  -9.105 -10.358  1.00  0.00     0.272 C
HETATM    2  N1  UNL     1      -8.368  -8.096  -9.667  1.00  0.00    -0.070 N
HETATM    3  C5  UNL     1      -7.880  -6.807 -10.037  1.00  0.00     0.237 C
HETATM    4  C6  UNL     1      -6.475  -6.804  -9.414  1.00  0.00     0.036 C
HETATM    5  C7  UNL     1      -6.626  -7.679  -8.198  1.00  0.00     0.037 C
HETATM    6  C14 UNL     1      -8.052  -8.112  -8.232  1.00  0.00     0.243 C
ENDROOT
BRANCH   5   7
HETATM    7  C8  UNL     1      -6.362  -6.811  -6.980  1.00  0.00     0.179 C
BRANCH   7   8
HETATM    8  O1  UNL     1      -5.411  -5.867  -7.346  1.00  0.00    -0.339 OA
BRANCH   8   9
HETATM    9  C9  UNL     1      -4.242  -6.128  -6.664  1.00  0.00     0.416 C
HETATM   10  O2  UNL     1      -4.568  -6.747  -5.460  1.00  0.00    -0.326 OA
HETATM   11  C10 UNL     1      -3.667  -6.280  -4.504  1.00  0.00     0.216 C
HETATM   12  C12 UNL     1      -3.376  -4.897  -5.001  1.00  0.00     0.233 C
HETATM   13  C13 UNL     1      -2.106  -4.261  -4.517  1.00  0.00     0.216 C
HETATM   14  O4  UNL     1      -4.004  -3.855  -4.340  1.00  0.00    -0.242 OA
HETATM   15  O5  UNL     1      -3.546  -4.965  -6.357  1.00  0.00    -0.296 OA
HETATM   16  N3  UNL     1      -2.929  -3.075  -4.690  1.00  0.00    -0.092 NA
BRANCH  11  17
HETATM   17  C11 UNL     1      -2.429  -7.143  -4.411  1.00  0.00     0.201 C
BRANCH  17  18
HETATM   18  O3  UNL     1      -2.859  -8.472  -4.426  1.00  0.00    -0.398 OA
ATOM     19  H3  UNL     1      -2.671  -8.813  -5.292  1.00  0.00     0.209 HD
ENDBRANCH  17  18
ENDBRANCH  11  17
ENDBRANCH   8   9
ENDBRANCH   7   8
ENDBRANCH   5   7
BRANCH   2  20
HETATM   20  C2  UNL     1      -9.770  -8.307  -9.795  1.00  0.00     0.238 C
BRANCH  20  21
HETATM   21  C3  UNL     1     -10.586  -8.316  -8.563  1.00  0.00     0.055 C
BRANCH  21  22
HETATM   22  C4  UNL     1     -12.005  -8.720  -8.667  1.00  0.00     0.231 C
BRANCH  22  23
HETATM   23  N2  UNL     1     -12.606  -9.078  -7.397  1.00  0.00    -0.079 N
ATOM     24  H23 UNL     1     -11.892  -9.172  -6.675  1.00  0.00     0.274 HD
ATOM     25  H22 UNL     1     -13.135  -8.293  -7.015  1.00  0.00     0.274 HD
ATOM     26  H21 UNL     1     -13.188  -9.916  -7.438  1.00  0.00     0.274 HD
ENDBRANCH  22  23
ENDBRANCH  21  22
ENDBRANCH  20  21
ENDBRANCH   2  20
TORSDOF 9
ENDMDL