MODEL 1
REMARK VINA RESULT: -8.168698259      0.000      0.000
REMARK  10 active torsions:
REMARK  status: ('A' for Active; 'I' for Inactive)
REMARK    1  A    between atoms: N1_2  and  C3_5
REMARK    2  A    between atoms: C3_5  and  C4_6
REMARK    3  A    between atoms: C4_6  and  C5_7
REMARK    4  A    between atoms: C5_7  and  N2_8
REMARK    5  A    between atoms: N2_8  and  C6_10
REMARK    6  A    between atoms: C10_20  and  N6_21
REMARK    7  A    between atoms: N7_24  and  C11_25
REMARK    8  A    between atoms: C11_25  and  C12_26
REMARK    9  A    between atoms: C12_26  and  C13_27
REMARK   10  A    between atoms: C13_27  and  O2_28
ROOT
HETATM    1  C6  UNL     1      -6.506  -6.884  -7.590  1.00  0.00     0.133 A
HETATM    2  N3  UNL     1      -5.699  -6.686  -8.689  1.00  0.00    -0.337 N
ATOM      3  H3  UNL     1      -4.733  -6.382  -8.568  1.00  0.00     0.168 HD
HETATM    4  C7  UNL     1      -6.187  -6.894  -9.909  1.00  0.00     0.183 A
HETATM    5  N4  UNL     1      -7.450  -7.293 -10.114  1.00  0.00    -0.336 N
ATOM      6  H4  UNL     1      -7.780  -7.440 -11.067  1.00  0.00     0.168 HD
HETATM    7  C8  UNL     1      -8.287  -7.504  -9.089  1.00  0.00     0.155 A
HETATM    8  C9  UNL     1      -7.827  -7.303  -7.802  1.00  0.00     0.137 A
HETATM    9  N5  UNL     1      -8.864  -7.585  -6.998  1.00  0.00    -0.184 N
ATOM     10  H5  UNL     1      -8.840  -7.529  -5.980  1.00  0.00     0.184 HD
HETATM   11  C10 UNL     1      -9.946  -7.953  -7.723  1.00  0.00     0.680 A
HETATM   12  N7  UNL     1      -9.577  -7.900  -9.004  1.00  0.00    -0.166 N
ENDROOT
BRANCH   1  13
HETATM   13  N2  UNL     1      -6.061  -6.697  -6.454  1.00  0.00    -0.374 N
ATOM     14  H2  UNL     1      -6.729  -7.040  -5.764  1.00  0.00     0.161 HD
BRANCH  13  15
HETATM   15  C5  UNL     1      -4.948  -6.171  -5.807  1.00  0.00     0.123 C
BRANCH  15  16
HETATM   16  C4  UNL     1      -3.667  -6.968  -6.088  1.00  0.00     0.056 C
BRANCH  16  17
HETATM   17  C3  UNL     1      -2.469  -6.460  -5.389  1.00  0.00     0.312 C
BRANCH  17  18
HETATM   18  N1  UNL     1      -1.755  -5.380  -5.973  1.00  0.00     0.005 N
HETATM   19  C1  UNL     1      -2.109  -4.089  -5.475  1.00  0.00     0.355 C
HETATM   20  C2  UNL     1      -1.778  -5.334  -7.418  1.00  0.00     0.355 C
HETATM   21  O1  UNL     1      -0.429  -5.587  -5.644  1.00  0.00    -0.065 OA
ENDBRANCH  17  18
ENDBRANCH  16  17
ENDBRANCH  15  16
ENDBRANCH  13  15
ENDBRANCH   1  13
BRANCH  12  22
HETATM   22  C11 UNL     1     -10.383  -8.156 -10.159  1.00  0.00     0.151 C
BRANCH  22  23
HETATM   23  C12 UNL     1     -10.677  -9.570 -10.467  1.00  0.00     0.047 C
BRANCH  23  24
HETATM   24  C13 UNL     1     -11.827 -10.222  -9.799  1.00  0.00     0.165 C
BRANCH  24  25
HETATM   25  O2  UNL     1     -11.411 -11.018  -8.743  1.00  0.00    -0.401 OA
ATOM     26  H2  UNL     1     -11.366 -10.523  -7.933  1.00  0.00     0.209 HD
ENDBRANCH  24  25
ENDBRANCH  23  24
ENDBRANCH  22  23
ENDBRANCH  12  22
BRANCH  11  27
HETATM   27  N6  UNL     1     -11.124  -8.261  -7.221  1.00  0.00    -0.234 N
ATOM     28  H62 UNL     1     -12.025  -7.819  -7.399  1.00  0.00     0.174 HD
ATOM     29  H61 UNL     1     -11.295  -8.999  -6.538  1.00  0.00     0.174 HD
ENDBRANCH  11  27
TORSDOF 10
ENDMDL