MODEL 4
REMARK VINA RESULT: -7.878454300      1.070      1.188
REMARK  9 active torsions:
REMARK  status: ('A' for Active; 'I' for Inactive)
REMARK    1  A    between atoms: C2_2  and  N1_3
REMARK    2  A    between atoms: N1_3  and  C3_5
REMARK    3  A    between atoms: C4_8  and  O1_9
REMARK    4  A    between atoms: O1_9  and  C5_10
REMARK    5  A    between atoms: C5_10  and  C6_11
REMARK    6  A    between atoms: C6_11  and  C7_12
REMARK    7  A    between atoms: C7_12  and  N3_13
REMARK    8  A    between atoms: C12_23  and  N6_24
REMARK    9  A    between atoms: N6_24  and  C13_26
ROOT
HETATM    1  C3  UNL     1      -9.191  -7.710  -7.408  1.00  0.00     0.695 A
HETATM    2  N2  UNL     1      -8.019  -7.124  -7.153  1.00  0.00    -0.154 N
ATOM      3  H2  UNL     1      -7.822  -6.873  -6.185  1.00  0.00     0.188 HD
HETATM    4  C4  UNL     1      -7.084  -6.840  -8.059  1.00  0.00     0.252 A
HETATM    5  N5  UNL     1      -7.375  -7.185  -9.352  1.00  0.00    -0.154 N
ATOM      6  H5  UNL     1      -6.703  -6.993 -10.094  1.00  0.00     0.188 HD
HETATM    7  C12 UNL     1      -8.546  -7.776  -9.645  1.00  0.00     0.695 A
HETATM    8  N7  UNL     1      -9.466  -8.045  -8.677  1.00  0.00    -0.022 N
ATOM      9  H7  UNL     1     -10.351  -8.493  -8.914  1.00  0.00     0.203 HD
ENDROOT
BRANCH   4  10
HETATM   10  O1  UNL     1      -5.883  -6.247  -7.842  1.00  0.00    -0.321 OA
BRANCH  10  11
HETATM   11  C5  UNL     1      -4.727  -6.272  -8.632  1.00  0.00     0.180 C
BRANCH  11  12
HETATM   12  C6  UNL     1      -3.702  -5.357  -8.063  1.00  0.00     0.057 C
BRANCH  12  13
HETATM   13  C7  UNL     1      -3.623  -5.423  -6.553  1.00  0.00     0.274 C
BRANCH  13  14
HETATM   14  N3  UNL     1      -2.687  -6.421  -6.086  1.00  0.00     0.091 N
HETATM   15  C8  UNL     1      -3.327  -7.184  -5.043  1.00  0.00     0.300 C
HETATM   16  C9  UNL     1      -2.446  -8.265  -4.474  1.00  0.00     0.262 C
HETATM   17  N4  UNL     1      -1.083  -7.880  -4.332  1.00  0.00    -0.072 N
HETATM   18  C10 UNL     1      -0.853  -6.461  -4.448  1.00  0.00     0.262 C
ATOM     19  H42 UNL     1      -0.702  -8.232  -3.454  1.00  0.00     0.277 HD
ATOM     20  H41 UNL     1      -0.497  -8.391  -4.993  1.00  0.00     0.277 HD
HETATM   21  C11 UNL     1      -1.425  -5.863  -5.690  1.00  0.00     0.300 C
ENDBRANCH  13  14
ENDBRANCH  12  13
ENDBRANCH  11  12
ENDBRANCH  10  11
ENDBRANCH   4  10
BRANCH   1  22
HETATM   22  N1  UNL     1     -10.010  -7.932  -6.445  1.00  0.00    -0.226 N
ATOM     23  H1  UNL     1      -9.883  -7.390  -5.590  1.00  0.00     0.177 HD
BRANCH  22  24
HETATM   24  C2  UNL     1     -11.090  -8.879  -6.467  1.00  0.00     0.133 C
HETATM   25  C1  UNL     1     -10.721 -10.175  -5.780  1.00  0.00     0.027 C
ENDBRANCH  22  24
ENDBRANCH   1  22
BRANCH   7  26
HETATM   26  N6  UNL     1      -8.883  -8.127 -10.840  1.00  0.00    -0.226 N
ATOM     27  H6  UNL     1      -8.499  -7.648 -11.654  1.00  0.00     0.177 HD
BRANCH  26  28
HETATM   28  C13 UNL     1      -9.816  -9.214 -10.994  1.00  0.00     0.133 C
HETATM   29  C14 UNL     1     -11.237  -8.692 -11.026  1.00  0.00     0.027 C
ENDBRANCH  26  28
ENDBRANCH   7  26
TORSDOF 9
ENDMDL