MODEL 4
REMARK VINA RESULT: -9.076162486      1.999      2.960
REMARK  13 active torsions:
REMARK  status: ('A' for Active; 'I' for Inactive)
REMARK    1  A    between atoms: C1_2  and  C2_4
REMARK    2  A    between atoms: C6_11  and  C7_12
REMARK    3  A    between atoms: C7_12  and  C8_13
REMARK    4  A    between atoms: C8_13  and  C9_14
REMARK    5  A    between atoms: C9_14  and  C10_15
REMARK    6  A    between atoms: C10_15  and  C11_16
REMARK    7  A    between atoms: C11_16  and  C12_17
REMARK    8  A    between atoms: C12_17  and  C13_18
REMARK    9  A    between atoms: C13_18  and  C14_19
REMARK   10  A    between atoms: C14_19  and  C15_20
REMARK   11  A    between atoms: C18_31  and  C19_32
REMARK   12  A    between atoms: C19_32  and  C20_33
REMARK   13  A    between atoms: C20_33  and  C21_34
ROOT
HETATM    1  C2  UNL     1       3.957 -14.544 -22.644  1.00  0.00     0.174 C
HETATM    2  C3  UNL     1       4.162 -13.454 -23.714  1.00  0.00     0.043 C
HETATM    3  C4  UNL     1       4.435 -12.149 -23.114  1.00  0.00     0.105 C
HETATM    4  C5  UNL     1       5.729 -11.504 -23.315  1.00  0.00     0.218 C
HETATM    5  O2  UNL     1       5.772 -10.338 -22.749  1.00  0.00    -0.274 OA
HETATM    6  N2  UNL     1       6.883 -11.885 -23.973  1.00  0.00    -0.348 N
ATOM      7  H2  UNL     1       7.734 -11.768 -23.422  1.00  0.00     0.163 HD
HETATM    8  C6  UNL     1       7.106 -12.413 -25.287  1.00  0.00     0.177 C
HETATM    9  C16 UNL     1       7.831 -13.670 -25.378  1.00  0.00     0.248 C
HETATM   10  O5  UNL     1       7.415 -14.434 -26.301  1.00  0.00    -0.271 OA
HETATM   11  N3  UNL     1       8.904 -14.150 -24.609  1.00  0.00    -0.278 N
ATOM     12  H3  UNL     1       9.653 -14.596 -25.138  1.00  0.00     0.173 HD
HETATM   13  C17 UNL     1       9.097 -14.107 -23.211  1.00  0.00     0.323 C
HETATM   14  O6  UNL     1      10.219 -13.593 -22.830  1.00  0.00    -0.247 OA
HETATM   15  N4  UNL     1       8.286 -14.526 -22.157  1.00  0.00    -0.330 N
ATOM     16  H4  UNL     1       8.579 -14.296 -21.208  1.00  0.00     0.165 HD
HETATM   17  C18 UNL     1       7.011 -15.292 -22.331  1.00  0.00     0.178 C
HETATM   18  C22 UNL     1       6.121 -14.740 -21.332  1.00  0.00     0.241 C
HETATM   19  O9  UNL     1       6.612 -14.596 -20.152  1.00  0.00    -0.271 OA
HETATM   20  N5  UNL     1       4.773 -14.332 -21.490  1.00  0.00    -0.346 N
ATOM     21  H5  UNL     1       4.345 -13.840 -20.706  1.00  0.00     0.163 HD
ENDROOT
BRANCH   8  22
HETATM   22  C7  UNL     1       7.901 -11.386 -26.120  1.00  0.00     0.035 C
BRANCH  22  23
HETATM   23  C8  UNL     1       7.027 -10.647 -27.083  1.00  0.00     0.002 C
BRANCH  23  24
HETATM   24  C9  UNL     1       6.489  -9.418 -26.392  1.00  0.00     0.000 C
BRANCH  24  25
HETATM   25  C10 UNL     1       5.094  -9.092 -26.811  1.00  0.00     0.000 C
BRANCH  25  26
HETATM   26  C11 UNL     1       4.146 -10.203 -26.432  1.00  0.00     0.000 C
BRANCH  26  27
HETATM   27  C12 UNL     1       3.301 -10.688 -27.595  1.00  0.00     0.001 C
BRANCH  27  28
HETATM   28  C13 UNL     1       3.049 -12.159 -27.539  1.00  0.00     0.010 C
BRANCH  28  29
HETATM   29  C14 UNL     1       4.257 -13.010 -27.403  1.00  0.00     0.113 C
BRANCH  29  30
HETATM   30  C15 UNL     1       4.849 -13.475 -28.662  1.00  0.00     0.172 C
HETATM   31  O3  UNL     1       5.704 -12.807 -29.279  1.00  0.00    -0.648 OA
HETATM   32  O4  UNL     1       4.444 -14.714 -29.196  1.00  0.00    -0.648 OA
ENDBRANCH  29  30
ENDBRANCH  28  29
ENDBRANCH  27  28
ENDBRANCH  26  27
ENDBRANCH  25  26
ENDBRANCH  24  25
ENDBRANCH  23  24
ENDBRANCH  22  23
ENDBRANCH   8  22
BRANCH   1  33
HETATM   33  C1  UNL     1       2.500 -14.569 -22.261  1.00  0.00     0.254 C
HETATM   34  N1  UNL     1       1.598 -15.422 -22.944  1.00  0.00    -0.060 NA
HETATM   35  O1  UNL     1       2.080 -13.849 -21.352  1.00  0.00    -0.275 OA
ENDBRANCH   1  33
BRANCH  17  36
HETATM   36  C19 UNL     1       7.418 -16.700 -22.094  1.00  0.00     0.045 C
BRANCH  36  37
HETATM   37  C20 UNL     1       6.464 -17.801 -22.175  1.00  0.00     0.116 C
BRANCH  37  38
HETATM   38  C21 UNL     1       5.379 -18.006 -21.262  1.00  0.00     0.172 C
HETATM   39  O7  UNL     1       4.201 -17.666 -21.362  1.00  0.00    -0.648 OA
HETATM   40  O8  UNL     1       5.685 -18.701 -20.059  1.00  0.00    -0.648 OA
ENDBRANCH  37  38
ENDBRANCH  36  37
ENDBRANCH  17  36
TORSDOF 13
ENDMDL