MODEL 1
REMARK VINA RESULT: -9.946324524      0.000      0.000
REMARK  14 active torsions:
REMARK  status: ('A' for Active; 'I' for Inactive)
REMARK    1  A    between atoms: C2_2  and  C3_4
REMARK    2  A    between atoms: C3_4  and  C4_5
REMARK    3  A    between atoms: C4_5  and  C5_6
REMARK    4  A    between atoms: C5_6  and  N1_7
REMARK    5  A    between atoms: C5_6  and  C18_30
REMARK    6  A    between atoms: N1_7  and  S1_9
REMARK    7  A    between atoms: S1_9  and  N2_12
REMARK    8  A    between atoms: N2_12  and  C6_14
REMARK    9  A    between atoms: C9_17  and  O4_18
REMARK   10  A    between atoms: C18_30  and  O5_31
REMARK   11  A    between atoms: C18_30  and  C19_33
REMARK   12  A    between atoms: C19_33  and  C20_34
REMARK   13  A    between atoms: C20_34  and  C21_35
REMARK   14  A    between atoms: C21_35  and  N4_36
ROOT
HETATM    1  S1  UNL     1       0.951 -16.333 -22.260  1.00  0.00     0.315 S
HETATM    2  O2  UNL     1       0.877 -17.324 -21.139  1.00  0.00    -0.183 OA
HETATM    3  O3  UNL     1       0.762 -14.974 -21.593  1.00  0.00    -0.183 OA
ENDROOT
BRANCH   1   4
HETATM    4  N1  UNL     1      -0.268 -16.500 -23.438  1.00  0.00    -0.296 N
ATOM      5  H1  UNL     1      -0.071 -16.391 -24.433  1.00  0.00     0.174 HD
BRANCH   4   6
HETATM    6  C5  UNL     1      -1.575 -16.801 -22.964  1.00  0.00     0.123 C
BRANCH   6   7
HETATM    7  C4  UNL     1      -2.633 -15.861 -23.433  1.00  0.00     0.036 C
BRANCH   7   8
HETATM    8  C3  UNL     1      -3.058 -14.849 -22.431  1.00  0.00     0.080 C
BRANCH   8   9
HETATM    9  C2  UNL     1      -4.045 -15.322 -21.444  1.00  0.00     0.123 C
HETATM   10  C1  UNL     1      -5.330 -15.896 -22.000  1.00  0.00     0.091 C
HETATM   11  O1  UNL     1      -3.911 -15.288 -20.252  1.00  0.00    -0.298 OA
ENDBRANCH   8   9
ENDBRANCH   7   8
ENDBRANCH   6   7
BRANCH   6  12
HETATM   12  C18 UNL     1      -1.940 -18.235 -23.390  1.00  0.00     0.141 C
BRANCH  12  13
HETATM   13  O5  UNL     1      -0.723 -18.984 -23.152  1.00  0.00    -0.393 OA
ATOM     14  H5  UNL     1      -0.885 -19.817 -23.577  1.00  0.00     0.210 HD
ENDBRANCH  12  13
BRANCH  12  15
HETATM   15  C19 UNL     1      -2.994 -18.885 -22.581  1.00  0.00     0.035 C
BRANCH  15  16
HETATM   16  C20 UNL     1      -4.159 -19.375 -23.357  1.00  0.00     0.022 C
BRANCH  16  17
HETATM   17  C21 UNL     1      -4.499 -20.781 -22.762  1.00  0.00     0.122 C
BRANCH  17  18
HETATM   18  N4  UNL     1      -4.563 -20.567 -21.316  1.00  0.00    -0.367 N
HETATM   19  C22 UNL     1      -5.039 -21.487 -20.551  1.00  0.00     0.196 C
HETATM   20  N5  UNL     1      -5.518 -22.730 -21.047  1.00  0.00    -0.067 NA
HETATM   21  N6  UNL     1      -5.086 -21.252 -19.158  1.00  0.00    -0.067 NA
ATOM     22  H4  UNL     1      -4.230 -19.690 -20.914  1.00  0.00     0.161 HD
ENDBRANCH  17  18
ENDBRANCH  16  17
ENDBRANCH  15  16
ENDBRANCH  12  15
ENDBRANCH   6  12
ENDBRANCH   4   6
ENDBRANCH   1   4
BRANCH   1  23
HETATM   23  N2  UNL     1       2.545 -16.378 -22.989  1.00  0.00    -0.298 N
ATOM     24  H2  UNL     1       2.750 -16.085 -23.944  1.00  0.00     0.174 HD
BRANCH  23  25
HETATM   25  C6  UNL     1       3.542 -16.887 -22.054  1.00  0.00     0.096 C
HETATM   26  C7  UNL     1       3.890 -15.831 -21.056  1.00  0.00     0.029 C
HETATM   27  C8  UNL     1       5.358 -15.748 -20.721  1.00  0.00     0.042 C
HETATM   28  C9  UNL     1       5.931 -17.149 -20.710  1.00  0.00     0.082 C
HETATM   29  C10 UNL     1       7.301 -17.211 -20.094  1.00  0.00     0.024 C
HETATM   30  C16 UNL     1       5.965 -17.628 -22.120  1.00  0.00     0.113 C
HETATM   31  C11 UNL     1       7.745 -18.617 -19.944  1.00  0.00     0.008 C
HETATM   32  C15 UNL     1       8.264 -16.370 -20.901  1.00  0.00     0.032 C
HETATM   33  C12 UNL     1       8.846 -19.065 -20.838  1.00  0.00     0.002 C
HETATM   34  C13 UNL     1       9.053 -18.324 -22.088  1.00  0.00     0.024 C
HETATM   35  C14 UNL     1       8.322 -17.045 -22.255  1.00  0.00     0.077 C
HETATM   36  N3  UNL     1       7.061 -17.133 -22.895  1.00  0.00    -0.410 N
ATOM     37  H3  UNL     1       6.940 -16.855 -23.869  1.00  0.00     0.154 HD
HETATM   38  C17 UNL     1       4.709 -17.317 -22.893  1.00  0.00     0.053 C
BRANCH  28  39
HETATM   39  O4  UNL     1       5.122 -18.006 -19.936  1.00  0.00    -0.387 OA
ATOM     40  H4  UNL     1       4.509 -18.473 -20.491  1.00  0.00     0.210 HD
ENDBRANCH  28  39
ENDBRANCH  23  25
ENDBRANCH   1  23
TORSDOF 14
ENDMDL