MODEL 3
REMARK VINA RESULT: -7.712768226      2.824      8.076
REMARK  17 active torsions:
REMARK  status: ('A' for Active; 'I' for Inactive)
REMARK    1  A    between atoms: N1_2  and  C2_3
REMARK       I    between atoms: N1_2  and  C7_14
REMARK    2  A    between atoms: C2_3  and  C3_4
REMARK    3  A    between atoms: C3_4  and  N2_5
REMARK    4  A    between atoms: N2_5  and  C4_7
REMARK    5  A    between atoms: C4_7  and  C5_8
REMARK    6  A    between atoms: C5_8  and  C6_9
REMARK    7  A    between atoms: C6_9  and  N3_10
REMARK    8  A    between atoms: N5_16  and  C8_18
REMARK    9  A    between atoms: C11_21  and  N6_22
REMARK   10  A    between atoms: N6_22  and  C12_23
REMARK   11  A    between atoms: N6_22  and  S1_43
REMARK   12  A    between atoms: C12_23  and  C13_24
REMARK   13  A    between atoms: C15_28  and  N8_29
REMARK   14  A    between atoms: C16_34  and  N10_35
REMARK   15  A    between atoms: N10_35  and  C17_37
REMARK   16  A    between atoms: C17_37  and  C18_38
REMARK   17  A    between atoms: C18_38  and  N11_39
ROOT
HETATM    1  N6  UNL     1       5.779 -12.318 -24.977  1.00  0.00    -0.250 N
ENDROOT
BRANCH   1   2
HETATM    2  C11 UNL     1       6.347 -13.197 -23.994  1.00  0.00     0.049 A
HETATM    3  C10 UNL     1       7.298 -14.120 -24.431  1.00  0.00     0.033 A
HETATM    4  C9  UNL     1       7.845 -14.999 -23.558  1.00  0.00     0.032 A
HETATM    5  C8  UNL     1       7.509 -15.034 -22.234  1.00  0.00     0.034 A
HETATM    6  C21 UNL     1       6.554 -14.110 -21.782  1.00  0.00     0.032 A
HETATM    7  C20 UNL     1       6.003 -13.220 -22.676  1.00  0.00     0.033 A
BRANCH   5   8
HETATM    8  N5  UNL     1       8.054 -15.973 -21.325  1.00  0.00    -0.331 N
HETATM    9  C7  UNL     1       7.600 -17.047 -20.857  1.00  0.00     0.190 C
HETATM   10  N1  UNL     1       6.371 -17.698 -21.074  1.00  0.00    -0.355 N
HETATM   11  N4  UNL     1       8.511 -17.683 -19.903  1.00  0.00    -0.063 NA
HETATM   12  C1  UNL     1       5.596 -18.070 -19.876  1.00  0.00     0.152 C
ATOM     13  H5  UNL     1       8.987 -15.733 -20.989  1.00  0.00     0.168 HD
BRANCH  10  14
HETATM   14  C2  UNL     1       5.757 -17.970 -22.329  1.00  0.00     0.169 C
BRANCH  14  15
HETATM   15  C3  UNL     1       4.499 -17.336 -22.729  1.00  0.00     0.075 C
BRANCH  15  16
HETATM   16  N2  UNL     1       4.411 -16.326 -23.702  1.00  0.00    -0.401 N
ATOM     17  H2  UNL     1       5.214 -16.070 -24.277  1.00  0.00     0.158 HD
BRANCH  16  18
HETATM   18  C4  UNL     1       3.159 -15.682 -23.849  1.00  0.00     0.120 C
BRANCH  18  19
HETATM   19  C5  UNL     1       2.408 -15.593 -22.517  1.00  0.00     0.047 C
BRANCH  19  20
HETATM   20  C6  UNL     1       1.017 -16.150 -22.652  1.00  0.00     0.231 C
BRANCH  20  21
HETATM   21  N3  UNL     1       0.822 -16.471 -24.074  1.00  0.00    -0.079 N
ATOM     22  H33 UNL     1       1.294 -15.819 -24.701  1.00  0.00     0.274 HD
ATOM     23  H32 UNL     1       1.316 -17.313 -24.367  1.00  0.00     0.274 HD
ATOM     24  H31 UNL     1      -0.185 -16.522 -24.231  1.00  0.00     0.274 HD
ENDBRANCH  20  21
ENDBRANCH  19  20
ENDBRANCH  18  19
ENDBRANCH  16  18
ENDBRANCH  15  16
ENDBRANCH  14  15
ENDBRANCH  10  14
ENDBRANCH   5   8
ENDBRANCH   1   2
BRANCH   1  25
HETATM   25  C12 UNL     1       4.426 -12.489 -25.383  1.00  0.00     0.126 C
BRANCH  25  26
HETATM   26  C13 UNL     1       4.172 -12.942 -26.735  1.00  0.00     0.041 A
HETATM   27  C14 UNL     1       4.454 -14.216 -27.147  1.00  0.00     0.122 A
HETATM   28  N7  UNL     1       4.184 -14.588 -28.436  1.00  0.00    -0.201 N
HETATM   29  C15 UNL     1       3.646 -13.695 -29.275  1.00  0.00     0.677 A
ATOM     30  H7  UNL     1       4.391 -15.535 -28.754  1.00  0.00     0.183 HD
HETATM   31  N9  UNL     1       3.365 -12.432 -28.874  1.00  0.00    -0.176 N
HETATM   32  C16 UNL     1       3.599 -12.003 -27.641  1.00  0.00     0.130 A
ATOM     33  H9  UNL     1       2.956 -11.784 -29.547  1.00  0.00     0.186 HD
BRANCH  29  34
HETATM   34  N8  UNL     1       3.390 -14.049 -30.488  1.00  0.00    -0.234 N
ATOM     35  H82 UNL     1       2.432 -14.275 -30.755  1.00  0.00     0.174 HD
ATOM     36  H81 UNL     1       4.153 -14.099 -31.162  1.00  0.00     0.174 HD
ENDBRANCH  29  34
BRANCH  32  37
HETATM   37  N10 UNL     1       3.365 -10.847 -27.188  1.00  0.00    -0.373 N
ATOM     38  H10 UNL     1       3.549 -10.728 -26.192  1.00  0.00     0.161 HD
BRANCH  37  39
HETATM   39  C17 UNL     1       2.884  -9.690 -27.853  1.00  0.00     0.148 C
BRANCH  39  40
HETATM   40  C18 UNL     1       4.021  -8.715 -28.130  1.00  0.00     0.249 C
BRANCH  40  41
HETATM   41  N11 UNL     1       5.230  -9.372 -28.540  1.00  0.00    -0.078 N
ATOM     42 3H11 UNL     1       5.487 -10.108 -27.882  1.00  0.00     0.274 HD
ATOM     43 2H11 UNL     1       5.071  -9.942 -29.371  1.00  0.00     0.274 HD
ATOM     44 1H11 UNL     1       6.003  -8.723 -28.684  1.00  0.00     0.274 HD
ENDBRANCH  40  41
ENDBRANCH  39  40
ENDBRANCH  37  39
ENDBRANCH  32  37
ENDBRANCH  25  26
ENDBRANCH   1  25
BRANCH   1  45
HETATM   45  S1  UNL     1       6.837 -11.164 -25.755  1.00  0.00     0.233 S
HETATM   46  C19 UNL     1       8.339 -10.910 -24.895  1.00  0.00     0.186 C
HETATM   47  O1  UNL     1       6.087  -9.850 -25.782  1.00  0.00    -0.206 OA
HETATM   48  O2  UNL     1       7.085 -11.552 -27.189  1.00  0.00    -0.206 OA
ENDBRANCH   1  45
TORSDOF 17
ENDMDL