MODEL 2
REMARK VINA RESULT: -7.992761193      2.903      4.226
REMARK  14 active torsions:
REMARK  status: ('A' for Active; 'I' for Inactive)
REMARK    1  A    between atoms: N1_1  and  C1_5
REMARK    2  A    between atoms: C1_5  and  C2_6
REMARK    3  A    between atoms: C2_6  and  C3_7
REMARK    4  A    between atoms: C5_12  and  C6_13
REMARK    5  A    between atoms: C6_13  and  C7_14
REMARK    6  A    between atoms: C7_14  and  C8_15
REMARK    7  A    between atoms: C8_15  and  N3_16
REMARK    8  A    between atoms: C15_28  and  C16_29
REMARK    9  A    between atoms: C16_29  and  C17_30
REMARK   10  A    between atoms: C17_30  and  C18_31
REMARK   11  A    between atoms: C18_31  and  C19_32
REMARK   12  A    between atoms: C19_32  and  C20_33
REMARK       I    between atoms: C20_33  and  N7_35
REMARK   13  A    between atoms: N7_35  and  C21_37
REMARK   14  A    between atoms: C21_37  and  C22_38
ROOT
HETATM    1  C3  UNL     1       5.106 -13.145 -23.778  1.00  0.00     0.178 C
HETATM    2  N2  UNL     1       5.808 -14.356 -23.491  1.00  0.00    -0.342 N
ATOM      3  H2  UNL     1       5.364 -15.216 -23.810  1.00  0.00     0.163 HD
HETATM    4  C4  UNL     1       7.044 -14.508 -22.817  1.00  0.00     0.268 C
HETATM    5  O1  UNL     1       7.724 -15.537 -23.172  1.00  0.00    -0.266 OA
HETATM    6  C5  UNL     1       7.612 -13.654 -21.786  1.00  0.00     0.096 C
HETATM    7  N6  UNL     1       8.374 -14.423 -20.789  1.00  0.00    -0.362 N
ATOM      8  H6  UNL     1       9.138 -15.004 -21.135  1.00  0.00     0.165 HD
HETATM    9  C10 UNL     1       8.144 -14.430 -19.398  1.00  0.00     0.084 C
HETATM   10  C11 UNL     1       7.123 -14.921 -18.734  1.00  0.00    -0.010 C
HETATM   11  C12 UNL     1       5.930 -15.608 -19.253  1.00  0.00     0.028 C
HETATM   12  C13 UNL     1       4.668 -14.977 -18.727  1.00  0.00     0.006 C
HETATM   13  C14 UNL     1       4.095 -13.907 -19.585  1.00  0.00     0.025 C
HETATM   14  C15 UNL     1       3.598 -14.325 -20.929  1.00  0.00     0.084 C
HETATM   15  N8  UNL     1       3.438 -13.179 -21.796  1.00  0.00    -0.355 N
ATOM     16  H8  UNL     1       2.509 -12.760 -21.793  1.00  0.00     0.162 HD
HETATM   17  C23 UNL     1       4.358 -12.565 -22.631  1.00  0.00     0.240 C
HETATM   18  O4  UNL     1       4.596 -11.318 -22.378  1.00  0.00    -0.271 OA
ENDROOT
BRANCH  14  19
HETATM   19  C16 UNL     1       2.333 -15.152 -20.845  1.00  0.00     0.025 C
BRANCH  19  20
HETATM   20  C17 UNL     1       2.464 -16.554 -21.325  1.00  0.00     0.002 C
BRANCH  20  21
HETATM   21  C18 UNL     1       2.013 -16.712 -22.760  1.00  0.00     0.009 C
BRANCH  21  22
HETATM   22  C19 UNL     1       0.649 -16.177 -23.033  1.00  0.00     0.103 C
BRANCH  22  23
HETATM   23  C20 UNL     1      -0.353 -17.245 -22.716  1.00  0.00     0.217 C
HETATM   24  O2  UNL     1      -0.433 -17.718 -21.551  1.00  0.00    -0.274 OA
HETATM   25  N7  UNL     1      -1.232 -17.751 -23.712  1.00  0.00    -0.355 N
ATOM     26  H7  UNL     1      -1.165 -17.365 -24.654  1.00  0.00     0.162 HD
BRANCH  25  27
HETATM   27  C21 UNL     1      -2.204 -18.770 -23.468  1.00  0.00     0.192 C
BRANCH  27  28
HETATM   28  C22 UNL     1      -3.607 -18.339 -23.611  1.00  0.00     0.250 C
HETATM   29  O3  UNL     1      -4.478 -19.042 -24.056  1.00  0.00    -0.305 OA
ENDBRANCH  27  28
ENDBRANCH  25  27
ENDBRANCH  22  23
ENDBRANCH  21  22
ENDBRANCH  20  21
ENDBRANCH  19  20
ENDBRANCH  14  19
BRANCH   1  30
HETATM   30  C2  UNL     1       4.154 -13.233 -24.955  1.00  0.00     0.062 C
BRANCH  30  31
HETATM   31  C1  UNL     1       4.174 -12.106 -25.907  1.00  0.00     0.232 C
BRANCH  31  32
HETATM   32  N1  UNL     1       5.051 -11.038 -25.569  1.00  0.00    -0.079 N
ATOM     33  H13 UNL     1       4.664 -10.498 -24.796  1.00  0.00     0.274 HD
ATOM     34  H12 UNL     1       5.895 -11.405 -25.128  1.00  0.00     0.274 HD
ATOM     35  H11 UNL     1       5.300 -10.418 -26.339  1.00  0.00     0.274 HD
ENDBRANCH  31  32
ENDBRANCH  30  31
ENDBRANCH   1  30
BRANCH   6  36
HETATM   36  C6  UNL     1       8.253 -12.410 -22.168  1.00  0.00     0.010 C
BRANCH  36  37
HETATM   37  C7  UNL     1       9.549 -12.288 -22.829  1.00  0.00     0.049 C
BRANCH  37  38
HETATM   38  C8  UNL     1       9.615 -12.133 -24.308  1.00  0.00     0.126 C
BRANCH  38  39
HETATM   39  N3  UNL     1       8.828 -13.083 -25.021  1.00  0.00    -0.367 N
HETATM   40  C9  UNL     1       8.087 -13.087 -25.997  1.00  0.00     0.196 C
HETATM   41  N4  UNL     1       7.477 -14.349 -26.371  1.00  0.00    -0.067 NA
HETATM   42  N5  UNL     1       7.749 -11.990 -26.815  1.00  0.00    -0.067 NA
ATOM     43  H3  UNL     1       8.902 -14.012 -24.606  1.00  0.00     0.161 HD
ENDBRANCH  38  39
ENDBRANCH  37  38
ENDBRANCH  36  37
ENDBRANCH   6  36
TORSDOF 14
ENDMDL