MODEL 3
REMARK VINA RESULT: -8.304832070      1.086      1.195
REMARK  15 active torsions:
REMARK  status: ('A' for Active; 'I' for Inactive)
REMARK    1  A    between atoms: C2_2  and  C3_4
REMARK    2  A    between atoms: C3_4  and  C4_5
REMARK    3  A    between atoms: C4_5  and  C5_6
REMARK    4  A    between atoms: C5_6  and  C6_7
REMARK    5  A    between atoms: C6_7  and  C7_8
REMARK    6  A    between atoms: C7_8  and  C8_9
REMARK    7  A    between atoms: C10_14  and  C11_15
REMARK    8  A    between atoms: C11_15  and  C12_16
REMARK    9  A    between atoms: C12_16  and  C13_17
REMARK   10  A    between atoms: C13_17  and  N2_18
REMARK   11  A    between atoms: C16_27  and  C17_28
REMARK   12  A    between atoms: C17_28  and  C18_29
REMARK   13  A    between atoms: C18_29  and  C19_30
REMARK   14  A    between atoms: C19_30  and  N6_31
REMARK   15  A    between atoms: C19_30  and  O4_35
ROOT
HETATM    1  C8  UNL     1       3.933 -14.000 -23.634  1.00  0.00     0.176 C
HETATM    2  N1  UNL     1       4.455 -13.078 -22.680  1.00  0.00    -0.346 N
ATOM      3  H1  UNL     1       4.306 -13.324 -21.702  1.00  0.00     0.163 HD
HETATM    4  C9  UNL     1       5.147 -11.872 -22.906  1.00  0.00     0.241 C
HETATM    5  O2  UNL     1       4.713 -10.780 -22.382  1.00  0.00    -0.271 OA
HETATM    6  C10 UNL     1       6.381 -11.694 -23.713  1.00  0.00     0.176 C
HETATM    7  N5  UNL     1       6.392 -10.468 -24.486  1.00  0.00    -0.347 N
ATOM      8  H5  UNL     1       6.362  -9.599 -23.954  1.00  0.00     0.163 HD
HETATM    9  C15 UNL     1       6.441 -10.341 -25.886  1.00  0.00     0.222 C
HETATM   10  O3  UNL     1       7.389  -9.633 -26.392  1.00  0.00    -0.273 OA
HETATM   11  C16 UNL     1       5.519 -10.928 -26.882  1.00  0.00     0.078 C
HETATM   12  C20 UNL     1       5.941 -12.298 -27.370  1.00  0.00     0.015 C
HETATM   13  C21 UNL     1       4.775 -13.114 -27.880  1.00  0.00     0.020 C
HETATM   14  C22 UNL     1       4.004 -13.651 -26.685  1.00  0.00     0.122 C
HETATM   15  N7  UNL     1       4.861 -14.538 -25.959  1.00  0.00    -0.359 N
ATOM     16  H7  UNL     1       5.494 -15.132 -26.495  1.00  0.00     0.162 HD
HETATM   17  C23 UNL     1       4.893 -14.649 -24.523  1.00  0.00     0.240 C
HETATM   18  O5  UNL     1       5.855 -15.380 -24.100  1.00  0.00    -0.271 OA
ENDROOT
BRANCH  11  19
HETATM   19  C17 UNL     1       5.403 -10.072 -28.128  1.00  0.00     0.018 C
BRANCH  19  20
HETATM   20  C18 UNL     1       4.233  -9.130 -28.112  1.00  0.00     0.062 C
BRANCH  20  21
HETATM   21  C19 UNL     1       2.982  -9.962 -27.829  1.00  0.00     0.316 C
BRANCH  21  22
HETATM   22  N6  UNL     1       2.543 -10.583 -29.079  1.00  0.00    -0.053 N
ATOM     23  H63 UNL     1       2.089  -9.919 -29.706  1.00  0.00     0.277 HD
ATOM     24  H62 UNL     1       3.323 -10.837 -29.684  1.00  0.00     0.277 HD
ATOM     25  H61 UNL     1       1.948 -11.379 -28.853  1.00  0.00     0.277 HD
ENDBRANCH  21  22
BRANCH  21  26
HETATM   26  O4  UNL     1       1.960  -9.206 -27.312  1.00  0.00    -0.370 OA
ATOM     27  H4  UNL     1       1.239  -9.740 -26.998  1.00  0.00     0.212 HD
ENDBRANCH  21  26
ENDBRANCH  20  21
ENDBRANCH  19  20
ENDBRANCH  11  19
BRANCH   6  28
HETATM   28  C11 UNL     1       7.618 -11.664 -22.805  1.00  0.00     0.036 C
BRANCH  28  29
HETATM   29  C12 UNL     1       8.666 -12.630 -23.225  1.00  0.00     0.022 C
BRANCH  29  30
HETATM   30  C13 UNL     1       8.855 -13.607 -22.053  1.00  0.00     0.122 C
BRANCH  30  31
HETATM   31  N2  UNL     1       8.424 -14.891 -22.514  1.00  0.00    -0.367 N
HETATM   32  C14 UNL     1       8.911 -16.021 -22.165  1.00  0.00     0.196 C
HETATM   33  N3  UNL     1       8.333 -17.185 -22.745  1.00  0.00    -0.067 NA
HETATM   34  N4  UNL     1       9.978 -16.139 -21.244  1.00  0.00    -0.067 NA
ATOM     35  H2  UNL     1       7.655 -14.906 -23.184  1.00  0.00     0.161 HD
ENDBRANCH  30  31
ENDBRANCH  29  30
ENDBRANCH  28  29
ENDBRANCH   6  28
BRANCH   1  36
HETATM   36  C7  UNL     1       3.100 -15.070 -22.959  1.00  0.00     0.035 C
BRANCH  36  37
HETATM   37  C6  UNL     1       2.293 -14.617 -21.803  1.00  0.00     0.002 C
BRANCH  37  38
HETATM   38  C5  UNL     1       2.791 -15.283 -20.537  1.00  0.00     0.000 C
BRANCH  38  39
HETATM   39  C4  UNL     1       3.215 -14.336 -19.468  1.00  0.00     0.007 C
BRANCH  39  40
HETATM   40  C3  UNL     1       4.435 -14.857 -18.741  1.00  0.00     0.077 C
BRANCH  40  41
HETATM   41  C2  UNL     1       5.565 -15.092 -19.649  1.00  0.00     0.123 C
HETATM   42  C1  UNL     1       6.267 -16.417 -19.633  1.00  0.00     0.091 C
HETATM   43  O1  UNL     1       6.005 -14.282 -20.446  1.00  0.00    -0.298 OA
ENDBRANCH  40  41
ENDBRANCH  39  40
ENDBRANCH  38  39
ENDBRANCH  37  38
ENDBRANCH  36  37
ENDBRANCH   1  36
TORSDOF 15
ENDMDL