MODEL 3
REMARK VINA RESULT: -9.137281154      2.293      2.997
REMARK  13 active torsions:
REMARK  status: ('A' for Active; 'I' for Inactive)
REMARK    1  A    between atoms: O1_2  and  C2_3
REMARK    2  A    between atoms: C2_3  and  C3_4
REMARK    3  A    between atoms: C3_4  and  N1_5
REMARK       I    between atoms: N1_5  and  C4_7
REMARK    4  A    between atoms: C4_7  and  C5_9
REMARK    5  A    between atoms: C5_9  and  C6_10
REMARK    6  A    between atoms: C6_10  and  C7_11
REMARK    7  A    between atoms: C12_18  and  O3_19
REMARK    8  A    between atoms: C13_21  and  C14_22
REMARK    9  A    between atoms: C14_22  and  C15_23
REMARK   10  A    between atoms: C19_34  and  C20_35
REMARK   11  A    between atoms: C20_35  and  C21_36
REMARK   12  A    between atoms: C21_36  and  C22_37
REMARK   13  A    between atoms: C22_37  and  N6_38
ROOT
HETATM    1  C7  UNL     1       4.866 -16.118 -20.770  1.00  0.00     0.077 C
HETATM    2  C8  UNL     1       5.391 -17.547 -20.532  1.00  0.00     0.025 C
HETATM    3  C9  UNL     1       6.523 -17.491 -19.517  1.00  0.00     0.004 C
HETATM    4  C10 UNL     1       7.723 -18.286 -19.982  1.00  0.00     0.020 C
HETATM    5  C11 UNL     1       8.937 -17.402 -20.164  1.00  0.00     0.121 C
HETATM    6  N2  UNL     1       9.616 -17.633 -21.415  1.00  0.00    -0.369 N
ATOM      7  H2  UNL     1      10.396 -18.288 -21.363  1.00  0.00     0.161 HD
HETATM    8  C12 UNL     1       9.381 -17.110 -22.675  1.00  0.00     0.159 C
HETATM    9  C13 UNL     1       9.251 -15.723 -23.154  1.00  0.00     0.068 C
HETATM   10  N5  UNL     1       7.959 -15.435 -23.765  1.00  0.00    -0.325 N
ATOM     11  H5  UNL     1       7.966 -15.251 -24.768  1.00  0.00     0.169 HD
HETATM   12  C18 UNL     1       6.710 -15.381 -23.130  1.00  0.00     0.244 C
HETATM   13  O4  UNL     1       5.792 -16.153 -23.591  1.00  0.00    -0.271 OA
HETATM   14  C19 UNL     1       6.293 -14.546 -21.988  1.00  0.00     0.170 C
HETATM   15  N9  UNL     1       5.948 -15.240 -20.804  1.00  0.00    -0.405 N
ATOM     16  H9  UNL     1       6.502 -15.096 -19.960  1.00  0.00     0.154 HD
ENDROOT
BRANCH   1  17
HETATM   17  C6  UNL     1       3.910 -15.907 -19.613  1.00  0.00     0.034 C
BRANCH  17  18
HETATM   18  C5  UNL     1       3.176 -14.622 -19.618  1.00  0.00     0.105 C
BRANCH  18  19
HETATM   19  C4  UNL     1       2.268 -14.642 -20.817  1.00  0.00     0.217 C
HETATM   20  N1  UNL     1       1.782 -15.889 -21.258  1.00  0.00    -0.359 N
ATOM     21  H1  UNL     1       2.067 -16.729 -20.754  1.00  0.00     0.162 HD
HETATM   22  O2  UNL     1       1.945 -13.596 -21.413  1.00  0.00    -0.274 OA
BRANCH  20  23
HETATM   23  C3  UNL     1       0.899 -16.030 -22.390  1.00  0.00     0.148 C
BRANCH  23  24
HETATM   24  C2  UNL     1       0.058 -17.258 -22.243  1.00  0.00     0.186 C
BRANCH  24  25
HETATM   25  O1  UNL     1      -1.196 -17.045 -22.772  1.00  0.00    -0.394 OA
HETATM   26  C1  UNL     1      -1.616 -15.737 -22.814  1.00  0.00     0.201 C
ENDBRANCH  24  25
ENDBRANCH  23  24
ENDBRANCH  20  23
ENDBRANCH  18  19
ENDBRANCH  17  18
ENDBRANCH   1  17
BRANCH  14  27
HETATM   27  C20 UNL     1       5.159 -13.606 -22.460  1.00  0.00     0.036 C
BRANCH  27  28
HETATM   28  C21 UNL     1       5.838 -12.411 -23.097  1.00  0.00     0.022 C
BRANCH  28  29
HETATM   29  C22 UNL     1       5.518 -12.304 -24.565  1.00  0.00     0.122 C
BRANCH  29  30
HETATM   30  N6  UNL     1       6.686 -12.319 -25.402  1.00  0.00    -0.367 N
HETATM   31  C23 UNL     1       6.939 -13.246 -26.240  1.00  0.00     0.196 C
HETATM   32  N7  UNL     1       6.048 -14.339 -26.386  1.00  0.00    -0.067 NA
HETATM   33  N8  UNL     1       8.109 -13.196 -27.033  1.00  0.00    -0.067 NA
ATOM     34  H6  UNL     1       7.348 -11.547 -25.322  1.00  0.00     0.161 HD
ENDBRANCH  29  30
ENDBRANCH  28  29
ENDBRANCH  27  28
ENDBRANCH  14  27
BRANCH   9  35
HETATM   35  C14 UNL     1       9.804 -14.635 -22.318  1.00  0.00     0.120 C
BRANCH  35  36
HETATM   36  C15 UNL     1       9.802 -13.341 -23.046  1.00  0.00     0.031 A
HETATM   37  C16 UNL     1       9.461 -12.076 -22.681  1.00  0.00     0.114 A
HETATM   38  N3  UNL     1       9.664 -11.264 -23.715  1.00  0.00    -0.360 N
HETATM   39  C17 UNL     1      10.132 -12.007 -24.732  1.00  0.00     0.180 A
ATOM     40  H3  UNL     1       9.496 -10.258 -23.733  1.00  0.00     0.166 HD
HETATM   41  N4  UNL     1      10.219 -13.275 -24.335  1.00  0.00    -0.354 N
ATOM     42  H4  UNL     1      10.542 -14.058 -24.902  1.00  0.00     0.166 HD
ENDBRANCH  35  36
ENDBRANCH   9  35
BRANCH   8  43
HETATM   43  O3  UNL     1       9.245 -17.977 -23.636  1.00  0.00    -0.345 OA
ATOM     44  H3  UNL     1       8.408 -18.425 -23.678  1.00  0.00     0.219 HD
ENDBRANCH   8  43
TORSDOF 13
ENDMDL