MODEL 5
REMARK VINA RESULT: -8.434379914      1.648      1.992
REMARK  16 active torsions:
REMARK  status: ('A' for Active; 'I' for Inactive)
REMARK    1  A    between atoms: C2_2  and  C3_3
REMARK    2  A    between atoms: C3_3  and  C4_4
REMARK    3  A    between atoms: C4_4  and  C5_5
REMARK       I    between atoms: C5_5  and  N1_7
REMARK    4  A    between atoms: N1_7  and  C6_9
REMARK    5  A    between atoms: C6_9  and  C7_10
REMARK    6  A    between atoms: C7_10  and  C8_11
REMARK    7  A    between atoms: C8_11  and  C9_12
REMARK    8  A    between atoms: C9_12  and  N2_13
REMARK    9  A    between atoms: C9_12  and  C18_35
REMARK       I    between atoms: N2_13  and  C10_15
REMARK   10  A    between atoms: C10_15  and  C11_17
REMARK   11  A    between atoms: C11_17  and  N3_18
REMARK   12  A    between atoms: C11_17  and  C12_22
REMARK   13  A    between atoms: C12_22  and  C13_23
REMARK   14  A    between atoms: N4_27  and  S1_28
REMARK   15  A    between atoms: S1_28  and  N5_29
REMARK   16  A    between atoms: C22_42  and  N7_43
ROOT
HETATM    1  C9  UNL     1       5.920 -16.998 -22.509  1.00  0.00     0.090 C
ENDROOT
BRANCH   1   2
HETATM    2  C8  UNL     1       4.553 -16.969 -21.978  1.00  0.00     0.027 C
BRANCH   2   3
HETATM    3  C7  UNL     1       3.363 -16.874 -22.837  1.00  0.00     0.022 C
BRANCH   3   4
HETATM    4  C6  UNL     1       2.105 -16.513 -22.061  1.00  0.00     0.122 C
BRANCH   4   5
HETATM    5  N1  UNL     1       2.385 -15.777 -20.866  1.00  0.00    -0.361 N
HETATM    6  C5  UNL     1       2.406 -14.376 -20.721  1.00  0.00     0.217 C
HETATM    7  O1  UNL     1       2.171 -13.575 -21.653  1.00  0.00    -0.274 OA
ATOM      8  H1  UNL     1       2.592 -16.325 -20.031  1.00  0.00     0.162 HD
BRANCH   6   9
HETATM    9  C4  UNL     1       2.732 -13.825 -19.357  1.00  0.00     0.103 C
BRANCH   9  10
HETATM   10  C3  UNL     1       3.757 -14.706 -18.734  1.00  0.00     0.009 C
BRANCH  10  11
HETATM   11  C2  UNL     1       5.095 -14.406 -19.400  1.00  0.00    -0.004 C
HETATM   12  C1  UNL     1       6.143 -15.167 -18.616  1.00  0.00     0.005 C
ENDBRANCH  10  11
ENDBRANCH   9  10
ENDBRANCH   6   9
ENDBRANCH   4   5
ENDBRANCH   3   4
ENDBRANCH   2   3
ENDBRANCH   1   2
BRANCH   1  13
HETATM   13  N2  UNL     1       6.410 -15.562 -22.492  1.00  0.00    -0.354 N
HETATM   14  C10 UNL     1       6.324 -14.760 -23.646  1.00  0.00     0.248 C
HETATM   15  O2  UNL     1       5.840 -15.231 -24.704  1.00  0.00    -0.271 OA
ATOM     16  H2  UNL     1       6.807 -15.173 -21.636  1.00  0.00     0.162 HD
BRANCH  14  17
HETATM   17  C11 UNL     1       6.796 -13.372 -23.633  1.00  0.00     0.275 C
BRANCH  17  18
HETATM   18  N3  UNL     1       7.441 -13.142 -22.336  1.00  0.00    -0.066 N
ATOM     19  H33 UNL     1       6.782 -13.146 -21.557  1.00  0.00     0.275 HD
ATOM     20  H32 UNL     1       8.012 -13.929 -22.030  1.00  0.00     0.275 HD
ATOM     21  H31 UNL     1       7.967 -12.272 -22.408  1.00  0.00     0.275 HD
ENDBRANCH  17  18
BRANCH  17  22
HETATM   22  C12 UNL     1       5.645 -12.389 -23.752  1.00  0.00     0.048 C
BRANCH  22  23
HETATM   23  C13 UNL     1       5.906 -11.436 -24.900  1.00  0.00     0.002 C
HETATM   24  C14 UNL     1       4.803 -10.415 -24.913  1.00  0.00     0.007 C
HETATM   25  C15 UNL     1       3.870 -10.599 -26.092  1.00  0.00     0.016 C
HETATM   26  C16 UNL     1       4.754 -10.461 -27.312  1.00  0.00     0.109 C
HETATM   27  N4  UNL     1       5.618 -11.578 -27.370  1.00  0.00    -0.193 NA
HETATM   28  C17 UNL     1       6.054 -12.185 -26.185  1.00  0.00     0.113 C
BRANCH  27  29
HETATM   29  S1  UNL     1       4.961 -12.735 -28.467  1.00  0.00     0.296 S
HETATM   30  O3  UNL     1       4.880 -14.092 -27.831  1.00  0.00    -0.189 OA
HETATM   31  O4  UNL     1       5.890 -12.878 -29.663  1.00  0.00    -0.189 OA
BRANCH  29  32
HETATM   32  N5  UNL     1       3.425 -12.314 -29.070  1.00  0.00    -0.316 N
ATOM     33  H52 UNL     1       3.205 -11.370 -29.388  1.00  0.00     0.170 HD
ATOM     34  H51 UNL     1       2.760 -13.088 -29.079  1.00  0.00     0.170 HD
ENDBRANCH  29  32
ENDBRANCH  27  29
ENDBRANCH  22  23
ENDBRANCH  17  22
ENDBRANCH  14  17
ENDBRANCH   1  13
BRANCH   1  35
HETATM   35  C18 UNL     1       6.992 -17.719 -21.805  1.00  0.00     0.042 C
HETATM   36  C19 UNL     1       7.945 -16.654 -21.181  1.00  0.00     0.036 C
HETATM   37  C20 UNL     1       8.800 -17.404 -20.185  1.00  0.00     0.233 C
HETATM   38  N6  UNL     1       9.548 -18.468 -20.832  1.00  0.00    -0.073 N
HETATM   39  C21 UNL     1       8.668 -19.424 -21.460  1.00  0.00     0.265 C
ATOM     40  H62 UNL     1      10.230 -18.096 -21.493  1.00  0.00     0.277 HD
ATOM     41  H61 UNL     1      10.191 -18.921 -20.183  1.00  0.00     0.277 HD
HETATM   42  C22 UNL     1       7.905 -18.618 -22.552  1.00  0.00     0.215 C
BRANCH  42  43
HETATM   43  N7  UNL     1       9.006 -17.899 -23.225  1.00  0.00    -0.073 N
ATOM     44  H73 UNL     1       8.908 -16.891 -23.107  1.00  0.00     0.274 HD
ATOM     45  H72 UNL     1       9.887 -18.041 -22.730  1.00  0.00     0.274 HD
ATOM     46  H71 UNL     1       9.100 -18.142 -24.211  1.00  0.00     0.274 HD
ENDBRANCH  42  43
ENDBRANCH   1  35
TORSDOF 16
ENDMDL