MODEL 2
REMARK VINA RESULT: -8.710421258      4.141      5.963
REMARK  15 active torsions:
REMARK  status: ('A' for Active; 'I' for Inactive)
REMARK    1  A    between atoms: C2_2  and  C3_3
REMARK    2  A    between atoms: C2_2  and  C7_11
REMARK    3  A    between atoms: C3_3  and  C4_4
REMARK    4  A    between atoms: C4_4  and  C5_5
REMARK    5  A    between atoms: C5_5  and  C6_6
REMARK    6  A    between atoms: C6_6  and  N1_7
REMARK       I    between atoms: C7_11  and  N2_13
REMARK    7  A    between atoms: C9_15  and  S1_16
REMARK    8  A    between atoms: S1_16  and  C10_17
REMARK    9  A    between atoms: C12_21  and  N4_22
REMARK       I    between atoms: N4_22  and  C13_24
REMARK   10  A    between atoms: C13_24  and  C14_26
REMARK   11  A    between atoms: C14_26  and  C15_27
REMARK   12  A    between atoms: C15_27  and  C16_28
REMARK   13  A    between atoms: C16_28  and  N5_29
REMARK   14  A    between atoms: C19_35  and  N8_36
REMARK   15  A    between atoms: C21_41  and  C22_42
ROOT
HETATM    1  C10 UNL     1       4.772 -16.221 -22.059  1.00  0.00     0.095 C
HETATM    2  C11 UNL     1       4.335 -17.157 -23.145  1.00  0.00     0.133 C
HETATM    3  N3  UNL     1       3.080 -16.865 -23.742  1.00  0.00    -0.400 N
ATOM      4  H3  UNL     1       2.912 -17.039 -24.733  1.00  0.00     0.155 HD
HETATM    5  C12 UNL     1       2.076 -16.326 -22.917  1.00  0.00     0.181 C
HETATM    6  C18 UNL     1       2.402 -16.624 -21.462  1.00  0.00     0.080 C
HETATM    7  C19 UNL     1       3.641 -15.763 -21.174  1.00  0.00     0.202 C
ENDROOT
BRANCH   1   8
HETATM    8  S1  UNL     1       5.733 -14.844 -22.752  1.00  0.00    -0.154 SA
BRANCH   8   9
HETATM    9  C9  UNL     1       5.087 -14.491 -24.387  1.00  0.00     0.068 C
HETATM   10  C8  UNL     1       6.060 -13.807 -25.287  1.00  0.00     0.141 C
HETATM   11  N2  UNL     1       5.697 -12.401 -25.285  1.00  0.00    -0.338 N
HETATM   12  C7  UNL     1       6.334 -11.407 -26.055  1.00  0.00     0.224 C
HETATM   13  C21 UNL     1       4.614 -12.198 -24.365  1.00  0.00     0.177 C
HETATM   14  O1  UNL     1       7.314 -11.754 -26.789  1.00  0.00    -0.273 OA
HETATM   15  C20 UNL     1       3.910 -13.552 -24.401  1.00  0.00     0.051 C
BRANCH  12  16
HETATM   16  C2  UNL     1       5.963  -9.975 -26.092  1.00  0.00     0.074 C
HETATM   17  C1  UNL     1       7.299  -9.209 -26.090  1.00  0.00     0.020 C
BRANCH  16  18
HETATM   18  C3  UNL     1       5.251  -9.577 -27.371  1.00  0.00     0.013 C
BRANCH  18  19
HETATM   19  C4  UNL     1       3.794  -9.439 -27.110  1.00  0.00     0.002 C
BRANCH  19  20
HETATM   20  C5  UNL     1       2.942 -10.272 -28.041  1.00  0.00     0.027 C
BRANCH  20  21
HETATM   21  C6  UNL     1       3.130 -11.755 -27.794  1.00  0.00     0.229 C
BRANCH  21  22
HETATM   22  N1  UNL     1       3.200 -12.414 -29.079  1.00  0.00    -0.079 N
ATOM     23  H13 UNL     1       3.071 -11.771 -29.861  1.00  0.00     0.274 HD
ATOM     24  H12 UNL     1       4.144 -12.725 -29.312  1.00  0.00     0.274 HD
ATOM     25  H11 UNL     1       2.523 -13.176 -29.078  1.00  0.00     0.274 HD
ENDBRANCH  21  22
ENDBRANCH  20  21
ENDBRANCH  19  20
ENDBRANCH  18  19
ENDBRANCH  16  18
ENDBRANCH  12  16
BRANCH  13  26
HETATM   26  C22 UNL     1       5.060 -11.851 -23.006  1.00  0.00     0.254 C
HETATM   27  N9  UNL     1       4.120 -11.874 -21.948  1.00  0.00    -0.060 NA
HETATM   28  O3  UNL     1       6.237 -11.536 -22.760  1.00  0.00    -0.275 OA
ENDBRANCH  13  26
ENDBRANCH   8   9
ENDBRANCH   1   8
BRANCH   7  29
HETATM   29  N8  UNL     1       3.944 -15.962 -19.769  1.00  0.00    -0.074 N
ATOM     30  H83 UNL     1       4.195 -16.931 -19.578  1.00  0.00     0.274 HD
ATOM     31  H82 UNL     1       4.824 -15.515 -19.512  1.00  0.00     0.274 HD
ATOM     32  H81 UNL     1       3.180 -15.649 -19.170  1.00  0.00     0.274 HD
ENDBRANCH   7  29
BRANCH   5  33
HETATM   33  N4  UNL     1       0.782 -16.963 -23.210  1.00  0.00    -0.340 N
HETATM   34  C13 UNL     1      -0.416 -16.328 -22.801  1.00  0.00     0.219 C
HETATM   35  O2  UNL     1      -0.422 -15.227 -22.189  1.00  0.00    -0.274 OA
ATOM     36  H4  UNL     1       0.749 -17.855 -23.704  1.00  0.00     0.164 HD
BRANCH  34  37
HETATM   37  C14 UNL     1      -1.708 -16.981 -23.101  1.00  0.00     0.104 C
BRANCH  37  38
HETATM   38  C15 UNL     1      -1.728 -18.427 -22.657  1.00  0.00     0.029 C
BRANCH  38  39
HETATM   39  C16 UNL     1      -2.922 -18.606 -21.721  1.00  0.00     0.122 C
BRANCH  39  40
HETATM   40  N5  UNL     1      -3.005 -17.525 -20.772  1.00  0.00    -0.367 N
HETATM   41  C17 UNL     1      -4.077 -17.274 -20.097  1.00  0.00     0.196 C
HETATM   42  N6  UNL     1      -4.089 -16.194 -19.180  1.00  0.00    -0.067 NA
HETATM   43  N7  UNL     1      -5.199 -18.105 -20.310  1.00  0.00    -0.067 NA
ATOM     44  H5  UNL     1      -2.186 -16.935 -20.627  1.00  0.00     0.161 HD
ENDBRANCH  39  40
ENDBRANCH  38  39
ENDBRANCH  37  38
ENDBRANCH  34  37
ENDBRANCH   5  33
TORSDOF 15
ENDMDL