MODEL 5
REMARK VINA RESULT: -8.251373042      2.841      6.071
REMARK  16 active torsions:
REMARK  status: ('A' for Active; 'I' for Inactive)
REMARK    1  A    between atoms: C2_2  and  C3_3
REMARK    2  A    between atoms: C3_3  and  C4_4
REMARK    3  A    between atoms: C4_4  and  C5_5
REMARK    4  A    between atoms: C5_5  and  C6_6
REMARK    5  A    between atoms: C6_6  and  C7_7
REMARK    6  A    between atoms: C8_10  and  O1_11
REMARK    7  A    between atoms: C9_13  and  C10_14
REMARK    8  A    between atoms: C10_14  and  C11_15
REMARK    9  A    between atoms: C11_15  and  C12_16
REMARK   10  A    between atoms: C12_16  and  C13_17
REMARK   11  A    between atoms: C13_17  and  O2_18
REMARK   12  A    between atoms: C15_24  and  C16_25
REMARK   13  A    between atoms: C18_32  and  C19_33
REMARK   14  A    between atoms: C19_33  and  O6_34
REMARK   15  A    between atoms: O6_34  and  C20_35
REMARK   16  A    between atoms: C20_35  and  C21_36
ROOT
HETATM    1  C7  UNL     1       3.574 -15.718 -22.524  1.00  0.00     0.175 C
HETATM    2  N1  UNL     1       4.667 -16.408 -23.159  1.00  0.00    -0.359 N
ATOM      3  H1  UNL     1       4.575 -16.495 -24.171  1.00  0.00     0.162 HD
HETATM    4  C8  UNL     1       5.826 -16.978 -22.642  1.00  0.00     0.135 C
HETATM    5  C9  UNL     1       6.941 -16.320 -21.896  1.00  0.00     0.159 C
HETATM    6  N2  UNL     1       7.852 -15.733 -22.833  1.00  0.00    -0.347 N
ATOM      7  H2  UNL     1       8.413 -16.424 -23.332  1.00  0.00     0.163 HD
HETATM    8  C14 UNL     1       8.135 -14.431 -23.204  1.00  0.00     0.250 C
HETATM    9  O3  UNL     1       9.379 -14.111 -23.257  1.00  0.00    -0.271 OA
HETATM   10  C15 UNL     1       7.217 -13.323 -23.561  1.00  0.00     0.266 C
HETATM   11  N4  UNL     1       6.830 -13.362 -24.957  1.00  0.00    -0.339 N
ATOM     12  H4  UNL     1       7.420 -12.829 -25.596  1.00  0.00     0.163 HD
HETATM   13  C17 UNL     1       5.753 -14.035 -25.541  1.00  0.00     0.243 C
HETATM   14  O5  UNL     1       6.002 -14.867 -26.496  1.00  0.00    -0.271 OA
HETATM   15  C18 UNL     1       4.312 -13.926 -25.209  1.00  0.00     0.200 C
HETATM   16  N5  UNL     1       4.008 -13.549 -23.880  1.00  0.00    -0.344 N
ATOM     17  H5  UNL     1       4.230 -12.580 -23.652  1.00  0.00     0.163 HD
HETATM   18  C22 UNL     1       3.452 -14.286 -22.819  1.00  0.00     0.241 C
HETATM   19  O9  UNL     1       2.722 -13.645 -21.956  1.00  0.00    -0.271 OA
ENDROOT
BRANCH   1  20
HETATM   20  C6  UNL     1       2.285 -16.391 -23.044  1.00  0.00     0.035 C
BRANCH  20  21
HETATM   21  C5  UNL     1       1.239 -16.579 -22.015  1.00  0.00     0.002 C
BRANCH  21  22
HETATM   22  C4  UNL     1      -0.144 -16.461 -22.669  1.00  0.00     0.000 C
BRANCH  22  23
HETATM   23  C3  UNL     1      -0.668 -17.787 -23.138  1.00  0.00    -0.000 C
BRANCH  23  24
HETATM   24  C2  UNL     1      -2.196 -17.827 -23.027  1.00  0.00    -0.005 C
HETATM   25  C1  UNL     1      -2.614 -18.208 -21.623  1.00  0.00     0.005 C
ENDBRANCH  23  24
ENDBRANCH  22  23
ENDBRANCH  21  22
ENDBRANCH  20  21
ENDBRANCH   1  20
BRANCH   4  26
HETATM   26  O1  UNL     1       5.955 -18.263 -22.839  1.00  0.00    -0.348 OA
ATOM     27  H1  UNL     1       5.928 -18.541 -23.747  1.00  0.00     0.219 HD
ENDBRANCH   4  26
BRANCH   5  28
HETATM   28  C10 UNL     1       6.536 -15.554 -20.709  1.00  0.00     0.034 C
BRANCH  28  29
HETATM   29  C11 UNL     1       5.820 -16.379 -19.681  1.00  0.00     0.004 C
BRANCH  29  30
HETATM   30  C12 UNL     1       5.281 -15.518 -18.558  1.00  0.00     0.026 C
BRANCH  30  31
HETATM   31  C13 UNL     1       3.936 -14.917 -18.935  1.00  0.00     0.164 C
BRANCH  31  32
HETATM   32  O2  UNL     1       4.093 -13.548 -19.114  1.00  0.00    -0.401 OA
ATOM     33  H2  UNL     1       4.158 -13.367 -20.044  1.00  0.00     0.209 HD
ENDBRANCH  31  32
ENDBRANCH  30  31
ENDBRANCH  29  30
ENDBRANCH  28  29
ENDBRANCH   5  28
BRANCH  15  34
HETATM   34  C19 UNL     1       3.805 -12.756 -26.097  1.00  0.00     0.203 C
BRANCH  34  35
HETATM   35  O6  UNL     1       3.018 -13.218 -27.104  1.00  0.00    -0.378 OA
BRANCH  35  36
HETATM   36  C20 UNL     1       3.389 -12.695 -28.316  1.00  0.00     0.280 C
BRANCH  36  37
HETATM   37  C21 UNL     1       4.501 -13.368 -28.994  1.00  0.00     0.197 C
HETATM   38  O7  UNL     1       4.386 -14.571 -29.424  1.00  0.00    -0.646 OA
HETATM   39  O8  UNL     1       5.734 -12.793 -29.232  1.00  0.00    -0.646 OA
ENDBRANCH  36  37
ENDBRANCH  35  36
ENDBRANCH  34  35
ENDBRANCH  15  34
BRANCH  10  40
HETATM   40  C16 UNL     1       7.927 -12.006 -23.341  1.00  0.00     0.263 C
HETATM   41  N3  UNL     1       8.501 -11.282 -24.420  1.00  0.00    -0.060 NA
HETATM   42  O4  UNL     1       7.999 -11.564 -22.179  1.00  0.00    -0.274 OA
ENDBRANCH  10  40
TORSDOF 16
ENDMDL