MODEL 1
REMARK VINA RESULT: -2.398661112      0.000      0.000
REMARK  2 active torsions:
REMARK  status: ('A' for Active; 'I' for Inactive)
REMARK    1  A    between atoms: S1_2  and  C2_3
REMARK    2  A    between atoms: C2_3  and  O1_4
ROOT
HETATM    1  C2  UNL     1      24.169  -1.942 -21.905  1.00  0.00     0.239 C
HETATM    2  C3  UNL     1      23.657  -3.094 -22.767  1.00  0.00     0.252 C
HETATM    3  O2  UNL     1      23.550  -2.365 -23.967  1.00  0.00    -0.349 OA
HETATM    4  C4  UNL     1      22.803  -1.271 -23.529  1.00  0.00     0.161 C
HETATM    5  C5  UNL     1      23.006  -0.048 -24.377  1.00  0.00     0.078 C
HETATM    6  C6  UNL     1      21.345  -1.690 -23.695  1.00  0.00     0.078 C
HETATM    7  O3  UNL     1      23.126  -1.047 -22.198  1.00  0.00    -0.308 OA
ENDROOT
BRANCH   1   8
HETATM    8  S1  UNL     1      24.328  -2.330 -20.184  1.00  0.00    -0.104 SA
HETATM    9  C1  UNL     1      22.735  -2.936 -19.563  1.00  0.00     0.095 C
ENDBRANCH   1   8
BRANCH   1  10
HETATM   10  O1  UNL     1      25.392  -1.491 -22.411  1.00  0.00    -0.355 OA
ATOM     11  H1  UNL     1      25.658  -0.697 -21.963  1.00  0.00     0.214 HD
ENDBRANCH   1  10
TORSDOF 2
ENDMDL