MODEL 4
REMARK VINA RESULT: -3.309875273      3.262      4.556
REMARK  1 active torsions:
REMARK  status: ('A' for Active; 'I' for Inactive)
REMARK    1  A    between atoms: C1_2  and  C2_4
ROOT
HETATM    1  C2  UNL     1      23.763  -2.252 -20.180  1.00  0.00     0.157 C
HETATM    2  C3  UNL     1      24.784  -2.392 -21.297  1.00  0.00     0.100 C
HETATM    3  S1  UNL     1      24.320  -1.359 -22.683  1.00  0.00    -0.167 SA
HETATM    4  C4  UNL     1      22.685  -1.936 -23.279  1.00  0.00     0.084 C
HETATM    5  C5  UNL     1      21.707  -1.518 -22.169  1.00  0.00     0.085 C
HETATM    6  S2  UNL     1      22.083  -2.631 -20.766  1.00  0.00    -0.152 SA
ENDROOT
BRANCH   1   7
HETATM    7  C1  UNL     1      24.056  -3.169 -19.071  1.00  0.00     0.188 C
HETATM    8  O1  UNL     1      25.225  -3.529 -18.856  1.00  0.00    -0.647 OA
HETATM    9  O2  UNL     1      23.038  -3.627 -18.276  1.00  0.00    -0.647 OA
ENDBRANCH   1   7
TORSDOF 1
ENDMDL