MODEL 5
REMARK VINA RESULT: -1.779608587      2.354      3.991
REMARK  2 active torsions:
REMARK  status: ('A' for Active; 'I' for Inactive)
REMARK    1  A    between atoms: C2_2  and  C3_3
REMARK    2  A    between atoms: N3_13  and  O1_14
ROOT
HETATM    1  C3  UNL     1      23.045  -1.816 -23.016  1.00  0.00     0.156 C
HETATM    2  C4  UNL     1      22.417  -1.928 -21.697  1.00  0.00     0.089 C
HETATM    3  N1  UNL     1      21.896  -2.005 -20.647  1.00  0.00    -0.195 NA
HETATM    4  C5  UNL     1      24.561  -1.841 -22.955  1.00  0.00     0.245 C
HETATM    5  N2  UNL     1      25.154  -1.647 -21.685  1.00  0.00    -0.066 N
ATOM      6  H21 UNL     1      25.588  -2.491 -21.312  1.00  0.00     0.277 HD
ATOM      7  H22 UNL     1      24.470  -1.512 -20.940  1.00  0.00     0.277 HD
HETATM    8  C6  UNL     1      26.085  -0.537 -21.815  1.00  0.00     0.234 C
HETATM    9  C7  UNL     1      25.285   0.455 -22.659  1.00  0.00     0.051 C
HETATM   10  C8  UNL     1      24.576  -0.471 -23.610  1.00  0.00     0.123 C
HETATM   11  N3  UNL     1      23.124  -0.470 -23.442  1.00  0.00    -0.167 NA
ENDROOT
BRANCH   1  12
HETATM   12  C2  UNL     1      22.541  -2.862 -23.941  1.00  0.00     0.041 C
HETATM   13  C1  UNL     1      21.102  -3.204 -23.833  1.00  0.00     0.008 C
ENDBRANCH   1  12
BRANCH  11  14
HETATM   14  O1  UNL     1      22.531  -0.107 -24.580  1.00  0.00    -0.311 OA
ATOM     15  H1  UNL     1      22.525   0.809 -24.832  1.00  0.00     0.237 HD
ENDBRANCH  11  14
TORSDOF 2
ENDMDL