MODEL 1
REMARK VINA RESULT: -4.084377216      0.000      0.000
REMARK  2 active torsions:
REMARK  status: ('A' for Active; 'I' for Inactive)
REMARK    1  A    between atoms: C2_2  and  N1_3
REMARK    2  A    between atoms: N2_9  and  O1_11
ROOT
HETATM    1  N1  UNL     1      23.327  -1.971 -22.153  1.00  0.00    -0.368 N
HETATM    2  C3  UNL     1      22.261  -2.375 -21.276  1.00  0.00     0.134 C
HETATM    3  C4  UNL     1      22.525  -2.418 -19.835  1.00  0.00     0.094 C
HETATM    4  S1  UNL     1      24.223  -2.784 -19.365  1.00  0.00    -0.160 SA
HETATM    5  C5  UNL     1      25.254  -2.899 -20.842  1.00  0.00     0.151 C
HETATM    6  C6  UNL     1      24.695  -1.874 -21.808  1.00  0.00     0.108 C
HETATM    7  N2  UNL     1      25.492  -0.971 -22.252  1.00  0.00    -0.256 N
ATOM      8  H2  UNL     1      26.463  -0.990 -21.942  1.00  0.00     0.195 HD
ENDROOT
BRANCH   1   9
HETATM    9  C2  UNL     1      22.935  -1.638 -23.509  1.00  0.00     0.119 C
HETATM   10  C1  UNL     1      22.291  -2.772 -24.250  1.00  0.00     0.026 C
ENDBRANCH   1   9
BRANCH   7  11
HETATM   11  O1  UNL     1      25.109   0.010 -23.113  1.00  0.00    -0.288 OA
ATOM     12  H1  UNL     1      24.335   0.545 -22.988  1.00  0.00     0.244 HD
ENDBRANCH   7  11
TORSDOF 2
ENDMDL