MODEL 5
REMARK VINA RESULT: -4.114784783      0.958      1.500
REMARK  3 active torsions:
REMARK  status: ('A' for Active; 'I' for Inactive)
REMARK    1  A    between atoms: C2_2  and  C5_5
REMARK    2  A    between atoms: C6_8  and  C7_9
REMARK    3  A    between atoms: C7_9  and  O3_10
ROOT
HETATM    1  C5  UNL     1      23.050  -2.728 -21.543  1.00  0.00     0.307 C
HETATM    2  O1  UNL     1      22.150  -2.629 -20.502  1.00  0.00    -0.204 OA
HETATM    3  O2  UNL     1      22.834  -2.785 -19.385  1.00  0.00    -0.203 OA
HETATM    4  C6  UNL     1      24.150  -3.023 -19.740  1.00  0.00     0.323 C
HETATM    5  O4  UNL     1      24.237  -2.292 -20.928  1.00  0.00    -0.323 OA
ENDROOT
BRANCH   1   6
HETATM    6  C2  UNL     1      22.701  -1.902 -22.736  1.00  0.00     0.002 C
HETATM    7  C1  UNL     1      22.550  -2.752 -23.956  1.00  0.00     0.019 C
HETATM    8  C3  UNL     1      23.782  -0.884 -22.953  1.00  0.00     0.019 C
HETATM    9  C4  UNL     1      21.425  -1.136 -22.406  1.00  0.00     0.019 C
ENDBRANCH   1   6
BRANCH   4  10
HETATM   10  C7  UNL     1      25.139  -2.580 -18.706  1.00  0.00     0.227 C
BRANCH  10  11
HETATM   11  O3  UNL     1      25.507  -3.673 -17.952  1.00  0.00    -0.396 OA
ATOM     12  H3  UNL     1      24.945  -4.404 -18.181  1.00  0.00     0.209 HD
ENDBRANCH  10  11
ENDBRANCH   4  10
TORSDOF 3
ENDMDL