MODEL 5
REMARK VINA RESULT: -2.778893122      1.167      2.177
REMARK  2 active torsions:
REMARK  status: ('A' for Active; 'I' for Inactive)
REMARK    1  A    between atoms: C4_5  and  C5_6
REMARK    2  A    between atoms: C5_6  and  O2_9
ROOT
HETATM    1  C1  UNL     1      25.289  -2.111 -18.738  1.00  0.00     0.045 C
HETATM    2  C2  UNL     1      24.609  -2.863 -19.853  1.00  0.00     0.180 C
HETATM    3  C3  UNL     1      23.133  -3.103 -19.528  1.00  0.00     0.205 C
HETATM    4  O1  UNL     1      22.393  -2.181 -20.307  1.00  0.00    -0.353 OA
HETATM    5  C4  UNL     1      22.491  -2.606 -21.614  1.00  0.00     0.330 C
HETATM    6  O3  UNL     1      23.843  -2.781 -21.905  1.00  0.00    -0.204 OA
HETATM    7  O4  UNL     1      24.622  -2.155 -21.055  1.00  0.00    -0.231 OA
ENDROOT
BRANCH   5   8
HETATM    8  C5  UNL     1      21.923  -1.656 -22.616  1.00  0.00     0.103 C
HETATM    9  C6  UNL     1      21.169  -2.392 -23.699  1.00  0.00     0.051 C
HETATM   10  C7  UNL     1      22.933  -0.770 -23.265  1.00  0.00     0.051 C
BRANCH   8  11
HETATM   11  O2  UNL     1      20.993  -0.846 -21.951  1.00  0.00    -0.386 OA
ATOM     12  H2  UNL     1      20.127  -1.109 -22.238  1.00  0.00     0.210 HD
ENDBRANCH   8  11
ENDBRANCH   5   8
TORSDOF 2
ENDMDL