MODEL 4
REMARK VINA RESULT: -4.030180690      1.437      2.027
REMARK  4 active torsions:
REMARK  status: ('A' for Active; 'I' for Inactive)
REMARK    1  A    between atoms: C2_2  and  N1_5
REMARK    2  A    between atoms: C5_7  and  O1_8
REMARK    3  A    between atoms: C5_7  and  O2_10
REMARK    4  A    between atoms: O2_10  and  C6_11
ROOT
HETATM    1  C6  UNL     1      24.428  -2.566 -19.895  1.00  0.00     0.303 C
HETATM    2  C7  UNL     1      24.855  -3.459 -18.815  1.00  0.00     0.085 C
HETATM    3  N2  UNL     1      25.211  -4.159 -17.957  1.00  0.00    -0.195 NA
ENDROOT
BRANCH   1   4
HETATM    4  O2  UNL     1      23.032  -2.532 -19.904  1.00  0.00    -0.303 OA
BRANCH   4   5
HETATM    5  C5  UNL     1      22.345  -2.375 -21.117  1.00  0.00     0.259 C
HETATM    6  N1  UNL     1      23.039  -1.936 -22.105  1.00  0.00    -0.342 N
ATOM      7  H1  UNL     1      24.028  -1.729 -21.961  1.00  0.00     0.164 HD
BRANCH   6   8
HETATM    8  C2  UNL     1      22.461  -1.726 -23.417  1.00  0.00     0.023 C
HETATM    9  C1  UNL     1      23.141  -0.590 -24.150  1.00  0.00     0.037 C
HETATM   10  C3  UNL     1      20.986  -1.394 -23.345  1.00  0.00     0.037 C
HETATM   11  C4  UNL     1      22.596  -2.956 -24.293  1.00  0.00     0.037 C
ENDBRANCH   6   8
BRANCH   5  12
HETATM   12  O1  UNL     1      20.994  -2.689 -21.205  1.00  0.00    -0.327 OA
ATOM     13  H1  UNL     1      20.488  -3.044 -20.484  1.00  0.00     0.221 HD
ENDBRANCH   5  12
ENDBRANCH   4   5
ENDBRANCH   1   4
TORSDOF 4
ENDMDL