MODEL 2
REMARK VINA RESULT: -4.148077289      1.879      2.737
REMARK  2 active torsions:
REMARK  status: ('A' for Active; 'I' for Inactive)
REMARK    1  A    between atoms: O1_2  and  C2_3
REMARK    2  A    between atoms: C6_8  and  O2_9
ROOT
HETATM    1  C2  UNL     1      22.655  -2.045 -20.880  1.00  0.00     0.263 C
HETATM    2  C3  UNL     1      23.987  -2.529 -21.295  1.00  0.00     0.061 C
HETATM    3  C4  UNL     1      24.779  -1.641 -22.171  1.00  0.00     0.015 C
HETATM    4  C5  UNL     1      24.045  -0.499 -22.777  1.00  0.00     0.079 C
HETATM    5  S1  UNL     1      22.895  -1.223 -24.012  1.00  0.00    -0.110 SA
HETATM    6  C6  UNL     1      21.942  -2.465 -23.056  1.00  0.00     0.325 C
HETATM    7  O3  UNL     1      21.699  -1.942 -21.831  1.00  0.00    -0.323 OA
ENDROOT
BRANCH   1   8
HETATM    8  O1  UNL     1      22.164  -2.917 -19.890  1.00  0.00    -0.366 OA
HETATM    9  C1  UNL     1      23.151  -3.297 -18.995  1.00  0.00     0.204 C
ENDBRANCH   1   8
BRANCH   6  10
HETATM   10  O2  UNL     1      20.702  -2.568 -23.730  1.00  0.00    -0.362 OA
ATOM     11  H2  UNL     1      20.088  -2.091 -23.183  1.00  0.00     0.213 HD
ENDBRANCH   6  10
TORSDOF 2
ENDMDL