MODEL 2
REMARK VINA RESULT: -7.033322303      2.499      4.068
REMARK  7 active torsions:
REMARK  status: ('A' for Active; 'I' for Inactive)
REMARK    1  A    between atoms: C5_6  and  C6_7
REMARK    2  A    between atoms: C6_7  and  S1_8
REMARK    3  A    between atoms: S1_8  and  C7_9
REMARK    4  A    between atoms: C11_16  and  C12_17
REMARK    5  A    between atoms: C12_17  and  O2_18
REMARK    6  A    between atoms: O2_18  and  C13_19
REMARK    7  A    between atoms: C13_19  and  C14_23
ROOT
HETATM    1  C1  UNL     1       6.158  22.157  25.643  1.00  0.00     0.052 C
HETATM    2  C2  UNL     1       4.995  21.246  25.575  1.00  0.00    -0.010 A
HETATM    3  C3  UNL     1       3.789  21.553  26.195  1.00  0.00     0.151 A
HETATM    4  O1  UNL     1       2.973  20.584  25.938  1.00  0.00    -0.319 OA
HETATM    5  C4  UNL     1       3.574  19.644  25.183  1.00  0.00     0.110 A
HETATM    6  C5  UNL     1       3.116  18.458  24.669  1.00  0.00     0.001 A
HETATM    7  C11 UNL     1       3.933  17.644  23.914  1.00  0.00     0.032 A
HETATM    8  C18 UNL     1       5.210  18.083  23.704  1.00  0.00     0.198 A
HETATM    9  F1  UNL     1       6.105  17.356  22.955  1.00  0.00    -0.185 F
HETATM   10  N3  UNL     1       5.677  19.241  24.192  1.00  0.00    -0.330 N
ATOM     11  H3  UNL     1       6.639  19.523  24.004  1.00  0.00     0.168 HD
HETATM   12  C19 UNL     1       4.857  20.048  24.945  1.00  0.00     0.077 A
ENDROOT
BRANCH   7  13
HETATM   13  C12 UNL     1       3.442  16.376  23.386  1.00  0.00     0.221 C
BRANCH  13  14
HETATM   14  O2  UNL     1       4.230  15.250  23.796  1.00  0.00    -0.334 OA
BRANCH  14  15
HETATM   15  C13 UNL     1       4.271  14.179  22.818  1.00  0.00     0.119 C
HETATM   16  N2  UNL     1       3.380  14.282  21.934  1.00  0.00    -0.383 N
ATOM     17  H22 UNL     1       2.682  15.021  21.862  1.00  0.00     0.158 HD
ATOM     18  H21 UNL     1       3.409  13.529  21.246  1.00  0.00     0.158 HD
BRANCH  15  19
HETATM   19  C14 UNL     1       5.267  13.122  22.921  1.00  0.00     0.013 C
HETATM   20  C15 UNL     1       5.361  12.275  21.693  1.00  0.00     0.023 C
HETATM   21  C16 UNL     1       5.053  12.279  24.122  1.00  0.00     0.023 C
HETATM   22  C17 UNL     1       6.625  13.865  23.009  1.00  0.00     0.023 C
ENDBRANCH  15  19
ENDBRANCH  14  15
ENDBRANCH  13  14
ENDBRANCH   7  13
BRANCH   6  23
HETATM   23  C6  UNL     1       1.788  18.058  25.152  1.00  0.00     0.123 C
BRANCH  23  24
HETATM   24  S1  UNL     1       0.482  18.562  24.044  1.00  0.00    -0.101 SA
BRANCH  24  25
HETATM   25  C7  UNL     1       0.769  20.246  23.510  1.00  0.00     0.104 C
HETATM   26  N1  UNL     1       1.286  20.525  22.412  1.00  0.00    -0.374 N
HETATM   27  C8  UNL     1       1.513  21.842  22.041  1.00  0.00     0.088 C
ATOM     28  H1  UNL     1       1.547  19.772  21.775  1.00  0.00     0.161 HD
HETATM   29  C9  UNL     1       2.834  22.229  22.762  1.00  0.00     0.033 C
HETATM   30  C10 UNL     1       0.439  22.756  22.694  1.00  0.00     0.106 C
HETATM   31  S2  UNL     1       0.426  21.815  24.292  1.00  0.00    -0.103 SA
ENDBRANCH  24  25
ENDBRANCH  23  24
ENDBRANCH   6  23
TORSDOF 7
ENDMDL