MODEL 2
REMARK VINA RESULT: -9.406758561      5.588     10.349
REMARK  4 active torsions:
REMARK  status: ('A' for Active; 'I' for Inactive)
REMARK    1  A    between atoms: C4_6  and  N1_7
REMARK    2  A    between atoms: N1_7  and  C5_9
REMARK    3  A    between atoms: C7_11  and  C8_12
REMARK    4  A    between atoms: N3_16  and  C10_17
ROOT
HETATM    1  C8  UNL     1       6.079  12.063  21.914  1.00  0.00     0.009 A
HETATM    2  C9  UNL     1       6.913  13.055  21.469  1.00  0.00     0.121 A
HETATM    3  N2  UNL     1       6.427  14.229  21.923  1.00  0.00    -0.309 N
ATOM      4  H2  UNL     1       6.848  15.140  21.744  1.00  0.00     0.186 HD
HETATM    5  N3  UNL     1       5.334  14.033  22.629  1.00  0.00    -0.298 N
HETATM    6  C18 UNL     1       5.101  12.686  22.635  1.00  0.00     0.124 A
ENDROOT
BRANCH   1   7
HETATM    7  C7  UNL     1       6.280  10.622  21.622  1.00  0.00    -0.014 A
HETATM    8  C6  UNL     1       6.585   9.693  22.556  1.00  0.00     0.050 A
HETATM    9  C5  UNL     1       6.749   8.411  22.173  1.00  0.00     0.075 A
HETATM   10  S2  UNL     1       6.464   8.517  20.462  1.00  0.00    -0.083 SA
HETATM   11  C19 UNL     1       6.155  10.187  20.329  1.00  0.00     0.064 A
BRANCH   9  12
HETATM   12  N1  UNL     1       7.101   7.185  22.767  1.00  0.00    -0.348 N
ATOM     13  H1  UNL     1       7.149   7.161  23.786  1.00  0.00     0.166 HD
BRANCH  12  14
HETATM   14  C4  UNL     1       7.400   5.956  22.065  1.00  0.00     0.079 A
HETATM   15  C1  UNL     1       8.625   5.388  22.069  1.00  0.00     0.149 A
HETATM   16  F1  UNL     1       9.737   5.965  22.686  1.00  0.00    -0.203 F
HETATM   17  C2  UNL     1       8.773   4.192  21.429  1.00  0.00     0.094 A
HETATM   18  S1  UNL     1       7.216   3.872  20.831  1.00  0.00    -0.108 SA
HETATM   19  C3  UNL     1       6.412   5.268  21.412  1.00  0.00     0.082 A
ENDBRANCH  12  14
ENDBRANCH   9  12
ENDBRANCH   1   7
BRANCH   5  20
HETATM   20  C10 UNL     1       4.480  14.973  23.303  1.00  0.00     0.107 C
HETATM   21  C11 UNL     1       5.193  16.306  23.517  1.00  0.00     0.032 C
HETATM   22  C12 UNL     1       4.316  17.474  23.194  1.00  0.00     0.071 C
HETATM   23  C13 UNL     1       2.992  17.259  23.928  1.00  0.00     0.164 C
HETATM   24  C14 UNL     1       2.290  16.137  23.221  1.00  0.00     0.071 C
HETATM   25  O1  UNL     1       3.286  16.979  25.245  1.00  0.00    -0.353 OA
HETATM   26  O2  UNL     1       2.232  18.415  23.874  1.00  0.00    -0.353 OA
HETATM   27  C15 UNL     1       3.196  15.152  22.559  1.00  0.00     0.032 C
HETATM   28  C16 UNL     1       2.686  17.942  26.031  1.00  0.00     0.197 C
HETATM   29  C17 UNL     1       1.612  18.492  25.108  1.00  0.00     0.197 C
ENDBRANCH   5  20
TORSDOF 4
ENDMDL