MODEL 2
REMARK VINA RESULT: -8.599820691      6.454     12.530
REMARK  6 active torsions:
REMARK  status: ('A' for Active; 'I' for Inactive)
REMARK    1  A    between atoms: C2_2  and  C3_3
REMARK    2  A    between atoms: C4_6  and  C5_7
REMARK    3  A    between atoms: C5_7  and  S1_8
REMARK    4  A    between atoms: S1_8  and  C6_9
REMARK    5  A    between atoms: C7_12  and  N3_13
REMARK    6  A    between atoms: N3_13  and  C8_15
ROOT
HETATM    1  C6  UNL     1       3.602  15.775  22.906  1.00  0.00     0.121 A
HETATM    2  N2  UNL     1       3.756  14.593  22.392  1.00  0.00    -0.325 N
ATOM      3  H2  UNL     1       2.935  14.077  22.074  1.00  0.00     0.169 HD
HETATM    4  C7  UNL     1       4.949  14.044  22.271  1.00  0.00     0.157 A
HETATM    5  S2  UNL     1       6.260  15.000  22.839  1.00  0.00    -0.014 SA
HETATM    6  S3  UNL     1       5.018  16.587  23.421  1.00  0.00    -0.024 SA
ENDROOT
BRANCH   1   7
HETATM    7  S1  UNL     1       1.980  16.583  23.099  1.00  0.00    -0.098 SA
BRANCH   7   8
HETATM    8  C5  UNL     1       2.094  17.891  24.347  1.00  0.00     0.142 C
BRANCH   8   9
HETATM    9  C4  UNL     1       1.883  19.182  23.646  1.00  0.00     0.069 A
HETATM   10  N1  UNL     1       2.799  20.063  23.183  1.00  0.00    -0.340 N
HETATM   11  C3  UNL     1       2.115  21.078  22.625  1.00  0.00     0.125 A
ATOM     12  H1  UNL     1       3.814  19.974  23.246  1.00  0.00     0.167 HD
HETATM   13  O1  UNL     1       0.834  20.825  22.744  1.00  0.00    -0.281 OA
HETATM   14  C15 UNL     1       0.628  19.693  23.353  1.00  0.00     0.182 A
HETATM   15  N4  UNL     1      -0.625  19.101  23.655  1.00  0.00    -0.072 NA
BRANCH  11  16
HETATM   16  C2  UNL     1       2.691  22.293  21.977  1.00  0.00     0.080 C
HETATM   17  C1  UNL     1       1.696  22.825  20.951  1.00  0.00     0.013 C
ENDBRANCH  11  16
ENDBRANCH   8   9
ENDBRANCH   7   8
ENDBRANCH   1   7
BRANCH   4  18
HETATM   18  N3  UNL     1       5.081  12.832  21.741  1.00  0.00    -0.326 N
ATOM     19  H3  UNL     1       4.899  12.681  20.750  1.00  0.00     0.169 HD
BRANCH  18  20
HETATM   20  C8  UNL     1       5.473  11.767  22.557  1.00  0.00     0.107 C
HETATM   21 CL1  UNL     1       4.999  11.722  24.241  1.00  0.00    -0.064 Cl
HETATM   22  C9  UNL     1       6.208  10.766  22.086  1.00  0.00    -0.041 C
HETATM   23  C10 UNL     1       6.641   9.628  22.911  1.00  0.00     0.037 C
HETATM   24  C14 UNL     1       6.640  10.758  20.648  1.00  0.00     0.037 C
HETATM   25  C11 UNL     1       6.366   8.295  22.264  1.00  0.00     0.004 C
HETATM   26  C12 UNL     1       6.606   8.271  20.796  1.00  0.00     0.001 C
HETATM   27  C13 UNL     1       6.106   9.472  20.058  1.00  0.00     0.004 C
ENDBRANCH  18  20
ENDBRANCH   4  18
TORSDOF 6
ENDMDL