MODEL 4
REMARK VINA RESULT: -5.646459084      2.378      4.935
REMARK  5 active torsions:
REMARK  status: ('A' for Active; 'I' for Inactive)
REMARK    1  A    between atoms: C2_2  and  C3_3
REMARK    2  A    between atoms: C8_10  and  O2_11
REMARK    3  A    between atoms: C15_20  and  O4_21
REMARK    4  A    between atoms: O4_21  and  C16_22
REMARK    5  A    between atoms: C16_22  and  C17_24
ROOT
HETATM    1  C3  UNL     1       3.761  20.943  24.131  1.00  0.00     0.049 C
HETATM    2  C4  UNL     1       5.099  20.630  24.727  1.00  0.00     0.131 C
HETATM    3  C5  UNL     1       5.281  20.965  26.161  1.00  0.00     0.040 C
HETATM    4  O1  UNL     1       5.437  19.247  24.494  1.00  0.00    -0.343 OA
HETATM    5  C6  UNL     1       4.436  18.359  24.057  1.00  0.00     0.105 A
HETATM    6  C7  UNL     1       4.792  17.120  23.525  1.00  0.00     0.102 A
HETATM    7 CL1  UNL     1       6.462  16.685  23.408  1.00  0.00    -0.078 Cl
HETATM    8  C8  UNL     1       3.828  16.235  23.092  1.00  0.00     0.103 A
HETATM    9  C9  UNL     1       2.491  16.568  23.179  1.00  0.00     0.041 A
HETATM   10  C10 UNL     1       1.317  15.933  22.845  1.00  0.00    -0.024 A
HETATM   11  C11 UNL     1       1.251  14.567  22.239  1.00  0.00     0.051 C
HETATM   12  C12 UNL     1       0.264  16.761  23.164  1.00  0.00     0.150 A
HETATM   13  O3  UNL     1       0.784  17.850  23.669  1.00  0.00    -0.321 OA
HETATM   14  C13 UNL     1       2.104  17.786  23.699  1.00  0.00     0.100 A
HETATM   15  C14 UNL     1       3.097  18.646  24.124  1.00  0.00     0.042 A
HETATM   16  C15 UNL     1       2.751  19.973  24.695  1.00  0.00     0.177 C
ENDROOT
BRANCH  16  17
HETATM   17  O4  UNL     1       1.424  20.349  24.412  1.00  0.00    -0.305 OA
BRANCH  17  18
HETATM   18  C16 UNL     1       0.506  20.449  25.448  1.00  0.00     0.319 C
HETATM   19  O5  UNL     1      -0.598  20.987  25.175  1.00  0.00    -0.257 OA
BRANCH  18  20
HETATM   20  C17 UNL     1       0.781  19.964  26.796  1.00  0.00     0.167 A
HETATM   21  C18 UNL     1       0.784  20.776  27.908  1.00  0.00     0.133 A
HETATM   22  N1  UNL     1       1.072  20.015  28.987  1.00  0.00    -0.347 N
HETATM   23  C19 UNL     1       1.237  18.771  28.516  1.00  0.00     0.120 A
ATOM     24  H1  UNL     1       1.149  20.324  29.956  1.00  0.00     0.167 HD
HETATM   25  C20 UNL     1       1.572  17.595  29.384  1.00  0.00     0.098 C
HETATM   26  O6  UNL     1       1.058  18.764  27.208  1.00  0.00    -0.291 OA
ENDBRANCH  18  20
ENDBRANCH  17  18
ENDBRANCH  16  17
BRANCH   1  27
HETATM   27  C2  UNL     1       3.370  22.356  24.125  1.00  0.00     0.006 C
HETATM   28  C1  UNL     1       3.202  23.052  22.830  1.00  0.00     0.006 C
ENDBRANCH   1  27
BRANCH   8  29
HETATM   29  O2  UNL     1       4.145  14.998  22.559  1.00  0.00    -0.358 OA
ATOM     30  H2  UNL     1       3.516  14.477  22.074  1.00  0.00     0.217 HD
ENDBRANCH   8  29
TORSDOF 5
ENDMDL