MODEL 5
REMARK VINA RESULT: -6.661494945      1.447      2.214
REMARK  6 active torsions:
REMARK  status: ('A' for Active; 'I' for Inactive)
REMARK    1  A    between atoms: C2_2  and  C3_3
REMARK    2  A    between atoms: C3_3  and  N1_6
REMARK    3  A    between atoms: C6_7  and  O1_8
REMARK    4  A    between atoms: C7_10  and  N2_11
REMARK       I    between atoms: N3_13  and  C8_15
REMARK    5  A    between atoms: C8_15  and  C9_17
REMARK    6  A    between atoms: N4_23  and  C14_24
ROOT
HETATM    1  N1  UNL     1       3.411  20.332  24.362  1.00  0.00    -0.292 N
HETATM    2  C6  UNL     1       4.119  19.179  24.307  1.00  0.00     0.192 A
HETATM    3  C7  UNL     1       3.252  18.158  23.977  1.00  0.00     0.178 A
HETATM    4  N4  UNL     1       2.010  18.700  23.830  1.00  0.00    -0.282 N
HETATM    5  C17 UNL     1       2.145  20.009  24.070  1.00  0.00     0.186 A
HETATM    6  S1  UNL     1       0.873  21.045  23.998  1.00  0.00    -0.040 SA
ENDROOT
BRANCH   3   7
HETATM    7  N2  UNL     1       3.639  16.808  23.829  1.00  0.00    -0.279 N
HETATM    8  N3  UNL     1       3.772  16.321  22.688  1.00  0.00    -0.262 N
HETATM    9  C8  UNL     1       4.149  15.002  22.380  1.00  0.00     0.294 C
ATOM     10  H3  UNL     1       3.587  16.941  21.900  1.00  0.00     0.190 HD
HETATM   11  O2  UNL     1       3.264  14.227  21.935  1.00  0.00    -0.264 OA
ATOM     12  H2  UNL     1       3.811  16.234  24.654  1.00  0.00     0.189 HD
BRANCH   9  13
HETATM   13  C9  UNL     1       5.507  14.557  22.569  1.00  0.00     0.150 A
HETATM   14  O3  UNL     1       6.590  15.174  22.160  1.00  0.00    -0.317 OA
HETATM   15  C10 UNL     1       7.666  14.524  22.482  1.00  0.00     0.143 A
HETATM   16  C11 UNL     1       7.282  13.396  23.150  1.00  0.00     0.034 A
HETATM   17  C12 UNL     1       5.909  13.392  23.221  1.00  0.00    -0.021 A
HETATM   18  C13 UNL     1       5.089  12.358  23.857  1.00  0.00     0.051 C
ENDBRANCH   9  13
ENDBRANCH   3   7
BRANCH   2  19
HETATM   19  O1  UNL     1       5.480  19.030  24.540  1.00  0.00    -0.343 OA
ATOM     20  H1  UNL     1       5.954  18.210  24.623  1.00  0.00     0.219 HD
ENDBRANCH   2  19
BRANCH   4  21
HETATM   21  C14 UNL     1       0.870  17.902  23.483  1.00  0.00     0.111 C
HETATM   22  C15 UNL     1       0.688  17.874  21.969  1.00  0.00     0.056 C
HETATM   23  C16 UNL     1       0.914  16.499  23.968  1.00  0.00     0.056 C
HETATM   24 CL1  UNL     1      -0.637  18.640  24.131  1.00  0.00    -0.096 Cl
ENDBRANCH   4  21
BRANCH   1  25
HETATM   25  C3  UNL     1       3.920  21.661  24.675  1.00  0.00     0.034 C
HETATM   26  C4  UNL     1       5.403  21.649  24.842  1.00  0.00     0.039 C
HETATM   27  C5  UNL     1       3.584  22.663  23.589  1.00  0.00     0.039 C
BRANCH  25  28
HETATM   28  C2  UNL     1       3.246  22.123  25.954  1.00  0.00     0.026 C
HETATM   29  C1  UNL     1       3.884  21.521  27.175  1.00  0.00     0.007 C
ENDBRANCH  25  28
ENDBRANCH   1  25
TORSDOF 6
ENDMDL