MODEL 4
REMARK VINA RESULT: -5.660412194     15.341     17.157
REMARK  8 active torsions:
REMARK  status: ('A' for Active; 'I' for Inactive)
REMARK    1  A    between atoms: O1_2  and  C2_3
REMARK    2  A    between atoms: C4_5  and  C5_6
REMARK    3  A    between atoms: C11_15  and  N2_16
REMARK    4  A    between atoms: N2_16  and  N3_18
REMARK    5  A    between atoms: N3_18  and  N4_19
REMARK    6  A    between atoms: C12_22  and  O2_23
REMARK    7  A    between atoms: C15_27  and  O3_28
REMARK    8  A    between atoms: C17_30  and  O4_31
ROOT
HETATM    1  C5  UNL     1       3.761  -0.171  23.000  1.00  0.00     0.003 A
HETATM    2  C6  UNL     1       3.355  -1.472  23.191  1.00  0.00    -0.007 A
HETATM    3  C7  UNL     1       1.958  -1.977  23.474  1.00  0.00     0.057 C
HETATM    4  S1  UNL     1       4.802  -2.354  23.034  1.00  0.00    -0.075 SA
HETATM    5  C8  UNL     1       5.882  -1.071  22.732  1.00  0.00     0.088 A
HETATM    6  N1  UNL     1       7.229  -1.037  22.505  1.00  0.00    -0.351 N
ATOM      7  H1  UNL     1       7.754  -1.911  22.500  1.00  0.00     0.166 HD
HETATM    8  C9  UNL     1       7.886   0.131  22.286  1.00  0.00     0.038 A
HETATM    9  C10 UNL     1       9.343   0.125  22.033  1.00  0.00     0.070 C
HETATM   10  C11 UNL     1       7.085   1.248  22.315  1.00  0.00     0.118 A
HETATM   11  C12 UNL     1       5.745   1.253  22.536  1.00  0.00     0.110 A
HETATM   12  C13 UNL     1       5.076   0.028  22.762  1.00  0.00     0.045 A
ENDROOT
BRANCH   1  13
HETATM   13  C4  UNL     1       2.724   0.889  23.052  1.00  0.00    -0.018 A
HETATM   14  C3  UNL     1       2.556   1.682  24.163  1.00  0.00     0.052 A
HETATM   15  C2  UNL     1       1.622   2.683  24.235  1.00  0.00     0.105 A
HETATM   16  C17 UNL     1       0.834   2.872  23.121  1.00  0.00     0.135 A
HETATM   17  C15 UNL     1       0.981   2.085  21.984  1.00  0.00     0.105 A
HETATM   18  C14 UNL     1       1.946   1.070  21.947  1.00  0.00     0.052 A
BRANCH  15  19
HETATM   19  O1  UNL     1       1.428   3.504  25.346  1.00  0.00    -0.353 OA
HETATM   20  C1  UNL     1       0.991   2.831  26.536  1.00  0.00     0.210 C
ENDBRANCH  15  19
BRANCH  16  21
HETATM   21  O4  UNL     1      -0.112   3.859  23.141  1.00  0.00    -0.351 OA
HETATM   22  C18 UNL     1      -1.433   3.734  23.628  1.00  0.00     0.210 C
ENDBRANCH  16  21
BRANCH  17  23
HETATM   23  O3  UNL     1       0.156   2.322  20.895  1.00  0.00    -0.353 OA
HETATM   24  C16 UNL     1      -0.988   1.551  20.636  1.00  0.00     0.210 C
ENDBRANCH  17  23
ENDBRANCH   1  13
BRANCH  11  25
HETATM   25  O2  UNL     1       5.060   2.454  22.538  1.00  0.00    -0.357 OA
ATOM     26  H2  UNL     1       4.345   2.585  21.926  1.00  0.00     0.217 HD
ENDBRANCH  11  25
BRANCH  10  27
HETATM   27  N2  UNL     1       7.718   2.528  22.105  1.00  0.00    -0.212 N
ATOM     28  H2  UNL     1       8.326   2.919  22.825  1.00  0.00     0.204 HD
BRANCH  27  29
HETATM   29  N3  UNL     1       7.526   3.153  21.056  1.00  0.00    -0.243 NA
BRANCH  29  30
HETATM   30  N4  UNL     1       7.480   4.086  20.263  1.00  0.00    -0.260 N
ATOM     31  H42 UNL     1       8.471   4.081  20.016  1.00  0.00     0.193 HD
ATOM     32  H41 UNL     1       7.103   4.849  19.700  1.00  0.00     0.193 HD
ENDBRANCH  29  30
ENDBRANCH  27  29
ENDBRANCH  10  27
TORSDOF 8
ENDMDL