MODEL 4
REMARK VINA RESULT: -6.188952081      2.813      4.008
REMARK  7 active torsions:
REMARK  status: ('A' for Active; 'I' for Inactive)
REMARK    1  A    between atoms: C2_2  and  O1_3
REMARK    2  A    between atoms: O1_3  and  C3_4
REMARK    3  A    between atoms: C3_4  and  C4_6
REMARK    4  A    between atoms: C5_7  and  N1_8
REMARK    5  A    between atoms: N2_10  and  C6_12
REMARK    6  A    between atoms: C7_14  and  C8_15
REMARK    7  A    between atoms: C8_15  and  N4_19
ROOT
HETATM    1  N1  UNL     1       3.414  17.375  24.353  1.00  0.00    -0.292 N
ATOM      2  H1  UNL     1       4.074  17.124  25.089  1.00  0.00     0.187 HD
HETATM    3  N2  UNL     1       3.414  16.725  23.270  1.00  0.00    -0.291 N
ATOM      4  H2  UNL     1       2.755  16.976  22.534  1.00  0.00     0.187 HD
ENDROOT
BRANCH   3   5
HETATM    5  C6  UNL     1       4.335  15.628  23.058  1.00  0.00     0.112 A
HETATM    6  S1  UNL     1       4.022  13.966  22.951  1.00  0.00    -0.065 SA
HETATM    7  C7  UNL     1       5.650  13.379  22.696  1.00  0.00     0.058 A
HETATM    8  C11 UNL     1       6.362  14.540  22.708  1.00  0.00    -0.017 A
HETATM    9  C12 UNL     1       7.872  14.518  22.506  1.00  0.00     0.052 C
HETATM   10  C13 UNL     1       5.689  15.692  22.894  1.00  0.00     0.076 A
HETATM   11 CL1  UNL     1       6.463  17.315  22.948  1.00  0.00    -0.081 Cl
BRANCH   7  12
HETATM   12  C8  UNL     1       5.985  11.969  22.546  1.00  0.00     0.114 C
HETATM   13  N3  UNL     1       5.591  11.173  23.541  1.00  0.00    -0.384 N
ATOM     14  H32 UNL     1       5.086  11.599  24.319  1.00  0.00     0.157 HD
ATOM     15  H31 UNL     1       5.827  10.186  23.437  1.00  0.00     0.157 HD
BRANCH  12  16
HETATM   16  N4  UNL     1       6.673  11.389  21.488  1.00  0.00    -0.375 N
HETATM   17  C9  UNL     1       5.985  10.403  20.636  1.00  0.00     0.150 C
HETATM   18  C10 UNL     1       8.049  11.688  21.224  1.00  0.00     0.150 C
ENDBRANCH  12  16
ENDBRANCH   7  12
ENDBRANCH   3   5
BRANCH   1  19
HETATM   19  C5  UNL     1       2.494  18.469  24.566  1.00  0.00     0.106 A
HETATM   20  C4  UNL     1       1.815  18.793  25.715  1.00  0.00     0.081 A
HETATM   21  C16 UNL     1       1.011  19.872  25.655  1.00  0.00    -0.030 A
HETATM   22  C14 UNL     1       0.948  20.538  24.462  1.00  0.00    -0.012 A
HETATM   23  C17 UNL     1       0.190  20.358  26.847  1.00  0.00     0.050 C
HETATM   24  S2  UNL     1       1.999  19.661  23.454  1.00  0.00    -0.074 SA
HETATM   25  C15 UNL     1       0.132  21.764  24.136  1.00  0.00     0.057 C
BRANCH  20  26
HETATM   26  C3  UNL     1       1.996  17.958  26.943  1.00  0.00     0.296 C
HETATM   27  O2  UNL     1       1.631  16.761  26.991  1.00  0.00    -0.259 OA
BRANCH  26  28
HETATM   28  O1  UNL     1       2.577  18.463  28.095  1.00  0.00    -0.318 OA
BRANCH  28  29
HETATM   29  C2  UNL     1       3.710  19.312  28.055  1.00  0.00     0.174 C
HETATM   30  C1  UNL     1       3.366  20.714  28.457  1.00  0.00     0.034 C
ENDBRANCH  28  29
ENDBRANCH  26  28
ENDBRANCH  20  26
ENDBRANCH   1  19
TORSDOF 7
ENDMDL