MODEL 5
REMARK VINA RESULT: -8.099637772      2.143      3.040
REMARK  5 active torsions:
REMARK  status: ('A' for Active; 'I' for Inactive)
REMARK    1  A    between atoms: C7_8  and  N2_9
REMARK    2  A    between atoms: N2_9  and  N3_10
REMARK    3  A    between atoms: C8_11  and  C9_12
REMARK    4  A    between atoms: C9_12  and  S1_13
REMARK    5  A    between atoms: S1_13  and  C10_14
ROOT
HETATM    1  N1  UNL     1       2.334  20.719  26.840  1.00  0.00    -0.196 NA
HETATM    2  C1  UNL     1       2.878  20.811  25.825  1.00  0.00     0.071 C
HETATM    3  C2  UNL     1       3.553  20.937  24.535  1.00  0.00     0.154 C
HETATM    4  C3  UNL     1       3.848  22.390  24.278  1.00  0.00     0.026 C
HETATM    5  C4  UNL     1       2.566  23.169  24.518  1.00  0.00     0.002 C
HETATM    6  C5  UNL     1       1.465  22.662  23.611  1.00  0.00     0.007 C
HETATM    7  C6  UNL     1       1.922  21.557  22.681  1.00  0.00     0.072 C
HETATM    8  C7  UNL     1       2.611  20.469  23.450  1.00  0.00     0.105 C
ENDROOT
BRANCH   8   9
HETATM    9  N2  UNL     1       2.444  19.298  23.269  1.00  0.00    -0.322 NA
BRANCH   9  10
HETATM   10  N3  UNL     1       2.276  18.038  23.063  1.00  0.00    -0.148 N
HETATM   11  C8  UNL     1       3.012  16.993  23.554  1.00  0.00     0.143 A
HETATM   12  N5  UNL     1       2.470  15.820  23.168  1.00  0.00    -0.284 N
HETATM   13  N6  UNL     1       1.427  16.077  22.449  1.00  0.00    -0.272 N
ATOM     14  H5  UNL     1       2.822  14.893  23.402  1.00  0.00     0.188 HD
HETATM   15  C17 UNL     1       1.269  17.388  22.358  1.00  0.00     0.225 A
ATOM     16  H6  UNL     1       0.820  15.378  22.020  1.00  0.00     0.189 HD
HETATM   17  S2  UNL     1       0.051  18.131  21.525  1.00  0.00    -0.036 SA
BRANCH  11  18
HETATM   18  C9  UNL     1       4.283  17.148  24.328  1.00  0.00     0.164 C
BRANCH  18  19
HETATM   19  S1  UNL     1       5.667  17.147  23.128  1.00  0.00    -0.079 SA
BRANCH  19  20
HETATM   20  C10 UNL     1       6.068  15.416  22.758  1.00  0.00     0.188 A
HETATM   21  N4  UNL     1       7.061  14.914  22.016  1.00  0.00    -0.329 N
HETATM   22  C11 UNL     1       7.007  13.558  22.003  1.00  0.00     0.069 A
ATOM     23  H4  UNL     1       7.761  15.472  21.528  1.00  0.00     0.168 HD
HETATM   24  C12 UNL     1       7.731  12.530  21.442  1.00  0.00     0.035 A
HETATM   25  C16 UNL     1       5.898  13.242  22.795  1.00  0.00     0.108 A
HETATM   26  C13 UNL     1       7.447  11.193  21.605  1.00  0.00     0.044 A
HETATM   27  C14 UNL     1       6.328  10.903  22.405  1.00  0.00     0.119 A
HETATM   28  F1  UNL     1       6.023   9.587  22.579  1.00  0.00    -0.206 F
HETATM   29  C15 UNL     1       5.588  11.912  22.975  1.00  0.00     0.082 A
HETATM   30  O1  UNL     1       5.405  14.377  23.197  1.00  0.00    -0.285 OA
ENDBRANCH  19  20
ENDBRANCH  18  19
ENDBRANCH  11  18
ENDBRANCH   9  10
ENDBRANCH   8   9
TORSDOF 5
ENDMDL