MODEL 4
REMARK VINA RESULT: -8.477746191      2.054      3.374
REMARK  5 active torsions:
REMARK  status: ('A' for Active; 'I' for Inactive)
REMARK    1  A    between atoms: C7_7  and  C9_9
REMARK    2  A    between atoms: C9_9  and  N1_10
REMARK    3  A    between atoms: N1_10  and  C10_12
REMARK    4  A    between atoms: C12_14  and  O1_15
REMARK    5  A    between atoms: C14_17  and  S1_18
ROOT
HETATM    1  C1  UNL     1       7.195   9.337  22.985  1.00  0.00     0.013 C
HETATM    2  C2  UNL     1       6.775  10.321  22.428  1.00  0.00    -0.106 C
HETATM    3  C3  UNL     1       6.254  11.536  21.759  1.00  0.00     0.036 C
HETATM    4  C4  UNL     1       5.312  11.029  20.672  1.00  0.00     0.030 C
HETATM    5  C5  UNL     1       7.410  12.200  21.092  1.00  0.00     0.024 C
HETATM    6  C6  UNL     1       7.153  13.700  20.967  1.00  0.00     0.012 C
HETATM    7  C7  UNL     1       7.154  14.285  22.363  1.00  0.00    -0.027 C
HETATM    8  C8  UNL     1       8.618  14.272  22.821  1.00  0.00     0.017 C
HETATM    9  C18 UNL     1       6.381  13.469  23.347  1.00  0.00     0.032 C
HETATM   10  C19 UNL     1       5.537  12.398  22.746  1.00  0.00     0.103 C
HETATM   11 CL1  UNL     1       5.009  11.325  24.091  1.00  0.00    -0.123 Cl
ENDROOT
BRANCH   7  12
HETATM   12  C9  UNL     1       6.729  15.733  22.357  1.00  0.00     0.129 C
BRANCH  12  13
HETATM   13  N1  UNL     1       5.330  15.820  22.143  1.00  0.00    -0.387 N
ATOM     14  H1  UNL     1       4.965  15.372  21.302  1.00  0.00     0.159 HD
BRANCH  13  15
HETATM   15  C10 UNL     1       4.394  16.465  22.979  1.00  0.00     0.062 A
HETATM   16  C11 UNL     1       4.719  17.510  23.830  1.00  0.00     0.069 A
HETATM   17  C12 UNL     1       3.789  18.125  24.639  1.00  0.00     0.090 A
HETATM   18  C14 UNL     1       2.497  17.696  24.607  1.00  0.00     0.079 A
HETATM   19  C16 UNL     1       2.107  16.652  23.774  1.00  0.00     0.108 A
HETATM   20  N3  UNL     1       0.958  16.005  23.508  1.00  0.00    -0.238 N
HETATM   21  C17 UNL     1       3.084  16.055  22.970  1.00  0.00     0.113 A
HETATM   22  O2  UNL     1       1.173  15.081  22.619  1.00  0.00    -0.156 OA
ATOM     23  H3  UNL     1       0.056  16.209  23.938  1.00  0.00     0.197 HD
HETATM   24  N4  UNL     1       2.440  15.110  22.298  1.00  0.00    -0.237 N
ATOM     25  H4  UNL     1       2.877  14.487  21.618  1.00  0.00     0.197 HD
BRANCH  17  26
HETATM   26  O1  UNL     1       4.128  19.167  25.483  1.00  0.00    -0.354 OA
HETATM   27  C13 UNL     1       4.607  20.360  24.892  1.00  0.00     0.210 C
ENDBRANCH  17  26
BRANCH  18  28
HETATM   28  S1  UNL     1       1.264  18.451  25.623  1.00  0.00    -0.006 SA
HETATM   29  C15 UNL     1       0.327  19.593  24.656  1.00  0.00     0.139 C
HETATM   30  N2  UNL     1      -0.271  20.348  24.011  1.00  0.00    -0.184 NA
ENDBRANCH  18  28
ENDBRANCH  13  15
ENDBRANCH  12  13
ENDBRANCH   7  12
TORSDOF 5
ENDMDL