MODEL 1
REMARK VINA RESULT: -9.014933246      0.000      0.000
REMARK  5 active torsions:
REMARK  status: ('A' for Active; 'I' for Inactive)
REMARK    1  A    between atoms: C6_7  and  N1_8
REMARK    2  A    between atoms: N2_10  and  C7_12
REMARK    3  A    between atoms: C9_14  and  C10_15
REMARK    4  A    between atoms: C10_15  and  N3_16
REMARK    5  A    between atoms: C16_25  and  N5_26
ROOT
HETATM    1  C1  UNL     1       5.985  10.715  21.654  1.00  0.00     0.050 C
HETATM    2  C2  UNL     1       6.101  12.158  21.893  1.00  0.00    -0.039 A
HETATM    3  C3  UNL     1       4.978  12.912  22.171  1.00  0.00     0.026 A
HETATM    4  C4  UNL     1       5.040  14.274  22.402  1.00  0.00     0.044 A
HETATM    5  C5  UNL     1       3.894  15.008  22.680  1.00  0.00     0.216 A
HETATM    6  O1  UNL     1       2.777  14.477  22.732  1.00  0.00    -0.285 OA
HETATM    7  C6  UNL     1       3.991  16.366  22.906  1.00  0.00     0.145 A
HETATM    8  C16 UNL     1       5.249  16.925  22.840  1.00  0.00     0.152 A
HETATM    9  N7  UNL     1       6.357  16.188  22.567  1.00  0.00    -0.339 N
ATOM     10  H7  UNL     1       7.265  16.651  22.531  1.00  0.00     0.167 HD
HETATM   11  C17 UNL     1       6.287  14.863  22.343  1.00  0.00     0.049 A
HETATM   12  C18 UNL     1       7.434  14.138  22.067  1.00  0.00     0.054 A
HETATM   13  C19 UNL     1       7.334  12.777  21.841  1.00  0.00     0.042 A
HETATM   14 CL1  UNL     1       8.738  11.784  21.484  1.00  0.00    -0.084 Cl
ENDROOT
BRANCH   7  15
HETATM   15  N1  UNL     1       2.878  17.202  23.197  1.00  0.00    -0.292 N
HETATM   16  N2  UNL     1       1.926  16.848  23.951  1.00  0.00    -0.283 N
ATOM     17  H2  UNL     1       1.924  15.926  24.387  1.00  0.00     0.188 HD
ATOM     18  H1  UNL     1       2.847  18.132  22.779  1.00  0.00     0.187 HD
BRANCH  16  19
HETATM   19  C7  UNL     1       0.859  17.763  24.178  1.00  0.00     0.142 A
HETATM   20  C8  UNL     1       0.853  18.902  24.969  1.00  0.00     0.088 A
HETATM   21  C9  UNL     1      -0.402  19.483  24.893  1.00  0.00     0.108 A
HETATM   22  O2  UNL     1      -1.086  18.707  24.090  1.00  0.00    -0.239 OA
HETATM   23  N4  UNL     1      -0.396  17.716  23.666  1.00  0.00    -0.243 N
ATOM     24  H4  UNL     1      -0.739  16.995  23.032  1.00  0.00     0.196 HD
BRANCH  21  25
HETATM   25  C10 UNL     1      -0.861  20.734  25.588  1.00  0.00     0.339 C
BRANCH  25  26
HETATM   26  N3  UNL     1       0.191  21.209  26.435  1.00  0.00     0.094 N
HETATM   27  C11 UNL     1      -0.162  21.211  27.821  1.00  0.00     0.273 C
HETATM   28  C12 UNL     1       0.365  22.455  28.541  1.00  0.00     0.030 C
HETATM   29  C13 UNL     1       1.823  22.609  28.112  1.00  0.00     0.003 C
HETATM   30  C14 UNL     1       1.805  23.052  26.658  1.00  0.00     0.030 C
HETATM   31  C15 UNL     1       0.582  22.527  25.963  1.00  0.00     0.273 C
ENDBRANCH  25  26
ENDBRANCH  21  25
ENDBRANCH  16  19
ENDBRANCH   7  15
BRANCH   8  32
HETATM   32  N5  UNL     1       5.397  18.313  23.065  1.00  0.00    -0.290 N
HETATM   33  N6  UNL     1       5.676  18.810  24.193  1.00  0.00    -0.344 N
ATOM     34  H62 UNL     1       5.797  18.162  24.971  1.00  0.00     0.176 HD
ATOM     35  H61 UNL     1       5.783  19.811  24.355  1.00  0.00     0.176 HD
ATOM     36  H5  UNL     1       5.274  18.947  22.275  1.00  0.00     0.188 HD
ENDBRANCH   8  32
TORSDOF 5
ENDMDL