MODEL 5
REMARK VINA RESULT: -7.475476193      2.943      6.842
REMARK  6 active torsions:
REMARK  status: ('A' for Active; 'I' for Inactive)
REMARK    1  A    between atoms: C2_2  and  C3_3
REMARK    2  A    between atoms: C3_3  and  N1_4
REMARK    3  A    between atoms: C6_10  and  C7_11
REMARK    4  A    between atoms: C7_11  and  C8_12
REMARK    5  A    between atoms: C8_12  and  C9_13
REMARK    6  A    between atoms: C9_13  and  N3_14
REMARK       I    between atoms: N3_14  and  C10_16
ROOT
HETATM    1  N1  UNL     1      -7.488 -26.348  -5.723  1.00  0.00    -0.340 N
HETATM    2  C4  UNL     1      -7.924 -26.700  -4.397  1.00  0.00     0.228 C
HETATM    3  C5  UNL     1      -9.075 -25.926  -3.921  1.00  0.00     0.236 C
HETATM    4  O1  UNL     1     -10.236 -26.389  -4.199  1.00  0.00    -0.272 OA
HETATM    5  N2  UNL     1      -9.036 -24.721  -3.188  1.00  0.00    -0.346 N
ATOM      6  H2  UNL     1      -9.691 -23.984  -3.445  1.00  0.00     0.163 HD
HETATM    7  C6  UNL     1      -8.115 -24.465  -2.082  1.00  0.00     0.176 C
HETATM    8  C11 UNL     1      -7.996 -23.001  -1.892  1.00  0.00     0.242 C
HETATM    9  O2  UNL     1      -8.707 -22.263  -2.662  1.00  0.00    -0.271 OA
HETATM   10  N6  UNL     1      -7.189 -22.329  -0.958  1.00  0.00    -0.329 N
ATOM     11  H6  UNL     1      -7.684 -21.704  -0.322  1.00  0.00     0.164 HD
HETATM   12  C12 UNL     1      -5.774 -22.396  -0.770  1.00  0.00     0.324 C
HETATM   13  C13 UNL     1      -5.493 -22.930   0.628  1.00  0.00     0.059 C
HETATM   14  C14 UNL     1      -3.981 -23.160   0.480  1.00  0.00     0.034 C
HETATM   15  C15 UNL     1      -3.904 -23.762  -0.895  1.00  0.00     0.275 C
HETATM   16  N7  UNL     1      -5.046 -23.236  -1.660  1.00  0.00     0.111 N
HETATM   17  C16 UNL     1      -4.470 -22.343  -2.679  1.00  0.00     0.275 C
HETATM   18  C17 UNL     1      -4.663 -22.857  -4.063  1.00  0.00     0.030 C
HETATM   19  C18 UNL     1      -3.575 -23.822  -4.489  1.00  0.00     0.002 C
HETATM   20  C19 UNL     1      -4.129 -24.541  -5.720  1.00  0.00     0.009 C
HETATM   21  C20 UNL     1      -5.056 -25.657  -5.334  1.00  0.00     0.103 C
HETATM   22  C21 UNL     1      -6.366 -25.562  -6.037  1.00  0.00     0.220 C
HETATM   23  O3  UNL     1      -6.441 -24.715  -6.966  1.00  0.00    -0.273 OA
ENDROOT
BRANCH   7  24
HETATM   24  C7  UNL     1      -8.656 -25.127  -0.820  1.00  0.00     0.036 C
BRANCH  24  25
HETATM   25  C8  UNL     1      -7.642 -26.083  -0.235  1.00  0.00     0.022 C
BRANCH  25  26
HETATM   26  C9  UNL     1      -7.875 -26.172   1.279  1.00  0.00     0.122 C
BRANCH  26  27
HETATM   27  N3  UNL     1      -6.821 -26.910   1.935  1.00  0.00    -0.365 N
HETATM   28  C10 UNL     1      -5.586 -26.270   2.188  1.00  0.00     0.181 C
HETATM   29  N4  UNL     1      -4.528 -26.542   1.511  1.00  0.00    -0.374 N
HETATM   30  N5  UNL     1      -5.548 -25.310   3.224  1.00  0.00    -0.064 NA
ATOM     31  H42 UNL     1      -4.556 -27.236   0.763  1.00  0.00     0.158 HD
ATOM     32  H41 UNL     1      -3.638 -26.080   1.693  1.00  0.00     0.158 HD
ATOM     33  H3  UNL     1      -6.964 -27.881   2.211  1.00  0.00     0.162 HD
ENDBRANCH  26  27
ENDBRANCH  25  26
ENDBRANCH  24  25
ENDBRANCH   7  24
BRANCH   1  34
HETATM   34  C3  UNL     1      -8.297 -26.865  -6.840  1.00  0.00     0.153 C
BRANCH  34  35
HETATM   35  C2  UNL     1      -8.546 -28.302  -6.639  1.00  0.00    -0.017 C
HETATM   36  C1  UNL     1      -7.622 -29.205  -6.910  1.00  0.00     0.008 C
ENDBRANCH  34  35
ENDBRANCH   1  34
TORSDOF 6
ENDMDL