MODEL 4
REMARK VINA RESULT: -7.992984630      3.362      7.411
REMARK  9 active torsions:
REMARK  status: ('A' for Active; 'I' for Inactive)
REMARK    1  A    between atoms: C3_3  and  C4_4
REMARK    2  A    between atoms: C6_6  and  O1_7
REMARK    3  A    between atoms: C9_16  and  C10_17
REMARK    4  A    between atoms: C13_23  and  C14_24
REMARK    5  A    between atoms: C14_24  and  C15_25
REMARK    6  A    between atoms: N5_32  and  C19_33
REMARK    7  A    between atoms: C19_33  and  C20_34
REMARK    8  A    between atoms: C20_34  and  C21_35
REMARK    9  A    between atoms: C21_35  and  C22_36
ROOT
HETATM    1  C1  UNL     1      -3.563 -22.760   0.473  1.00  0.00     0.044 C
HETATM    2  C2  UNL     1      -4.194 -23.586  -0.368  1.00  0.00     0.035 A
HETATM    3  C3  UNL     1      -4.315 -24.949  -0.267  1.00  0.00    -0.007 A
HETATM    4  C8  UNL     1      -5.058 -25.355  -1.399  1.00  0.00     0.043 A
HETATM    5  C9  UNL     1      -5.356 -24.251  -2.128  1.00  0.00     0.038 A
HETATM    6  N5  UNL     1      -4.835 -23.191  -1.505  1.00  0.00    -0.347 N
ENDROOT
BRANCH   5   7
HETATM    7  C10 UNL     1      -6.105 -24.214  -3.371  1.00  0.00     0.065 C
HETATM    8  C11 UNL     1      -5.621 -24.205  -4.583  1.00  0.00     0.106 A
HETATM    9  N3  UNL     1      -6.451 -24.168  -5.647  1.00  0.00    -0.317 N
HETATM   10  C18 UNL     1      -4.279 -24.230  -4.846  1.00  0.00     0.273 A
HETATM   11  C12 UNL     1      -5.988 -24.158  -6.911  1.00  0.00     0.272 A
ATOM     12  H3  UNL     1      -7.459 -24.148  -5.488  1.00  0.00     0.169 HD
HETATM   13  O3  UNL     1      -6.740 -24.124  -7.914  1.00  0.00    -0.266 OA
HETATM   14  C13 UNL     1      -4.631 -24.184  -7.153  1.00  0.00     0.100 A
HETATM   15  N4  UNL     1      -3.782 -24.221  -6.121  1.00  0.00    -0.317 N
ATOM     16  H4  UNL     1      -2.775 -24.241  -6.282  1.00  0.00     0.169 HD
HETATM   17  O4  UNL     1      -3.470 -24.264  -3.900  1.00  0.00    -0.266 OA
BRANCH  14  18
HETATM   18  C14 UNL     1      -4.129 -24.175  -8.375  1.00  0.00     0.012 C
BRANCH  18  19
HETATM   19  C15 UNL     1      -3.352 -23.062  -8.936  1.00  0.00     0.002 C
HETATM   20  C16 UNL     1      -4.201 -21.828  -9.177  1.00  0.00     0.013 C
HETATM   21  C17 UNL     1      -2.808 -23.478 -10.286  1.00  0.00     0.013 C
ENDBRANCH  18  19
ENDBRANCH  14  18
ENDBRANCH   5   7
BRANCH   6  22
HETATM   22  C19 UNL     1      -4.912 -21.798  -1.917  1.00  0.00     0.129 C
BRANCH  22  23
HETATM   23  C20 UNL     1      -6.294 -21.243  -1.763  1.00  0.00     0.020 C
BRANCH  23  24
HETATM   24  C21 UNL     1      -6.658 -20.921  -0.334  1.00  0.00     0.001 C
BRANCH  24  25
HETATM   25  C22 UNL     1      -7.849 -21.745   0.122  1.00  0.00    -0.004 C
HETATM   26  C23 UNL     1      -8.450 -22.509  -1.050  1.00  0.00     0.005 C
ENDBRANCH  24  25
ENDBRANCH  23  24
ENDBRANCH  22  23
ENDBRANCH   6  22
BRANCH   3  27
HETATM   27  C4  UNL     1      -3.872 -25.785   0.642  1.00  0.00     0.035 C
HETATM   28  C5  UNL     1      -2.556 -26.256   0.963  1.00  0.00     0.086 A
HETATM   29  C6  UNL     1      -1.620 -25.734   1.868  1.00  0.00     0.171 A
HETATM   30  C7  UNL     1      -1.932 -27.403   0.452  1.00  0.00     0.274 A
HETATM   31  N1  UNL     1      -0.555 -26.545   1.850  1.00  0.00    -0.276 N
HETATM   32  N2  UNL     1      -0.723 -27.545   1.011  1.00  0.00    -0.264 N
ATOM     33  H1  UNL     1       0.281 -26.405   2.416  1.00  0.00     0.189 HD
ATOM     34  H2  UNL     1      -0.054 -28.292   0.821  1.00  0.00     0.190 HD
HETATM   35  O2  UNL     1      -2.473 -28.160  -0.410  1.00  0.00    -0.266 OA
BRANCH  29  36
HETATM   36  O1  UNL     1      -1.869 -24.581   2.590  1.00  0.00    -0.344 OA
ATOM     37  H1  UNL     1      -1.295 -23.826   2.541  1.00  0.00     0.219 HD
ENDBRANCH  29  36
ENDBRANCH   3  27
TORSDOF 9
ENDMDL