MODEL 4
REMARK VINA RESULT: -7.018316080      1.288      1.426
REMARK  6 active torsions:
REMARK  status: ('A' for Active; 'I' for Inactive)
REMARK    1  A    between atoms: C2_2  and  C3_3
REMARK    2  A    between atoms: C7_10  and  C8_11
REMARK    3  A    between atoms: C8_11  and  C9_12
REMARK    4  A    between atoms: C9_12  and  C10_13
REMARK    5  A    between atoms: C10_13  and  N2_14
REMARK    6  A    between atoms: C16_29  and  C17_30
ROOT
HETATM    1  C3  UNL     1      -2.339 -24.647  -0.731  1.00  0.00     0.026 C
HETATM    2  C4  UNL     1      -2.697 -23.746  -1.893  1.00  0.00     0.019 C
HETATM    3  C5  UNL     1      -3.510 -24.511  -2.891  1.00  0.00     0.103 C
HETATM    4  C6  UNL     1      -3.528 -23.834  -4.206  1.00  0.00     0.218 C
HETATM    5  O1  UNL     1      -2.903 -22.755  -4.331  1.00  0.00    -0.274 OA
HETATM    6  N1  UNL     1      -4.224 -24.370  -5.312  1.00  0.00    -0.348 N
ATOM      7  H1  UNL     1      -3.842 -24.241  -6.249  1.00  0.00     0.163 HD
HETATM    8  C7  UNL     1      -5.467 -25.099  -5.150  1.00  0.00     0.176 C
HETATM    9  C12 UNL     1      -6.646 -24.241  -5.429  1.00  0.00     0.240 C
HETATM   10  O2  UNL     1      -6.604 -23.459  -6.415  1.00  0.00    -0.271 OA
HETATM   11  N5  UNL     1      -7.824 -24.256  -4.643  1.00  0.00    -0.359 N
ATOM     12  H5  UNL     1      -8.673 -23.822  -5.005  1.00  0.00     0.162 HD
HETATM   13  C13 UNL     1      -7.844 -24.877  -3.335  1.00  0.00     0.124 C
HETATM   14  C14 UNL     1      -8.980 -24.365  -2.489  1.00  0.00     0.047 C
HETATM   15  C15 UNL     1      -8.531 -24.437  -1.026  1.00  0.00     0.235 C
HETATM   16  N6  UNL     1      -7.418 -23.502  -0.912  1.00  0.00    -0.062 N
ATOM     17  H61 UNL     1      -7.735 -22.564  -0.668  1.00  0.00     0.278 HD
ATOM     18  H62 UNL     1      -7.005 -23.293  -1.821  1.00  0.00     0.278 HD
HETATM   19  C16 UNL     1      -6.427 -23.994   0.028  1.00  0.00     0.276 C
HETATM   20  C19 UNL     1      -5.334 -23.020   0.125  1.00  0.00     0.250 C
HETATM   21  O3  UNL     1      -5.567 -21.819  -0.167  1.00  0.00    -0.271 OA
HETATM   22  N7  UNL     1      -4.004 -23.342   0.533  1.00  0.00    -0.354 N
HETATM   23  C20 UNL     1      -3.180 -22.333   1.186  1.00  0.00     0.152 C
HETATM   24  C21 UNL     1      -3.419 -24.645   0.330  1.00  0.00     0.133 C
ENDROOT
BRANCH   8  25
HETATM   25  C8  UNL     1      -5.486 -26.371  -5.960  1.00  0.00     0.036 C
BRANCH  25  26
HETATM   26  C9  UNL     1      -5.861 -27.576  -5.134  1.00  0.00     0.022 C
BRANCH  26  27
HETATM   27  C10 UNL     1      -7.044 -28.235  -5.854  1.00  0.00     0.122 C
BRANCH  27  28
HETATM   28  N2  UNL     1      -8.279 -27.997  -5.168  1.00  0.00    -0.367 N
HETATM   29  C11 UNL     1      -9.222 -27.251  -5.561  1.00  0.00     0.196 C
HETATM   30  N3  UNL     1      -9.133 -26.546  -6.787  1.00  0.00    -0.067 NA
HETATM   31  N4  UNL     1     -10.389 -27.119  -4.764  1.00  0.00    -0.067 NA
ATOM     32  H2  UNL     1      -8.410 -28.475  -4.277  1.00  0.00     0.161 HD
ENDBRANCH  27  28
ENDBRANCH  26  27
ENDBRANCH  25  26
ENDBRANCH   8  25
BRANCH   1  33
HETATM   33  C2  UNL     1      -1.012 -24.319  -0.174  1.00  0.00    -0.031 C
HETATM   34  C1  UNL     1       0.076 -24.533  -0.879  1.00  0.00     0.007 C
ENDBRANCH   1  33
BRANCH  19  35
HETATM   35  C17 UNL     1      -7.062 -24.272   1.384  1.00  0.00     0.038 C
HETATM   36  C18 UNL     1      -6.637 -25.580   1.967  1.00  0.00     0.007 C
ENDBRANCH  19  35
TORSDOF 6
ENDMDL