MODEL 1
REMARK VINA RESULT: -7.867040644      0.000      0.000
REMARK  6 active torsions:
REMARK  status: ('A' for Active; 'I' for Inactive)
REMARK    1  A    between atoms: C10_15  and  C11_16
REMARK    2  A    between atoms: C11_16  and  N3_17
REMARK    3  A    between atoms: C16_25  and  C17_26
REMARK    4  A    between atoms: C17_26  and  C18_27
REMARK    5  A    between atoms: C18_27  and  C19_28
REMARK    6  A    between atoms: C19_28  and  N5_29
ROOT
HETATM    1  C1  UNL     1      -5.058 -21.531   2.472  1.00  0.00     0.050 C
HETATM    2  C2  UNL     1      -4.944 -22.415   1.230  1.00  0.00     0.273 C
HETATM    3  N1  UNL     1      -5.719 -23.589   1.501  1.00  0.00    -0.063 N
ATOM      4  H11 UNL     1      -5.874 -24.170   0.678  1.00  0.00     0.278 HD
ATOM      5  H12 UNL     1      -6.699 -23.389   1.701  1.00  0.00     0.278 HD
HETATM    6  C3  UNL     1      -5.033 -24.297   2.594  1.00  0.00     0.233 C
HETATM    7  C4  UNL     1      -4.800 -25.745   2.226  1.00  0.00     0.027 C
HETATM    8  C5  UNL     1      -3.391 -25.938   1.696  1.00  0.00     0.002 C
HETATM    9  C6  UNL     1      -3.450 -26.919   0.567  1.00  0.00     0.000 C
HETATM   10  C7  UNL     1      -2.255 -26.676  -0.326  1.00  0.00     0.002 C
HETATM   11  C8  UNL     1      -2.791 -26.161  -1.646  1.00  0.00     0.020 C
HETATM   12  C9  UNL     1      -3.137 -24.702  -1.485  1.00  0.00     0.121 C
HETATM   13  N2  UNL     1      -3.331 -24.009  -2.703  1.00  0.00    -0.378 N
ATOM     14  H2  UNL     1      -2.515 -23.516  -3.066  1.00  0.00     0.160 HD
HETATM   15  C10 UNL     1      -4.409 -23.917  -3.418  1.00  0.00     0.106 C
HETATM   16  N4  UNL     1      -5.647 -24.530  -3.098  1.00  0.00    -0.314 N
ATOM     17  H4  UNL     1      -6.041 -25.136  -3.819  1.00  0.00     0.170 HD
HETATM   18  C15 UNL     1      -6.408 -24.411  -1.908  1.00  0.00     0.245 C
HETATM   19  O1  UNL     1      -6.663 -25.522  -1.319  1.00  0.00    -0.271 OA
HETATM   20  C16 UNL     1      -6.912 -23.146  -1.320  1.00  0.00     0.177 C
HETATM   21  N8  UNL     1      -5.881 -22.143  -1.159  1.00  0.00    -0.346 N
ATOM     22  H8  UNL     1      -5.480 -21.762  -2.016  1.00  0.00     0.163 HD
HETATM   23  C21 UNL     1      -5.371 -21.634   0.053  1.00  0.00     0.248 C
HETATM   24  O2  UNL     1      -5.266 -20.373   0.151  1.00  0.00    -0.271 OA
ENDROOT
BRANCH  20  25
HETATM   25  C17 UNL     1      -8.012 -22.555  -2.229  1.00  0.00     0.036 C
BRANCH  25  26
HETATM   26  C18 UNL     1      -9.282 -23.305  -2.075  1.00  0.00     0.022 C
BRANCH  26  27
HETATM   27  C19 UNL     1      -9.845 -23.791  -3.402  1.00  0.00     0.122 C
BRANCH  27  28
HETATM   28  N5  UNL     1      -9.732 -25.253  -3.492  1.00  0.00    -0.367 N
HETATM   29  C20 UNL     1      -8.838 -25.784  -4.262  1.00  0.00     0.196 C
HETATM   30  N6  UNL     1      -7.942 -25.028  -5.042  1.00  0.00    -0.067 NA
HETATM   31  N7  UNL     1      -8.778 -27.203  -4.308  1.00  0.00    -0.067 NA
ATOM     32  H5  UNL     1     -10.357 -25.848  -2.949  1.00  0.00     0.161 HD
ENDBRANCH  27  28
ENDBRANCH  26  27
ENDBRANCH  25  26
ENDBRANCH  20  25
BRANCH  15  33
HETATM   33  C11 UNL     1      -4.289 -23.102  -4.667  1.00  0.00     0.311 C
BRANCH  33  34
HETATM   34  N3  UNL     1      -4.025 -23.883  -5.853  1.00  0.00    -0.072 N
HETATM   35  C12 UNL     1      -4.143 -25.309  -5.650  1.00  0.00     0.272 C
HETATM   36  C13 UNL     1      -5.098 -23.514  -6.797  1.00  0.00     0.272 C
HETATM   37  C14 UNL     1      -2.789 -23.525  -6.498  1.00  0.00     0.272 C
ENDBRANCH  33  34
ENDBRANCH  15  33
TORSDOF 6
ENDMDL