MODEL 2
REMARK VINA RESULT: -8.107543604      1.232      1.317
REMARK  6 active torsions:
REMARK  status: ('A' for Active; 'I' for Inactive)
REMARK    1  A    between atoms: C2_2  and  C3_3
REMARK    2  A    between atoms: C8_15  and  C9_16
REMARK    3  A    between atoms: C9_16  and  C10_17
REMARK    4  A    between atoms: C10_17  and  C11_18
REMARK    5  A    between atoms: C11_18  and  C12_19
REMARK    6  A    between atoms: C14_25  and  C15_26
ROOT
HETATM    1  C3  UNL     1      -7.878 -26.081  -5.023  1.00  0.00     0.173 C
HETATM    2  N1  UNL     1      -7.246 -24.947  -5.594  1.00  0.00    -0.385 N
ATOM      3  H1  UNL     1      -7.892 -24.215  -5.889  1.00  0.00     0.159 HD
HETATM    4  C4  UNL     1      -6.040 -24.680  -5.804  1.00  0.00     0.101 C
HETATM    5  C5  UNL     1      -4.958 -25.580  -5.463  1.00  0.00     0.105 C
HETATM    6  N2  UNL     1      -4.787 -26.133  -4.353  1.00  0.00    -0.361 N
ATOM      7  H2  UNL     1      -5.145 -27.068  -4.156  1.00  0.00     0.166 HD
HETATM    8  C6  UNL     1      -4.152 -25.475  -3.500  1.00  0.00     0.183 C
HETATM    9  N3  UNL     1      -3.999 -25.974  -2.366  1.00  0.00    -0.321 N
ATOM     10  H3  UNL     1      -4.066 -26.991  -2.305  1.00  0.00     0.169 HD
HETATM   11  C7  UNL     1      -3.745 -25.292  -1.165  1.00  0.00     0.245 C
HETATM   12  O1  UNL     1      -4.064 -25.776  -0.045  1.00  0.00    -0.271 OA
HETATM   13  C8  UNL     1      -3.079 -23.951  -1.139  1.00  0.00     0.177 C
HETATM   14  N4  UNL     1      -3.614 -23.105  -0.091  1.00  0.00    -0.346 N
ATOM     15  H4  UNL     1      -2.980 -22.452   0.367  1.00  0.00     0.163 HD
HETATM   16  C13 UNL     1      -4.968 -23.131   0.336  1.00  0.00     0.241 C
HETATM   17  O2  UNL     1      -5.226 -23.038   1.564  1.00  0.00    -0.271 OA
HETATM   18  C14 UNL     1      -6.133 -23.266  -0.578  1.00  0.00     0.176 C
HETATM   19  N5  UNL     1      -7.180 -24.078  -0.028  1.00  0.00    -0.346 N
ATOM     20  H5  UNL     1      -7.256 -24.151   0.987  1.00  0.00     0.163 HD
HETATM   21  C17 UNL     1      -8.116 -24.787  -0.826  1.00  0.00     0.236 C
HETATM   22  O3  UNL     1      -9.235 -25.167  -0.339  1.00  0.00    -0.272 OA
HETATM   23  C18 UNL     1      -7.866 -25.122  -2.234  1.00  0.00     0.225 C
HETATM   24  N6  UNL     1      -9.110 -25.157  -2.989  1.00  0.00    -0.351 N
ATOM     25  H6  UNL     1      -9.979 -24.870  -2.538  1.00  0.00     0.163 HD
HETATM   26  C19 UNL     1      -9.134 -25.584  -4.345  1.00  0.00     0.240 C
HETATM   27  O4  UNL     1     -10.235 -25.534  -4.951  1.00  0.00    -0.271 OA
ENDROOT
BRANCH  13  28
HETATM   28  C9  UNL     1      -1.615 -24.196  -0.826  1.00  0.00     0.035 C
BRANCH  28  29
HETATM   29  C10 UNL     1      -1.251 -23.824   0.570  1.00  0.00     0.003 C
BRANCH  29  30
HETATM   30  C11 UNL     1      -0.851 -25.078   1.316  1.00  0.00     0.011 C
BRANCH  30  31
HETATM   31  C12 UNL     1      -0.170 -26.089   0.418  1.00  0.00     0.086 C
HETATM   32  S1  UNL     1      -0.968 -27.713   0.690  1.00  0.00    -0.098 SA
ENDBRANCH  30  31
ENDBRANCH  29  30
ENDBRANCH  28  29
ENDBRANCH  13  28
BRANCH  18  33
HETATM   33  C15 UNL     1      -6.730 -21.872  -0.795  1.00  0.00     0.030 C
HETATM   34  C16 UNL     1      -6.104 -21.172  -1.967  1.00  0.00     0.007 C
ENDBRANCH  18  33
BRANCH   1  35
HETATM   35  C2  UNL     1      -8.382 -27.065  -6.071  1.00  0.00     0.030 C
HETATM   36  C1  UNL     1      -7.623 -28.349  -6.078  1.00  0.00     0.007 C
ENDBRANCH   1  35
TORSDOF 6
ENDMDL