MODEL 1
REMARK VINA RESULT: -7.611641531      0.000      0.000
REMARK  7 active torsions:
REMARK  status: ('A' for Active; 'I' for Inactive)
REMARK    1  A    between atoms: C2_2  and  C3_3
REMARK    2  A    between atoms: C3_3  and  C4_4
REMARK    3  A    between atoms: C4_4  and  C5_5
REMARK    4  A    between atoms: C6_8  and  O1_9
REMARK    5  A    between atoms: C7_11  and  C8_12
REMARK    6  A    between atoms: C12_19  and  C13_20
REMARK    7  A    between atoms: C13_20  and  C14_21
ROOT
HETATM    1  C5  UNL     1      -3.282 -23.264  -2.957  1.00  0.00     0.175 C
HETATM    2  N1  UNL     1      -3.764 -24.403  -2.256  1.00  0.00    -0.359 N
ATOM      3  H1  UNL     1      -3.672 -25.264  -2.796  1.00  0.00     0.162 HD
HETATM    4  C6  UNL     1      -4.327 -24.614  -1.013  1.00  0.00     0.135 C
HETATM    5  C7  UNL     1      -5.543 -24.145  -0.345  1.00  0.00     0.162 C
HETATM    6  N2  UNL     1      -6.484 -25.280  -0.232  1.00  0.00    -0.347 N
ATOM      7  H2  UNL     1      -6.556 -25.738   0.676  1.00  0.00     0.163 HD
HETATM    8  C11 UNL     1      -7.279 -25.777  -1.261  1.00  0.00     0.241 C
HETATM    9  O2  UNL     1      -7.255 -27.046  -1.451  1.00  0.00    -0.271 OA
HETATM   10  C12 UNL     1      -8.156 -24.987  -2.166  1.00  0.00     0.176 C
HETATM   11  N3  UNL     1      -9.006 -25.851  -2.969  1.00  0.00    -0.346 N
ATOM     12  H3  UNL     1      -9.704 -26.404  -2.470  1.00  0.00     0.163 HD
HETATM   13  C16 UNL     1      -8.958 -25.999  -4.363  1.00  0.00     0.240 C
HETATM   14  O3  UNL     1     -10.069 -25.888  -4.990  1.00  0.00    -0.271 OA
HETATM   15  C17 UNL     1      -7.740 -26.274  -5.168  1.00  0.00     0.172 C
HETATM   16  C18 UNL     1      -8.022 -27.418  -6.128  1.00  0.00     0.042 C
HETATM   17  N4  UNL     1      -7.316 -25.168  -5.989  1.00  0.00    -0.347 N
ATOM     18  H4  UNL     1      -8.009 -24.609  -6.487  1.00  0.00     0.163 HD
HETATM   19  C19 UNL     1      -5.936 -24.853  -6.107  1.00  0.00     0.236 C
HETATM   20  O4  UNL     1      -5.452 -24.292  -7.119  1.00  0.00    -0.272 OA
HETATM   21  C20 UNL     1      -5.057 -25.215  -4.969  1.00  0.00     0.225 C
HETATM   22  N5  UNL     1      -3.713 -24.715  -5.068  1.00  0.00    -0.351 N
ATOM     23  H5  UNL     1      -3.099 -25.240  -5.690  1.00  0.00     0.163 HD
HETATM   24  C21 UNL     1      -3.125 -23.621  -4.441  1.00  0.00     0.240 C
HETATM   25  O5  UNL     1      -2.394 -22.815  -5.073  1.00  0.00    -0.271 OA
ENDROOT
BRANCH   1  26
HETATM   26  C4  UNL     1      -3.966 -21.967  -2.895  1.00  0.00     0.035 C
BRANCH  26  27
HETATM   27  C3  UNL     1      -5.456 -21.952  -2.764  1.00  0.00     0.002 C
BRANCH  27  28
HETATM   28  C2  UNL     1      -5.935 -20.621  -2.183  1.00  0.00    -0.004 C
HETATM   29  C1  UNL     1      -6.825 -20.969  -1.001  1.00  0.00     0.005 C
ENDBRANCH  27  28
ENDBRANCH  26  27
ENDBRANCH   1  26
BRANCH   4  30
HETATM   30  O1  UNL     1      -3.651 -25.409  -0.229  1.00  0.00    -0.348 OA
ATOM     31  H1  UNL     1      -3.998 -26.289  -0.153  1.00  0.00     0.219 HD
ENDBRANCH   4  30
BRANCH   5  32
HETATM   32  C8  UNL     1      -5.226 -23.619   1.048  1.00  0.00     0.008 C
HETATM   33  C9  UNL     1      -6.390 -23.359   1.916  1.00  0.00     0.012 C
HETATM   34  C10 UNL     1      -4.283 -22.438   0.931  1.00  0.00     0.012 C
ENDBRANCH   5  32
BRANCH  10  35
HETATM   35  C13 UNL     1      -9.071 -24.073  -1.376  1.00  0.00     0.034 C
BRANCH  35  36
HETATM   36  C14 UNL     1      -9.955 -23.232  -2.258  1.00  0.00    -0.002 C
HETATM   37  C15 UNL     1      -9.031 -22.670  -3.352  1.00  0.00     0.005 C
ENDBRANCH  35  36
ENDBRANCH  10  35
TORSDOF 7
ENDMDL