MODEL 3
REMARK VINA RESULT: -7.865319611      3.788      5.922
REMARK  8 active torsions:
REMARK  status: ('A' for Active; 'I' for Inactive)
REMARK    1  A    between atoms: C1_4  and  N2_5
REMARK    2  A    between atoms: N2_5  and  C2_7
REMARK    3  A    between atoms: C10_17  and  O2_18
REMARK    4  A    between atoms: C11_22  and  C12_23
REMARK    5  A    between atoms: C12_23  and  C13_24
REMARK    6  A    between atoms: C13_24  and  C14_25
REMARK    7  A    between atoms: C14_25  and  C15_26
REMARK    8  A    between atoms: C15_26  and  N5_27
REMARK       I    between atoms: N5_27  and  C16_29
ROOT
HETATM    1  C2  UNL     1      -7.607 -24.781  -3.225  1.00  0.00     0.113 C
HETATM    2  C3  UNL     1      -6.906 -25.723  -2.349  1.00  0.00     0.130 C
HETATM    3  C4  UNL     1      -5.919 -25.265  -1.390  1.00  0.00     0.222 C
HETATM    4  O1  UNL     1      -5.906 -25.914  -0.266  1.00  0.00    -0.273 OA
HETATM    5  N3  UNL     1      -4.962 -24.243  -1.438  1.00  0.00    -0.340 N
HETATM    6  C5  UNL     1      -3.551 -24.498  -1.067  1.00  0.00     0.127 C
HETATM    7  C6  UNL     1      -3.278 -23.955   0.331  1.00  0.00     0.020 C
HETATM    8  C7  UNL     1      -4.370 -22.916   0.586  1.00  0.00     0.004 C
HETATM    9  C8  UNL     1      -4.519 -22.069  -0.625  1.00  0.00     0.034 C
HETATM   10  C9  UNL     1      -5.146 -22.849  -1.810  1.00  0.00     0.161 C
HETATM   11  C10 UNL     1      -4.389 -22.448  -3.023  1.00  0.00     0.135 C
HETATM   12  N4  UNL     1      -4.155 -23.169  -4.197  1.00  0.00    -0.359 N
ATOM     13  H4  UNL     1      -3.175 -23.393  -4.371  1.00  0.00     0.162 HD
HETATM   14  C11 UNL     1      -5.077 -23.650  -5.210  1.00  0.00     0.175 C
HETATM   15  C17 UNL     1      -5.318 -25.104  -5.089  1.00  0.00     0.243 C
HETATM   16  O3  UNL     1      -4.270 -25.802  -4.841  1.00  0.00    -0.271 OA
HETATM   17  N8  UNL     1      -6.525 -25.787  -5.211  1.00  0.00    -0.344 N
HETATM   18  C18 UNL     1      -6.786 -27.077  -5.887  1.00  0.00     0.126 C
HETATM   19  C19 UNL     1      -7.905 -27.649  -5.090  1.00  0.00     0.022 C
HETATM   20  C20 UNL     1      -8.731 -26.474  -4.695  1.00  0.00     0.029 C
HETATM   21  C21 UNL     1      -7.771 -25.321  -4.662  1.00  0.00     0.110 C
ENDROOT
BRANCH  14  22
HETATM   22  C12 UNL     1      -4.416 -23.462  -6.593  1.00  0.00     0.035 C
BRANCH  22  23
HETATM   23  C13 UNL     1      -5.362 -23.429  -7.725  1.00  0.00     0.004 C
BRANCH  23  24
HETATM   24  C14 UNL     1      -4.707 -23.462  -9.081  1.00  0.00     0.020 C
BRANCH  24  25
HETATM   25  C15 UNL     1      -3.897 -22.210  -9.346  1.00  0.00     0.122 C
BRANCH  25  26
HETATM   26  N5  UNL     1      -2.767 -22.454 -10.187  1.00  0.00    -0.365 N
HETATM   27  C16 UNL     1      -2.553 -21.770 -11.423  1.00  0.00     0.181 C
HETATM   28  N6  UNL     1      -1.351 -21.568 -11.806  1.00  0.00    -0.374 N
HETATM   29  N7  UNL     1      -3.676 -21.341 -12.180  1.00  0.00    -0.064 NA
ATOM     30  H62 UNL     1      -0.545 -21.877 -11.263  1.00  0.00     0.158 HD
ATOM     31  H61 UNL     1      -1.198 -21.080 -12.689  1.00  0.00     0.158 HD
ATOM     32  H5  UNL     1      -2.081 -23.148  -9.890  1.00  0.00     0.162 HD
ENDBRANCH  25  26
ENDBRANCH  24  25
ENDBRANCH  23  24
ENDBRANCH  22  23
ENDBRANCH  14  22
BRANCH  11  33
HETATM   33  O2  UNL     1      -3.881 -21.251  -2.954  1.00  0.00    -0.348 OA
ATOM     34  H2  UNL     1      -3.486 -20.954  -3.765  1.00  0.00     0.219 HD
ENDBRANCH  11  33
BRANCH   1  35
HETATM   35  N2  UNL     1      -8.986 -24.549  -2.759  1.00  0.00    -0.379 N
ATOM     36  H2  UNL     1      -9.489 -25.274  -2.249  1.00  0.00     0.160 HD
BRANCH  35  37
HETATM   37  C1  UNL     1      -9.605 -23.292  -3.032  1.00  0.00     0.169 C
HETATM   38  N1  UNL     1      -9.643 -22.736  -4.171  1.00  0.00    -0.396 N
ATOM     39  H12 UNL     1      -9.193 -23.237  -4.938  1.00  0.00     0.156 HD
ATOM     40  H11 UNL     1     -10.085 -21.837  -4.367  1.00  0.00     0.156 HD
ENDBRANCH  35  37
ENDBRANCH   1  35
TORSDOF 8
ENDMDL