MODEL 1
REMARK VINA RESULT: -9.240213793      0.000      0.000
REMARK  6 active torsions:
REMARK  status: ('A' for Active; 'I' for Inactive)
REMARK    1  A    between atoms: C4_4  and  N1_5
REMARK    2  A    between atoms: N1_5  and  C5_7
REMARK    3  A    between atoms: C5_7  and  C6_8
REMARK    4  A    between atoms: C6_8  and  N2_9
REMARK    5  A    between atoms: C16_31  and  C17_32
REMARK    6  A    between atoms: C17_32  and  C18_33
ROOT
HETATM    1  C6  UNL     1      -7.319 -23.760  -0.174  1.00  0.00     0.158 C
ENDROOT
BRANCH   1   2
HETATM    2  C5  UNL     1      -6.498 -22.570  -0.688  1.00  0.00     0.141 C
BRANCH   2   3
HETATM    3  N1  UNL     1      -5.196 -23.047  -1.014  1.00  0.00    -0.375 N
ATOM      4  H1  UNL     1      -4.659 -23.430  -0.236  1.00  0.00     0.161 HD
BRANCH   3   5
HETATM    5  C4  UNL     1      -4.618 -23.060  -2.139  1.00  0.00     0.101 A
HETATM    6  C3  UNL     1      -4.540 -24.295  -2.793  1.00  0.00     0.055 A
HETATM    7  C2  UNL     1      -3.931 -24.422  -4.024  1.00  0.00    -0.050 A
HETATM    8  C1  UNL     1      -3.862 -25.731  -4.665  1.00  0.00     0.049 C
HETATM    9  C16 UNL     1      -3.396 -23.320  -4.611  1.00  0.00    -0.031 A
HETATM   10  C15 UNL     1      -3.496 -22.103  -3.920  1.00  0.00     0.097 A
HETATM   11  N6  UNL     1      -4.089 -21.990  -2.725  1.00  0.00    -0.352 N
ATOM     12  H6  UNL     1      -4.136 -21.082  -2.264  1.00  0.00     0.166 HD
BRANCH   9  13
HETATM   13  C17 UNL     1      -2.735 -23.284  -5.914  1.00  0.00     0.099 C
BRANCH  13  14
HETATM   14  C18 UNL     1      -3.718 -23.277  -7.009  1.00  0.00     0.029 A
HETATM   15  C19 UNL     1      -3.489 -23.343  -8.358  1.00  0.00     0.114 A
HETATM   16  N7  UNL     1      -4.718 -23.311  -8.960  1.00  0.00    -0.360 N
HETATM   17  C20 UNL     1      -5.661 -23.229  -8.023  1.00  0.00     0.180 A
ATOM     18  H7  UNL     1      -4.885 -23.343  -9.965  1.00  0.00     0.166 HD
HETATM   19  N8  UNL     1      -5.043 -23.209  -6.837  1.00  0.00    -0.354 N
ATOM     20  H8  UNL     1      -5.513 -23.150  -5.934  1.00  0.00     0.166 HD
ENDBRANCH  13  14
ENDBRANCH   9  13
ENDBRANCH   3   5
ENDBRANCH   2   3
ENDBRANCH   1   2
BRANCH   1  21
HETATM   21  N2  UNL     1      -7.841 -24.527  -1.285  1.00  0.00    -0.250 N
HETATM   22  C7  UNL     1      -7.273 -25.759  -1.714  1.00  0.00     0.329 C
HETATM   23  O1  UNL     1      -6.254 -26.240  -1.117  1.00  0.00    -0.247 OA
HETATM   24  N3  UNL     1      -7.798 -26.496  -2.803  1.00  0.00    -0.301 N
HETATM   25  C8  UNL     1      -8.547 -25.746  -3.821  1.00  0.00     0.259 C
ATOM     26  H3  UNL     1      -7.662 -27.504  -2.878  1.00  0.00     0.167 HD
HETATM   27  N4  UNL     1      -9.467 -24.880  -3.130  1.00  0.00    -0.301 N
HETATM   28  C10 UNL     1      -7.612 -25.014  -4.685  1.00  0.00     0.276 C
HETATM   29  C14 UNL     1      -9.230 -26.659  -4.753  1.00  0.00     0.212 C
HETATM   30  C9  UNL     1      -8.990 -24.094  -2.048  1.00  0.00     0.329 C
ATOM     31  H4  UNL     1     -10.445 -24.832  -3.415  1.00  0.00     0.167 HD
HETATM   32  O2  UNL     1      -9.568 -23.019  -1.751  1.00  0.00    -0.247 OA
HETATM   33  O3  UNL     1      -7.037 -23.946  -4.403  1.00  0.00    -0.268 OA
HETATM   34  N5  UNL     1      -7.465 -25.720  -5.904  1.00  0.00    -0.341 N
HETATM   35  C11 UNL     1      -8.324 -26.898  -5.905  1.00  0.00     0.091 C
ATOM     36  H5  UNL     1      -6.849 -25.445  -6.668  1.00  0.00     0.163 HD
HETATM   37  C12 UNL     1      -9.091 -26.968  -7.209  1.00  0.00     0.046 C
HETATM   38  C13 UNL     1      -7.499 -28.160  -5.735  1.00  0.00     0.046 C
HETATM   39  O4  UNL     1     -10.337 -27.130  -4.605  1.00  0.00    -0.290 OA
ENDBRANCH   1  21
TORSDOF 6
ENDMDL