MODEL 5
REMARK VINA RESULT: -7.794831546      2.544      6.209
REMARK  8 active torsions:
REMARK  status: ('A' for Active; 'I' for Inactive)
REMARK    1  A    between atoms: C2_2  and  C3_3
REMARK    2  A    between atoms: C3_3  and  C4_4
REMARK    3  A    between atoms: C4_4  and  C5_5
REMARK    4  A    between atoms: C6_8  and  O1_9
REMARK    5  A    between atoms: C7_11  and  C8_12
REMARK    6  A    between atoms: N2_13  and  N3_15
REMARK    7  A    between atoms: C11_24  and  C12_25
REMARK    8  A    between atoms: C12_25  and  C13_26
ROOT
HETATM    1  C5  UNL     1      -6.878 -23.453  -0.909  1.00  0.00     0.175 C
HETATM    2  N1  UNL     1      -5.477 -23.263  -1.153  1.00  0.00    -0.359 N
ATOM      3  H1  UNL     1      -4.986 -22.870  -0.350  1.00  0.00     0.162 HD
HETATM    4  C6  UNL     1      -4.644 -23.492  -2.232  1.00  0.00     0.140 C
HETATM    5  C7  UNL     1      -4.360 -24.676  -3.029  1.00  0.00     0.199 C
HETATM    6  N6  UNL     1      -3.235 -25.489  -2.649  1.00  0.00    -0.342 N
ATOM      7  H6  UNL     1      -2.748 -25.928  -3.431  1.00  0.00     0.163 HD
HETATM    8  C10 UNL     1      -2.693 -25.783  -1.388  1.00  0.00     0.245 C
HETATM    9  O2  UNL     1      -2.630 -27.004  -1.067  1.00  0.00    -0.271 OA
HETATM   10  C11 UNL     1      -2.171 -24.853  -0.358  1.00  0.00     0.200 C
HETATM   11  N7  UNL     1      -2.462 -25.260   0.989  1.00  0.00    -0.344 N
ATOM     12  H7  UNL     1      -1.645 -25.558   1.523  1.00  0.00     0.163 HD
HETATM   13  C16 UNL     1      -3.659 -25.320   1.694  1.00  0.00     0.220 C
HETATM   14  O3  UNL     1      -3.720 -24.805   2.854  1.00  0.00    -0.274 OA
HETATM   15  C17 UNL     1      -4.931 -25.925   1.271  1.00  0.00     0.127 C
HETATM   16  C18 UNL     1      -6.188 -25.308   1.766  1.00  0.00     0.089 C
HETATM   17  C19 UNL     1      -6.106 -23.990   2.426  1.00  0.00     0.032 C
HETATM   18  N8  UNL     1      -7.273 -25.401   0.770  1.00  0.00    -0.355 N
ATOM     19  H8  UNL     1      -8.113 -25.918   1.030  1.00  0.00     0.162 HD
HETATM   20  C20 UNL     1      -7.228 -24.823  -0.521  1.00  0.00     0.240 C
HETATM   21  O4  UNL     1      -7.537 -25.608  -1.491  1.00  0.00    -0.271 OA
ENDROOT
BRANCH   5  22
HETATM   22  C8  UNL     1      -4.131 -24.218  -4.445  1.00  0.00     0.113 C
HETATM   23  N2  UNL     1      -5.001 -23.641  -5.165  1.00  0.00    -0.311 N
ATOM     24  H2  UNL     1      -5.920 -23.478  -4.753  1.00  0.00     0.185 HD
BRANCH  23  25
HETATM   25  N3  UNL     1      -4.802 -23.220  -6.458  1.00  0.00    -0.277 N
HETATM   26  C9  UNL     1      -5.581 -23.509  -7.446  1.00  0.00     0.215 C
HETATM   27  N4  UNL     1      -5.334 -23.051  -8.766  1.00  0.00    -0.065 NA
HETATM   28  N5  UNL     1      -6.727 -24.314  -7.216  1.00  0.00    -0.065 NA
ATOM     29  H3  UNL     1      -3.986 -22.640  -6.649  1.00  0.00     0.189 HD
ENDBRANCH  23  25
ENDBRANCH   5  22
BRANCH   4  30
HETATM   30  O1  UNL     1      -3.983 -22.437  -2.606  1.00  0.00    -0.348 OA
ATOM     31  H1  UNL     1      -3.987 -22.303  -3.547  1.00  0.00     0.219 HD
ENDBRANCH   4  30
BRANCH   1  32
HETATM   32  C4  UNL     1      -7.743 -22.914  -2.028  1.00  0.00     0.035 C
BRANCH  32  33
HETATM   33  C3  UNL     1      -9.159 -22.743  -1.557  1.00  0.00     0.002 C
BRANCH  33  34
HETATM   34  C2  UNL     1     -10.189 -23.304  -2.519  1.00  0.00    -0.004 C
HETATM   35  C1  UNL     1      -9.632 -23.043  -3.917  1.00  0.00     0.005 C
ENDBRANCH  33  34
ENDBRANCH  32  33
ENDBRANCH   1  32
BRANCH  10  36
HETATM   36  C12 UNL     1      -0.731 -24.687  -0.683  1.00  0.00     0.010 C
BRANCH  36  37
HETATM   37  C13 UNL     1       0.331 -24.894   0.287  1.00  0.00    -0.089 C
HETATM   38  C14 UNL     1       0.841 -26.318   0.383  1.00  0.00     0.042 C
HETATM   39  C15 UNL     1       1.420 -23.868   0.389  1.00  0.00     0.042 C
ENDBRANCH  36  37
ENDBRANCH  10  36
TORSDOF 8
ENDMDL