MODEL 1
REMARK VINA RESULT: -9.086941335      0.000      0.000
REMARK  6 active torsions:
REMARK  status: ('A' for Active; 'I' for Inactive)
REMARK    1  A    between atoms: C2_2  and  S1_3
REMARK    2  A    between atoms: S1_3  and  C3_4
REMARK    3  A    between atoms: C8_13  and  O1_14
REMARK    4  A    between atoms: C10_17  and  O2_18
REMARK    5  A    between atoms: N3_20  and  C11_21
REMARK    6  A    between atoms: C15_26  and  C17_28
ROOT
HETATM    1  C3  UNL     1      -6.480  59.941  63.655  1.00  0.00     0.165 A
HETATM    2  N1  UNL     1      -6.283  61.050  64.376  1.00  0.00    -0.278 N
ATOM      3  H1  UNL     1      -6.403  61.126  65.386  1.00  0.00     0.189 HD
HETATM    4  N2  UNL     1      -5.911  62.024  63.583  1.00  0.00    -0.282 N
ATOM      5  H2  UNL     1      -5.697  62.977  63.880  1.00  0.00     0.188 HD
HETATM    6  C4  UNL     1      -5.855  61.563  62.281  1.00  0.00     0.139 A
HETATM    7  C5  UNL     1      -5.437  62.420  61.194  1.00  0.00     0.043 A
HETATM    8  C6  UNL     1      -5.927  62.239  59.926  1.00  0.00     0.021 A
HETATM    9  C7  UNL     1      -5.482  63.039  58.862  1.00  0.00     0.037 A
HETATM   10  C8  UNL     1      -4.547  64.026  59.055  1.00  0.00     0.068 A
HETATM   11  C9  UNL     1      -4.068  64.201  60.316  1.00  0.00     0.074 A
HETATM   12  C10 UNL     1      -4.495  63.410  61.413  1.00  0.00     0.082 A
HETATM   13  N3  UNL     1      -6.212  60.272  62.371  1.00  0.00    -0.283 N
ENDROOT
BRANCH  13  14
HETATM   14  C11 UNL     1      -6.259  59.329  61.304  1.00  0.00     0.233 C
HETATM   15  C12 UNL     1      -4.916  59.140  60.595  1.00  0.00     0.057 C
HETATM   16  C13 UNL     1      -5.314  58.554  59.220  1.00  0.00     0.044 C
HETATM   17  C14 UNL     1      -5.805  57.155  59.586  1.00  0.00     0.204 C
HETATM   18  F1  UNL     1      -4.689  56.385  59.932  1.00  0.00    -0.246 F
HETATM   19  C15 UNL     1      -6.765  57.120  60.721  1.00  0.00     0.090 C
HETATM   20  C16 UNL     1      -6.499  55.798  61.478  1.00  0.00     0.049 C
HETATM   21  O3  UNL     1      -6.674  58.091  61.667  1.00  0.00    -0.353 OA
BRANCH  19  22
HETATM   22  C17 UNL     1      -8.199  56.949  60.201  1.00  0.00     0.036 C
HETATM   23  C18 UNL     1      -8.725  55.608  60.603  1.00  0.00     0.008 C
ENDBRANCH  19  22
ENDBRANCH  13  14
BRANCH  12  24
HETATM   24  O2  UNL     1      -3.931  63.686  62.627  1.00  0.00    -0.360 OA
ATOM     25  H2  UNL     1      -4.059  64.495  63.108  1.00  0.00     0.217 HD
ENDBRANCH  12  24
BRANCH   1  26
HETATM   26  S1  UNL     1      -7.001  58.390  64.297  1.00  0.00    -0.093 SA
BRANCH  26  27
HETATM   27  C2  UNL     1      -5.659  57.643  65.249  1.00  0.00     0.078 C
HETATM   28  C1  UNL     1      -5.699  56.139  65.054  1.00  0.00     0.016 C
ENDBRANCH  26  27
ENDBRANCH   1  26
BRANCH  10  29
HETATM   29  O1  UNL     1      -4.103  64.829  57.979  1.00  0.00    -0.361 OA
ATOM     30  H1  UNL     1      -4.661  65.504  57.610  1.00  0.00     0.217 HD
ENDBRANCH  10  29
TORSDOF 6
ENDMDL