MODEL 2
REMARK VINA RESULT: -7.473297754      0.798      1.071
REMARK  7 active torsions:
REMARK  status: ('A' for Active; 'I' for Inactive)
REMARK    1  A    between atoms: C2_2  and  C3_3
REMARK    2  A    between atoms: C3_3  and  N1_4
REMARK    3  A    between atoms: C4_5  and  N2_6
REMARK    4  A    between atoms: C5_8  and  C6_9
REMARK    5  A    between atoms: C8_11  and  O1_12
REMARK    6  A    between atoms: C9_14  and  O2_15
REMARK    7  A    between atoms: N3_17  and  C10_18
ROOT
HETATM    1  C6  UNL     1      -5.616  60.483  60.219  1.00  0.00     0.050 A
HETATM    2  C7  UNL     1      -5.907  60.679  58.900  1.00  0.00     0.059 A
HETATM    3  C8  UNL     1      -6.549  59.698  58.216  1.00  0.00     0.118 A
HETATM    4  C9  UNL     1      -6.892  58.520  58.876  1.00  0.00     0.179 A
HETATM    5  N3  UNL     1      -6.616  58.311  60.165  1.00  0.00    -0.288 N
HETATM    6  C13 UNL     1      -5.985  59.281  60.830  1.00  0.00     0.261 A
HETATM    7  O3  UNL     1      -5.699  59.157  62.021  1.00  0.00    -0.267 OA
ENDROOT
BRANCH   1   8
HETATM    8  C5  UNL     1      -4.926  61.518  60.987  1.00  0.00     0.106 C
HETATM    9  N2  UNL     1      -4.931  62.720  60.564  1.00  0.00    -0.351 N
ATOM     10  H2  UNL     1      -5.414  62.951  59.696  1.00  0.00     0.166 HD
BRANCH   9  11
HETATM   11  C4  UNL     1      -4.243  63.771  61.324  1.00  0.00     0.115 A
HETATM   12  N1  UNL     1      -3.882  64.938  60.830  1.00  0.00    -0.314 N
HETATM   13  C15 UNL     1      -3.264  65.801  61.627  1.00  0.00     0.146 A
HETATM   14  S1  UNL     1      -3.175  64.975  63.112  1.00  0.00    -0.068 SA
HETATM   15  S2  UNL     1      -2.718  67.323  61.236  1.00  0.00    -0.052 SA
HETATM   16  C14 UNL     1      -3.948  63.531  62.642  1.00  0.00     0.101 A
BRANCH  12  17
HETATM   17  C3  UNL     1      -4.164  65.287  59.407  1.00  0.00     0.158 C
BRANCH  17  18
HETATM   18  C2  UNL     1      -3.121  64.689  58.535  1.00  0.00    -0.017 C
HETATM   19  C1  UNL     1      -2.275  65.478  57.914  1.00  0.00     0.008 C
ENDBRANCH  17  18
ENDBRANCH  12  17
ENDBRANCH   9  11
ENDBRANCH   1   8
BRANCH   3  20
HETATM   20  O1  UNL     1      -6.843  59.899  56.871  1.00  0.00    -0.357 OA
ATOM     21  H1  UNL     1      -7.750  59.865  56.591  1.00  0.00     0.218 HD
ENDBRANCH   3  20
BRANCH   5  22
HETATM   22  C10 UNL     1      -6.982  57.103  60.794  1.00  0.00     0.087 C
HETATM   23  C11 UNL     1      -8.234  56.464  60.229  1.00  0.00     0.032 C
HETATM   24  C12 UNL     1      -5.926  56.046  60.839  1.00  0.00     0.032 C
ENDBRANCH   5  22
BRANCH   4  25
HETATM   25  O2  UNL     1      -7.536  57.567  58.141  1.00  0.00    -0.344 OA
ATOM     26  H2  UNL     1      -8.442  57.390  58.367  1.00  0.00     0.219 HD
ENDBRANCH   4  25
TORSDOF 7
ENDMDL