MODEL 1
REMARK VINA RESULT: -8.829066056      0.000      0.000
REMARK  8 active torsions:
REMARK  status: ('A' for Active; 'I' for Inactive)
REMARK    1  A    between atoms: C5_7  and  C6_8
REMARK    2  A    between atoms: C7_9  and  O1_10
REMARK    3  A    between atoms: C8_12  and  O2_13
REMARK    4  A    between atoms: N2_15  and  C9_16
REMARK    5  A    between atoms: C15_22  and  O3_23
REMARK    6  A    between atoms: C16_27  and  C17_28
REMARK    7  A    between atoms: C17_28  and  C18_29
REMARK    8  A    between atoms: C18_29  and  C19_30
ROOT
HETATM    1  C6  UNL     1      -5.879  61.432  61.241  1.00  0.00     0.081 A
HETATM    2  C7  UNL     1      -6.555  61.537  62.436  1.00  0.00     0.134 A
HETATM    3  C8  UNL     1      -7.158  60.331  62.733  1.00  0.00     0.179 A
HETATM    4  N2  UNL     1      -6.852  59.502  61.728  1.00  0.00    -0.300 N
HETATM    5  C15 UNL     1      -6.087  60.139  60.822  1.00  0.00     0.160 A
ENDROOT
BRANCH   1   6
HETATM    6  C5  UNL     1      -5.133  62.513  60.627  1.00  0.00     0.072 A
HETATM    7  C3  UNL     1      -5.351  62.765  59.269  1.00  0.00     0.033 A
HETATM    8  N1  UNL     1      -4.661  63.758  58.720  1.00  0.00    -0.360 N
HETATM    9  C4  UNL     1      -6.317  61.934  58.531  1.00  0.00     0.070 C
HETATM   10  C2  UNL     1      -3.774  64.532  59.374  1.00  0.00     0.028 A
ATOM     11  H1  UNL     1      -4.815  63.949  57.729  1.00  0.00     0.165 HD
HETATM   12  C1  UNL     1      -3.037  65.637  58.665  1.00  0.00     0.070 C
HETATM   13  C16 UNL     1      -3.565  64.277  60.708  1.00  0.00     0.032 A
HETATM   14  N3  UNL     1      -4.248  63.279  61.295  1.00  0.00    -0.356 N
ATOM     15  H3  UNL     1      -4.091  63.094  62.286  1.00  0.00     0.166 HD
BRANCH  13  16
HETATM   16  C17 UNL     1      -2.595  65.110  61.460  1.00  0.00     0.060 C
BRANCH  16  17
HETATM   17  C18 UNL     1      -2.694  64.895  62.945  1.00  0.00     0.021 C
BRANCH  17  18
HETATM   18  C19 UNL     1      -3.146  66.168  63.629  1.00  0.00     0.115 C
HETATM   19 CL1  UNL     1      -4.056  67.221  62.550  1.00  0.00    -0.130 Cl
ENDBRANCH  17  18
ENDBRANCH  16  17
ENDBRANCH  13  16
ENDBRANCH   1   6
BRANCH   2  20
HETATM   20  O1  UNL     1      -6.650  62.653  63.255  1.00  0.00    -0.356 OA
ATOM     21  H1  UNL     1      -7.107  62.721  64.085  1.00  0.00     0.218 HD
ENDBRANCH   2  20
BRANCH   5  22
HETATM   22  O3  UNL     1      -5.576  59.576  59.631  1.00  0.00    -0.345 OA
ATOM     23  H3  UNL     1      -5.838  58.740  59.264  1.00  0.00     0.219 HD
ENDBRANCH   5  22
BRANCH   3  24
HETATM   24  O2  UNL     1      -7.938  60.060  63.881  1.00  0.00    -0.344 OA
ATOM     25  H2  UNL     1      -7.632  60.095  64.780  1.00  0.00     0.219 HD
ENDBRANCH   3  24
BRANCH   4  26
HETATM   26  C9  UNL     1      -7.268  58.115  61.603  1.00  0.00     0.094 C
HETATM   27  C10 UNL     1      -6.133  57.211  62.029  1.00  0.00     0.026 C
HETATM   28  C11 UNL     1      -6.126  55.912  61.255  1.00  0.00     0.002 C
HETATM   29  C12 UNL     1      -7.548  55.404  61.149  1.00  0.00     0.000 C
HETATM   30  C13 UNL     1      -8.322  56.343  60.288  1.00  0.00     0.002 C
HETATM   31  C14 UNL     1      -7.672  57.732  60.224  1.00  0.00     0.026 C
ENDBRANCH   4  26
TORSDOF 8
ENDMDL