MODEL 1
REMARK VINA RESULT: -7.344536865      0.000      0.000
REMARK  6 active torsions:
REMARK  status: ('A' for Active; 'I' for Inactive)
REMARK    1  A    between atoms: C2_2  and  O1_3
REMARK    2  A    between atoms: O1_3  and  C3_4
REMARK    3  A    between atoms: C5_6  and  C6_7
REMARK    4  A    between atoms: N1_8  and  N2_10
REMARK    5  A    between atoms: C7_11  and  S1_12
REMARK    6  A    between atoms: C14_24  and  O2_25
ROOT
HETATM    1  N2  UNL     1      -5.125  62.866  62.208  1.00  0.00    -0.221 N
HETATM    2  C7  UNL     1      -4.817  63.927  61.447  1.00  0.00     0.133 A
HETATM    3  C9  UNL     1      -4.085  64.811  62.206  1.00  0.00     0.152 A
HETATM    4  C10 UNL     1      -3.548  66.086  61.785  1.00  0.00     0.120 C
HETATM    5  N3  UNL     1      -3.115  67.096  61.436  1.00  0.00    -0.190 NA
HETATM    6  N4  UNL     1      -3.975  64.234  63.435  1.00  0.00    -0.321 N
ATOM      7  H4  UNL     1      -3.486  64.639  64.233  1.00  0.00     0.169 HD
HETATM    8  C11 UNL     1      -4.607  63.050  63.435  1.00  0.00     0.199 A
HETATM    9  S2  UNL     1      -4.708  62.042  64.721  1.00  0.00    -0.039 SA
ENDROOT
BRANCH   2  10
HETATM   10  S1  UNL     1      -5.305  64.103  59.744  1.00  0.00    -0.112 SA
HETATM   11  C8  UNL     1      -3.880  64.369  58.662  1.00  0.00     0.097 C
ENDBRANCH   2  10
BRANCH   1  12
HETATM   12  N1  UNL     1      -5.855  61.735  61.840  1.00  0.00    -0.301 N
HETATM   13  C6  UNL     1      -5.246  60.680  61.447  1.00  0.00     0.119 C
ATOM     14  H1  UNL     1      -6.874  61.749  61.883  1.00  0.00     0.186 HD
BRANCH  13  15
HETATM   15  C5  UNL     1      -6.035  59.513  61.070  1.00  0.00    -0.015 A
HETATM   16  C4  UNL     1      -6.520  58.639  62.019  1.00  0.00     0.052 A
HETATM   17  C3  UNL     1      -7.272  57.526  61.681  1.00  0.00     0.104 A
HETATM   18  C14 UNL     1      -7.553  57.272  60.359  1.00  0.00     0.121 A
HETATM   19  C13 UNL     1      -7.078  58.136  59.380  1.00  0.00     0.070 A
HETATM   20  C12 UNL     1      -6.335  59.231  59.747  1.00  0.00     0.039 A
HETATM   21 CL1  UNL     1      -7.423  57.832  57.698  1.00  0.00    -0.081 Cl
BRANCH  17  22
HETATM   22  O1  UNL     1      -7.748  56.661  62.643  1.00  0.00    -0.349 OA
BRANCH  22  23
HETATM   23  C2  UNL     1      -6.838  55.784  63.290  1.00  0.00     0.171 C
HETATM   24  C1  UNL     1      -7.199  54.369  62.944  1.00  0.00     0.034 C
ENDBRANCH  22  23
ENDBRANCH  17  22
BRANCH  18  25
HETATM   25  O2  UNL     1      -8.307  56.151  60.053  1.00  0.00    -0.356 OA
ATOM     26  H2  UNL     1      -8.515  55.985  59.142  1.00  0.00     0.218 HD
ENDBRANCH  18  25
ENDBRANCH  13  15
ENDBRANCH   1  12
TORSDOF 6
ENDMDL