MODEL 2
REMARK VINA RESULT: -6.553738768      1.501      1.695
REMARK  5 active torsions:
REMARK  status: ('A' for Active; 'I' for Inactive)
REMARK    1  A    between atoms: C2_3  and  S1_4
REMARK    2  A    between atoms: S1_4  and  C3_5
REMARK    3  A    between atoms: C9_21  and  S4_22
REMARK    4  A    between atoms: S4_22  and  C10_23
REMARK    5  A    between atoms: C10_23  and  C11_24
ROOT
HETATM    1  N1  UNL     1      -9.062  55.437  60.602  1.00  0.00    -0.197 NA
HETATM    2  C1  UNL     1      -8.012  55.814  60.957  1.00  0.00     0.069 C
HETATM    3  C2  UNL     1      -6.705  56.295  61.419  1.00  0.00     0.204 C
ENDROOT
BRANCH   3   4
HETATM    4  S1  UNL     1      -6.971  57.624  62.626  1.00  0.00    -0.095 SA
BRANCH   4   5
HETATM    5  C3  UNL     1      -6.336  59.141  61.939  1.00  0.00     0.105 A
HETATM    6  N2  UNL     1      -6.493  59.458  60.633  1.00  0.00    -0.341 N
HETATM    7  C4  UNL     1      -5.996  60.631  60.133  1.00  0.00     0.106 A
ATOM      8  H2  UNL     1      -6.987  58.815  60.015  1.00  0.00     0.167 HD
HETATM    9  S2  UNL     1      -5.989  61.363  58.591  1.00  0.00    -0.050 SA
HETATM   10  C8  UNL     1      -5.326  61.533  60.900  1.00  0.00     0.097 A
HETATM   11  C5  UNL     1      -5.137  62.797  58.963  1.00  0.00     0.107 A
HETATM   12  N3  UNL     1      -4.632  63.978  58.476  1.00  0.00    -0.325 N
HETATM   13  C7  UNL     1      -4.877  62.662  60.294  1.00  0.00     0.098 A
HETATM   14  C6  UNL     1      -4.056  64.579  59.504  1.00  0.00     0.177 A
ATOM     15  H3  UNL     1      -4.689  64.320  57.517  1.00  0.00     0.169 HD
HETATM   16  S3  UNL     1      -3.308  66.040  59.396  1.00  0.00    -0.040 SA
HETATM   17  N4  UNL     1      -4.190  63.817  60.595  1.00  0.00    -0.329 N
ATOM     18  H4  UNL     1      -3.832  64.058  61.520  1.00  0.00     0.168 HD
HETATM   19  N5  UNL     1      -5.187  61.178  62.219  1.00  0.00    -0.344 N
HETATM   20  C9  UNL     1      -5.658  60.057  62.711  1.00  0.00     0.104 A
ATOM     21  H5  UNL     1      -4.694  61.815  62.846  1.00  0.00     0.167 HD
BRANCH  20  22
HETATM   22  S4  UNL     1      -5.453  59.629  64.451  1.00  0.00    -0.108 SA
BRANCH  22  23
HETATM   23  C10 UNL     1      -3.821  60.190  64.947  1.00  0.00     0.096 C
BRANCH  23  24
HETATM   24  C11 UNL     1      -3.850  61.462  65.757  1.00  0.00     0.125 C
HETATM   25 CL1  UNL     1      -5.369  62.338  65.591  1.00  0.00    -0.130 Cl
ENDBRANCH  23  24
ENDBRANCH  22  23
ENDBRANCH  20  22
ENDBRANCH   4   5
ENDBRANCH   3   4
TORSDOF 5
ENDMDL