MODEL 2
REMARK VINA RESULT: -7.968947924      2.479      3.729
REMARK  9 active torsions:
REMARK  status: ('A' for Active; 'I' for Inactive)
REMARK    1  A    between atoms: C1_4  and  O1_5
REMARK    2  A    between atoms: C1_4  and  S1_18
REMARK    3  A    between atoms: O1_5  and  C2_6
REMARK    4  A    between atoms: C2_6  and  O2_7
REMARK    5  A    between atoms: O2_7  and  C3_8
REMARK    6  A    between atoms: C3_8  and  C4_10
REMARK    7  A    between atoms: S1_18  and  C12_19
REMARK    8  A    between atoms: C12_19  and  C13_20
REMARK    9  A    between atoms: C15_22  and  O4_23
ROOT
HETATM    1  N1  UNL     1      -6.071  62.719  64.372  1.00  0.00    -0.374 N
ATOM      2  H11 UNL     1      -5.547  63.362  64.966  1.00  0.00     0.158 HD
ATOM      3  H12 UNL     1      -6.903  62.257  64.740  1.00  0.00     0.158 HD
HETATM    4  C1  UNL     1      -5.697  62.484  63.172  1.00  0.00     0.177 C
ENDROOT
BRANCH   4   5
HETATM    5  O1  UNL     1      -6.403  61.618  62.371  1.00  0.00    -0.304 OA
BRANCH   5   6
HETATM    6  C2  UNL     1      -5.935  60.311  62.054  1.00  0.00     0.357 C
BRANCH   6   7
HETATM    7  O2  UNL     1      -6.592  59.907  60.865  1.00  0.00    -0.295 OA
BRANCH   7   8
HETATM    8  C3  UNL     1      -5.970  59.228  59.845  1.00  0.00     0.265 C
HETATM    9  O3  UNL     1      -4.915  59.696  59.376  1.00  0.00    -0.265 OA
BRANCH   8  10
HETATM   10  C4  UNL     1      -6.607  57.970  59.369  1.00  0.00     0.085 C
HETATM   11  C5  UNL     1      -5.663  56.841  59.658  1.00  0.00     0.014 C
HETATM   12  C6  UNL     1      -5.539  56.686  61.140  1.00  0.00     0.001 C
HETATM   13  C7  UNL     1      -6.193  55.437  61.672  1.00  0.00     0.000 C
HETATM   14  C8  UNL     1      -7.657  55.637  61.995  1.00  0.00     0.000 C
HETATM   15  C9  UNL     1      -8.538  55.417  60.816  1.00  0.00     0.000 C
HETATM   16  C10 UNL     1      -8.511  56.426  59.752  1.00  0.00     0.001 C
HETATM   17  C11 UNL     1      -7.961  57.756  60.049  1.00  0.00     0.014 C
ENDBRANCH   8  10
ENDBRANCH   7   8
ENDBRANCH   6   7
ENDBRANCH   5   6
ENDBRANCH   4   5
BRANCH   4  18
HETATM   18  S1  UNL     1      -4.249  63.289  62.531  1.00  0.00    -0.082 SA
BRANCH  18  19
HETATM   19  C12 UNL     1      -4.724  64.794  61.649  1.00  0.00     0.125 C
BRANCH  19  20
HETATM   20  C13 UNL     1      -4.190  64.756  60.282  1.00  0.00     0.002 A
HETATM   21  C14 UNL     1      -3.080  65.427  59.808  1.00  0.00     0.075 A
HETATM   22  C15 UNL     1      -2.936  65.112  58.471  1.00  0.00     0.185 A
HETATM   23  O5  UNL     1      -3.900  64.296  58.143  1.00  0.00    -0.275 OA
HETATM   24  C16 UNL     1      -4.676  64.054  59.191  1.00  0.00     0.154 A
HETATM   25 CL1  UNL     1      -6.088  63.019  59.217  1.00  0.00    -0.056 Cl
BRANCH  22  26
HETATM   26  O4  UNL     1      -1.933  65.579  57.602  1.00  0.00    -0.341 OA
ATOM     27  H4  UNL     1      -1.274  65.054  57.161  1.00  0.00     0.220 HD
ENDBRANCH  22  26
ENDBRANCH  19  20
ENDBRANCH  18  19
ENDBRANCH   4  18
TORSDOF 9
ENDMDL