MODEL 1
REMARK VINA RESULT: -7.577367647      0.000      0.000
REMARK  6 active torsions:
REMARK  status: ('A' for Active; 'I' for Inactive)
REMARK    1  A    between atoms: C2_2  and  S1_4
REMARK    2  A    between atoms: S1_4  and  C4_5
REMARK    3  A    between atoms: C6_10  and  C7_11
REMARK    4  A    between atoms: C8_14  and  N3_15
REMARK    5  A    between atoms: C9_20  and  S2_21
REMARK    6  A    between atoms: S2_21  and  C10_22
ROOT
HETATM    1  C7  UNL     1      -5.992  61.622  62.082  1.00  0.00     0.094 A
HETATM    2  N2  UNL     1      -6.289  61.294  63.390  1.00  0.00    -0.189 N
ATOM      3  H2  UNL     1      -6.181  62.021  64.097  1.00  0.00     0.184 HD
HETATM    4  C8  UNL     1      -6.703  60.110  63.788  1.00  0.00     0.677 A
HETATM    5  N4  UNL     1      -6.842  59.158  62.845  1.00  0.00    -0.184 N
ATOM      6  H4  UNL     1      -7.162  58.235  63.134  1.00  0.00     0.185 HD
HETATM    7  C9  UNL     1      -6.584  59.359  61.557  1.00  0.00     0.109 A
HETATM    8  C13 UNL     1      -6.141  60.644  61.176  1.00  0.00     0.107 A
HETATM    9  C14 UNL     1      -5.779  60.731  59.788  1.00  0.00     0.104 C
HETATM   10  N5  UNL     1      -5.452  60.772  58.669  1.00  0.00    -0.191 NA
ENDROOT
BRANCH   1  11
HETATM   11  C6  UNL     1      -5.478  62.961  61.821  1.00  0.00     0.092 A
HETATM   12  C5  UNL     1      -5.648  63.941  60.920  1.00  0.00     0.209 A
HETATM   13  N1  UNL     1      -4.890  65.004  60.963  1.00  0.00    -0.321 N
HETATM   14  F1  UNL     1      -6.679  63.922  59.983  1.00  0.00    -0.185 F
HETATM   15  C4  UNL     1      -3.965  65.106  61.895  1.00  0.00     0.115 A
ATOM     16  H1  UNL     1      -5.014  65.751  60.279  1.00  0.00     0.169 HD
HETATM   17  S3  UNL     1      -4.144  63.666  62.759  1.00  0.00    -0.058 SA
BRANCH  15  18
HETATM   18  S1  UNL     1      -2.844  66.488  62.086  1.00  0.00    -0.101 SA
BRANCH  18  19
HETATM   19  C2  UNL     1      -3.288  67.535  63.466  1.00  0.00     0.046 C
HETATM   20  C1  UNL     1      -3.314  66.862  64.795  1.00  0.00     0.021 C
HETATM   21  C3  UNL     1      -2.337  68.740  63.454  1.00  0.00     0.021 C
ENDBRANCH  18  19
ENDBRANCH  15  18
ENDBRANCH   1  11
BRANCH   7  22
HETATM   22  S2  UNL     1      -6.800  58.043  60.388  1.00  0.00    -0.106 SA
BRANCH  22  23
HETATM   23  C10 UNL     1      -7.558  56.631  61.225  1.00  0.00     0.045 C
HETATM   24  C11 UNL     1      -6.438  55.696  61.632  1.00  0.00     0.021 C
HETATM   25  C12 UNL     1      -8.545  55.885  60.356  1.00  0.00     0.021 C
ENDBRANCH  22  23
ENDBRANCH   7  22
BRANCH   4  26
HETATM   26  N3  UNL     1      -6.969  59.855  65.037  1.00  0.00    -0.234 N
ATOM     27  H32 UNL     1      -7.134  60.611  65.701  1.00  0.00     0.174 HD
ATOM     28  H31 UNL     1      -7.023  58.901  65.396  1.00  0.00     0.174 HD
ENDBRANCH   4  26
TORSDOF 6
ENDMDL