MODEL 2
REMARK VINA RESULT: -8.850575909      1.975      3.196
REMARK  6 active torsions:
REMARK  status: ('A' for Active; 'I' for Inactive)
REMARK    1  A    between atoms: O1_2  and  C2_3
REMARK    2  A    between atoms: C4_5  and  C5_6
REMARK    3  A    between atoms: C5_6  and  C6_7
REMARK    4  A    between atoms: C6_7  and  C7_8
REMARK    5  A    between atoms: C8_10  and  O3_11
REMARK    6  A    between atoms: N1_23  and  O4_25
ROOT
HETATM    1  C2  UNL     1      -4.358  63.334  61.558  1.00  0.00     0.079 A
HETATM    2  C3  UNL     1      -5.029  62.173  61.270  1.00  0.00     0.044 A
HETATM    3  C4  UNL     1      -5.405  61.885  59.954  1.00  0.00    -0.052 A
HETATM    4  C12 UNL     1      -5.103  62.759  58.966  1.00  0.00     0.045 A
HETATM    5  C13 UNL     1      -4.422  63.949  59.219  1.00  0.00     0.088 A
HETATM    6  C14 UNL     1      -4.062  64.216  60.510  1.00  0.00     0.032 A
HETATM    7  C15 UNL     1      -3.362  65.520  60.511  1.00  0.00     0.173 A
HETATM    8  S1  UNL     1      -4.238  66.695  61.589  1.00  0.00    -0.078 SA
HETATM    9  C16 UNL     1      -3.370  65.946  59.110  1.00  0.00     0.163 A
HETATM   10  N1  UNL     1      -2.838  67.062  58.718  1.00  0.00    -0.249 N
ATOM     11  H1  UNL     1      -2.884  67.289  57.725  1.00  0.00     0.196 HD
HETATM   12  O5  UNL     1      -4.010  64.985  58.368  1.00  0.00    -0.294 OA
ENDROOT
BRANCH   3  13
HETATM   13  C5  UNL     1      -6.127  60.607  59.752  1.00  0.00     0.045 C
BRANCH  13  14
HETATM   14  C6  UNL     1      -5.239  59.409  59.968  1.00  0.00     0.070 C
BRANCH  14  15
HETATM   15  C7  UNL     1      -6.003  58.339  60.643  1.00  0.00     0.064 A
HETATM   16  O2  UNL     1      -5.926  58.013  61.910  1.00  0.00    -0.291 OA
HETATM   17  C8  UNL     1      -6.742  57.022  62.159  1.00  0.00     0.206 A
HETATM   18  C9  UNL     1      -7.388  56.679  60.993  1.00  0.00     0.100 A
HETATM   19 CL1  UNL     1      -8.585  55.414  60.772  1.00  0.00    -0.079 Cl
HETATM   20  C10 UNL     1      -6.929  57.515  59.995  1.00  0.00    -0.006 A
HETATM   21  C11 UNL     1      -7.311  57.549  58.577  1.00  0.00     0.052 C
BRANCH  17  22
HETATM   22  O3  UNL     1      -6.895  56.447  63.406  1.00  0.00    -0.339 OA
ATOM     23  H3  UNL     1      -7.223  56.913  64.167  1.00  0.00     0.220 HD
ENDBRANCH  17  22
ENDBRANCH  14  15
ENDBRANCH  13  14
ENDBRANCH   3  13
BRANCH   1  24
HETATM   24  O1  UNL     1      -3.959  63.677  62.840  1.00  0.00    -0.355 OA
HETATM   25  C1  UNL     1      -4.370  62.894  63.945  1.00  0.00     0.210 C
ENDBRANCH   1  24
BRANCH  10  26
HETATM   26  O4  UNL     1      -2.228  67.941  59.542  1.00  0.00    -0.288 OA
ATOM     27  H4  UNL     1      -2.687  68.523  60.136  1.00  0.00     0.244 HD
ENDBRANCH  10  26
TORSDOF 6
ENDMDL