MODEL 4
REMARK VINA RESULT: -7.746683394      3.001      4.642
REMARK  6 active torsions:
REMARK  status: ('A' for Active; 'I' for Inactive)
REMARK    1  A    between atoms: C2_2  and  O1_4
REMARK    2  A    between atoms: O1_4  and  C4_5
REMARK    3  A    between atoms: C4_5  and  C5_7
REMARK    4  A    between atoms: C5_7  and  C8_10
REMARK    5  A    between atoms: C13_15  and  N1_16
REMARK    6  A    between atoms: N1_16  and  N2_18
ROOT
HETATM    1  C8  UNL     1      -6.013  60.097  63.086  1.00  0.00    -0.050 C
HETATM    2  C9  UNL     1      -7.477  59.915  62.665  1.00  0.00     0.037 C
HETATM    3  C10 UNL     1      -7.546  59.286  61.301  1.00  0.00     0.009 C
HETATM    4  C11 UNL     1      -6.369  59.652  60.470  1.00  0.00     0.042 C
HETATM    5  C12 UNL     1      -5.730  60.912  60.913  1.00  0.00    -0.015 A
HETATM    6  C13 UNL     1      -5.320  61.778  59.928  1.00  0.00     0.093 A
HETATM    7  C14 UNL     1      -4.723  62.968  60.268  1.00  0.00     0.145 A
HETATM    8  F1  UNL     1      -4.295  63.855  59.333  1.00  0.00    -0.204 F
HETATM    9  C15 UNL     1      -4.555  63.267  61.570  1.00  0.00     0.060 A
HETATM   10  C16 UNL     1      -4.981  62.373  62.601  1.00  0.00     0.025 A
HETATM   11  C17 UNL     1      -4.768  62.815  63.948  1.00  0.00     0.145 A
HETATM   12  N3  UNL     1      -3.712  63.575  64.301  1.00  0.00    -0.271 N
ATOM     13  H3  UNL     1      -2.948  63.822  63.672  1.00  0.00     0.190 HD
HETATM   14  N4  UNL     1      -3.790  63.960  65.557  1.00  0.00    -0.225 N
ATOM     15  H4  UNL     1      -3.119  64.539  66.062  1.00  0.00     0.205 HD
HETATM   16  N5  UNL     1      -4.911  63.446  66.034  1.00  0.00    -0.005 NA
HETATM   17  N6  UNL     1      -5.472  62.764  65.039  1.00  0.00    -0.266 N
ATOM     18  H6  UNL     1      -6.353  62.258  65.123  1.00  0.00     0.186 HD
HETATM   19  C18 UNL     1      -5.560  61.201  62.317  1.00  0.00    -0.010 A
ENDROOT
BRANCH   1  20
HETATM   20  C5  UNL     1      -5.779  59.448  64.317  1.00  0.00     0.065 C
HETATM   21  C6  UNL     1      -4.306  59.317  64.742  1.00  0.00     0.030 C
HETATM   22  C7  UNL     1      -6.697  59.700  65.513  1.00  0.00     0.030 C
BRANCH  20  23
HETATM   23  C4  UNL     1      -6.113  57.951  64.077  1.00  0.00     0.271 C
HETATM   24  O2  UNL     1      -6.738  57.350  64.982  1.00  0.00    -0.264 OA
BRANCH  23  25
HETATM   25  O1  UNL     1      -5.787  57.251  62.982  1.00  0.00    -0.316 OA
BRANCH  25  26
HETATM   26  C2  UNL     1      -6.466  56.239  62.346  1.00  0.00     0.123 C
HETATM   27  C1  UNL     1      -6.390  54.872  62.910  1.00  0.00     0.040 C
HETATM   28  C3  UNL     1      -5.910  56.158  60.915  1.00  0.00     0.040 C
ENDBRANCH  25  26
ENDBRANCH  23  25
ENDBRANCH  20  23
ENDBRANCH   1  20
BRANCH   6  29
HETATM   29  N1  UNL     1      -5.477  61.513  58.539  1.00  0.00    -0.304 N
ATOM     30  H1  UNL     1      -4.775  60.986  58.020  1.00  0.00     0.186 HD
BRANCH  29  31
HETATM   31  N2  UNL     1      -6.536  61.962  57.962  1.00  0.00    -0.345 N
ATOM     32  H22 UNL     1      -7.388  61.402  57.945  1.00  0.00     0.176 HD
ATOM     33  H21 UNL     1      -6.484  62.885  57.530  1.00  0.00     0.176 HD
ENDBRANCH  29  31
ENDBRANCH   6  29
TORSDOF 6
ENDMDL