MODEL 5
REMARK VINA RESULT: -7.481913115      1.321      1.390
REMARK  7 active torsions:
REMARK  status: ('A' for Active; 'I' for Inactive)
REMARK    1  A    between atoms: N1_4  and  C4_6
REMARK    2  A    between atoms: C4_6  and  C7_9
REMARK    3  A    between atoms: C8_12  and  S1_13
REMARK    4  A    between atoms: S1_13  and  C9_14
REMARK    5  A    between atoms: C9_14  and  C10_15
REMARK    6  A    between atoms: C11_18  and  O1_19
REMARK    7  A    between atoms: C13_24  and  C14_25
ROOT
HETATM    1  C7  UNL     1      -6.333  58.713  61.395  1.00  0.00     0.060 A
HETATM    2  N2  UNL     1      -6.186  59.328  60.241  1.00  0.00    -0.345 N
ATOM      3  H2  UNL     1      -6.233  58.787  59.377  1.00  0.00     0.167 HD
HETATM    4  C8  UNL     1      -5.981  60.614  60.179  1.00  0.00     0.113 A
HETATM    5  S3  UNL     1      -5.983  61.061  61.810  1.00  0.00    -0.059 SA
HETATM    6  C13 UNL     1      -6.260  59.479  62.519  1.00  0.00     0.088 A
ENDROOT
BRANCH   4   7
HETATM    7  S1  UNL     1      -5.767  61.561  58.668  1.00  0.00    -0.098 SA
BRANCH   7   8
HETATM    8  C9  UNL     1      -6.475  63.207  58.972  1.00  0.00     0.146 C
BRANCH   8   9
HETATM    9  C10 UNL     1      -5.370  64.044  59.546  1.00  0.00     0.062 A
HETATM   10  N3  UNL     1      -5.349  64.568  60.763  1.00  0.00    -0.334 N
HETATM   11  C11 UNL     1      -4.335  65.275  61.142  1.00  0.00     0.147 A
ATOM     12  H3  UNL     1      -6.130  64.413  61.399  1.00  0.00     0.168 HD
HETATM   13  C12 UNL     1      -3.308  65.455  60.252  1.00  0.00     0.107 A
HETATM   14  S2  UNL     1      -3.884  64.572  58.894  1.00  0.00    -0.084 SA
BRANCH  11  15
HETATM   15  O1  UNL     1      -4.256  65.860  62.431  1.00  0.00    -0.346 OA
ATOM     16  H1  UNL     1      -3.501  65.746  62.997  1.00  0.00     0.219 HD
ENDBRANCH  11  15
ENDBRANCH   8   9
ENDBRANCH   7   8
ENDBRANCH   4   7
BRANCH   1  17
HETATM   17  C4  UNL     1      -6.566  57.199  61.401  1.00  0.00     0.066 C
HETATM   18  C5  UNL     1      -8.025  56.890  61.106  1.00  0.00     0.045 C
HETATM   19  C6  UNL     1      -5.722  56.472  60.409  1.00  0.00     0.045 C
BRANCH  17  20
HETATM   20  N1  UNL     1      -6.297  56.663  62.678  1.00  0.00    -0.383 N
HETATM   21  C2  UNL     1      -6.498  55.571  63.209  1.00  0.00    -0.025 C
HETATM   22  C1  UNL     1      -6.030  55.429  64.646  1.00  0.00     0.062 C
HETATM   23  C3  UNL     1      -7.137  54.379  62.633  1.00  0.00     0.062 C
ATOM     24  H1  UNL     1      -5.833  57.327  63.299  1.00  0.00     0.160 HD
ENDBRANCH  17  20
ENDBRANCH   1  17
BRANCH   6  25
HETATM   25  C14 UNL     1      -6.348  59.230  63.945  1.00  0.00     0.201 C
HETATM   26  N4  UNL     1      -7.474  59.485  64.531  1.00  0.00    -0.375 N
ATOM     27  H42 UNL     1      -8.232  59.840  63.948  1.00  0.00     0.158 HD
ATOM     28  H41 UNL     1      -7.535  59.310  65.534  1.00  0.00     0.158 HD
HETATM   29  F1  UNL     1      -5.368  58.772  64.699  1.00  0.00    -0.185 F
ENDBRANCH   6  25
TORSDOF 7
ENDMDL