MODEL 2
REMARK VINA RESULT: -7.184376532      1.568      2.463
REMARK  9 active torsions:
REMARK  status: ('A' for Active; 'I' for Inactive)
REMARK    1  A    between atoms: O1_2  and  C2_3
REMARK    2  A    between atoms: C5_6  and  C6_7
REMARK    3  A    between atoms: C6_7  and  N1_8
REMARK    4  A    between atoms: N1_8  and  N2_10
REMARK    5  A    between atoms: C7_11  and  S1_12
REMARK    6  A    between atoms: S1_12  and  N3_14
REMARK    7  A    between atoms: S1_12  and  C9_18
REMARK    8  A    between atoms: N3_14  and  C8_16
REMARK    9  A    between atoms: C17_29  and  O4_30
ROOT
HETATM    1  N2  UNL     1      50.354  45.375  61.654  1.00  0.00    -0.195 N
HETATM    2  C7  UNL     1      51.631  45.158  61.844  1.00  0.00     0.207 A
HETATM    3  N4  UNL     1      52.550  44.992  60.922  1.00  0.00    -0.337 N
ATOM      4  H4  UNL     1      53.527  44.827  61.166  1.00  0.00     0.168 HD
HETATM    5  C13 UNL     1      52.140  45.052  59.620  1.00  0.00     0.013 A
HETATM    6  C14 UNL     1      53.090  44.880  58.497  1.00  0.00     0.068 C
HETATM    7  C15 UNL     1      50.806  45.280  59.340  1.00  0.00     0.101 A
HETATM    8  C16 UNL     1      49.891  45.445  60.368  1.00  0.00     0.270 A
HETATM    9  O3  UNL     1      48.697  45.647  60.112  1.00  0.00    -0.266 OA
ENDROOT
BRANCH   1  10
HETATM   10  N1  UNL     1      49.437  45.540  62.679  1.00  0.00    -0.299 N
ATOM     11  H1  UNL     1      48.972  44.721  63.072  1.00  0.00     0.186 HD
BRANCH  10  12
HETATM   12  C6  UNL     1      49.156  46.726  63.152  1.00  0.00     0.122 C
BRANCH  12  13
HETATM   13  C5  UNL     1      48.026  46.903  64.056  1.00  0.00     0.014 A
HETATM   14  C4  UNL     1      48.234  47.314  65.348  1.00  0.00     0.018 A
HETATM   15  C3  UNL     1      47.165  47.477  66.183  1.00  0.00     0.038 A
HETATM   16  C2  UNL     1      45.870  47.238  65.757  1.00  0.00     0.070 A
HETATM   17  C19 UNL     1      45.701  46.825  64.453  1.00  0.00     0.074 A
HETATM   18  C17 UNL     1      46.748  46.651  63.587  1.00  0.00     0.082 A
BRANCH  16  19
HETATM   19  O1  UNL     1      44.819  47.412  66.625  1.00  0.00    -0.356 OA
HETATM   20  C1  UNL     1      45.065  47.916  67.911  1.00  0.00     0.210 C
ENDBRANCH  16  19
BRANCH  18  21
HETATM   21  O4  UNL     1      46.529  46.234  62.280  1.00  0.00    -0.355 OA
HETATM   22  C18 UNL     1      45.235  46.219  61.746  1.00  0.00     0.210 C
ENDBRANCH  18  21
ENDBRANCH  12  13
ENDBRANCH  10  12
ENDBRANCH   1  10
BRANCH   2  23
HETATM   23  S1  UNL     1      52.377  45.069  63.749  1.00  0.00     0.098 S
HETATM   24  O2  UNL     1      51.240  44.593  65.002  1.00  0.00    -0.241 OA
BRANCH  23  25
HETATM   25  N3  UNL     1      52.514  43.237  63.383  1.00  0.00    -0.310 N
ATOM     26  H3  UNL     1      53.107  43.009  62.585  1.00  0.00     0.176 HD
BRANCH  25  27
HETATM   27  C8  UNL     1      52.012  42.261  63.940  1.00  0.00     0.178 C
HETATM   28  S2  UNL     1      51.577  40.720  64.240  1.00  0.00    -0.074 SA
ENDBRANCH  25  27
ENDBRANCH  23  25
BRANCH  23  29
HETATM   29  C9  UNL     1      54.213  45.256  63.862  1.00  0.00     0.041 C
HETATM   30  C10 UNL     1      55.122  44.238  63.146  1.00  0.00     0.030 C
HETATM   31  C11 UNL     1      54.718  45.165  65.314  1.00  0.00     0.030 C
HETATM   32  C12 UNL     1      54.658  46.620  63.369  1.00  0.00     0.030 C
ENDBRANCH  23  29
ENDBRANCH   2  23
TORSDOF 9
ENDMDL