MODEL 5
REMARK VINA RESULT: -8.034918615      1.945     11.594
REMARK  7 active torsions:
REMARK  status: ('A' for Active; 'I' for Inactive)
REMARK    1  A    between atoms: O1_2  and  C2_3
REMARK    2  A    between atoms: C2_3  and  C3_5
REMARK    3  A    between atoms: C8_10  and  C9_11
REMARK       I    between atoms: C9_11  and  N1_13
REMARK    4  A    between atoms: N1_13  and  N2_15
REMARK    5  A    between atoms: C10_17  and  C11_18
REMARK    6  A    between atoms: C14_21  and  N3_22
REMARK    7  A    between atoms: C15_25  and  N4_26
ROOT
HETATM    1  C9  UNL     1      51.076  46.643  63.713  1.00  0.00     0.270 C
HETATM    2  O3  UNL     1      50.751  45.698  62.970  1.00  0.00    -0.266 OA
HETATM    3  N1  UNL     1      50.097  47.537  64.168  1.00  0.00    -0.266 N
ATOM      4  H1  UNL     1      50.361  48.311  64.777  1.00  0.00     0.190 HD
ENDROOT
BRANCH   3   5
HETATM    5  N2  UNL     1      48.759  47.373  63.791  1.00  0.00    -0.308 N
HETATM    6  C10 UNL     1      47.875  46.914  64.614  1.00  0.00     0.118 C
ATOM      7  H2  UNL     1      48.475  47.620  62.843  1.00  0.00     0.186 HD
BRANCH   6   8
HETATM    8  C11 UNL     1      46.481  46.735  64.247  1.00  0.00    -0.017 A
HETATM    9  C12 UNL     1      45.470  46.849  65.173  1.00  0.00     0.015 A
HETATM   10  C13 UNL     1      44.178  46.675  64.788  1.00  0.00     0.039 A
HETATM   11  C14 UNL     1      43.830  46.378  63.459  1.00  0.00     0.135 A
HETATM   12  C15 UNL     1      44.804  46.258  62.532  1.00  0.00     0.136 A
HETATM   13  C16 UNL     1      46.139  46.447  62.968  1.00  0.00     0.051 A
BRANCH  11  14
HETATM   14  N3  UNL     1      42.461  46.226  63.134  1.00  0.00    -0.113 N
HETATM   15  O4  UNL     1      41.654  47.120  62.905  1.00  0.00    -0.532 OA
HETATM   16  O5  UNL     1      41.977  44.926  63.119  1.00  0.00    -0.532 OA
ENDBRANCH  11  14
BRANCH  12  17
HETATM   17  N4  UNL     1      44.627  45.948  61.166  1.00  0.00    -0.113 N
HETATM   18  O6  UNL     1      45.413  45.099  60.628  1.00  0.00    -0.532 OA
HETATM   19  O7  UNL     1      43.694  46.453  60.310  1.00  0.00    -0.532 OA
ENDBRANCH  12  17
ENDBRANCH   6   8
ENDBRANCH   3   5
BRANCH   1  20
HETATM   20  C8  UNL     1      52.462  46.806  64.098  1.00  0.00     0.035 A
HETATM   21  C7  UNL     1      52.791  47.574  65.227  1.00  0.00     0.018 A
HETATM   22  C6  UNL     1      54.094  47.752  65.628  1.00  0.00     0.015 A
HETATM   23  C5  UNL     1      55.142  47.183  64.938  1.00  0.00    -0.007 A
HETATM   24  C4  UNL     1      56.518  47.175  65.083  1.00  0.00     0.049 A
HETATM   25  C18 UNL     1      54.853  46.425  63.826  1.00  0.00     0.046 A
HETATM   26  C3  UNL     1      57.066  46.418  64.069  1.00  0.00     0.111 A
HETATM   27  N5  UNL     1      56.029  45.987  63.338  1.00  0.00    -0.346 N
HETATM   28  C19 UNL     1      56.164  45.156  62.173  1.00  0.00     0.156 C
HETATM   29  C17 UNL     1      53.524  46.249  63.426  1.00  0.00     0.047 A
BRANCH  26  30
HETATM   30  C2  UNL     1      58.496  46.159  63.866  1.00  0.00     0.309 C
HETATM   31  O2  UNL     1      59.081  45.266  64.526  1.00  0.00    -0.258 OA
BRANCH  30  32
HETATM   32  O1  UNL     1      59.227  46.880  62.954  1.00  0.00    -0.321 OA
HETATM   33  C1  UNL     1      59.653  46.355  61.689  1.00  0.00     0.213 C
ENDBRANCH  30  32
ENDBRANCH  26  30
ENDBRANCH   1  20
TORSDOF 7
ENDMDL