MODEL 2
REMARK VINA RESULT: -10.143688002      0.935      1.087
REMARK  8 active torsions:
REMARK  status: ('A' for Active; 'I' for Inactive)
REMARK    1  A    between atoms: O1_2  and  C2_3
REMARK    2  A    between atoms: C4_5  and  N1_6
REMARK    3  A    between atoms: C6_10  and  C7_11
REMARK    4  A    between atoms: C7_11  and  N2_12
REMARK    5  A    between atoms: N2_12  and  C8_14
REMARK    6  A    between atoms: N4_17  and  O4_18
REMARK    7  A    between atoms: N5_26  and  O5_27
REMARK    8  A    between atoms: C16_30  and  N6_31
ROOT
HETATM    1  C2  UNL     1      43.172  46.340  63.742  1.00  0.00     0.071 A
HETATM    2  C3  UNL     1      43.592  46.184  62.470  1.00  0.00     0.073 A
HETATM    3  C4  UNL     1      44.976  46.236  62.122  1.00  0.00     0.117 A
HETATM    4  C5  UNL     1      45.852  46.460  63.136  1.00  0.00     0.015 A
HETATM    5  C6  UNL     1      47.210  46.625  62.875  1.00  0.00    -0.024 A
HETATM    6  C15 UNL     1      48.029  46.930  63.974  1.00  0.00     0.045 A
HETATM    7  C16 UNL     1      47.575  47.074  65.257  1.00  0.00     0.104 A
HETATM    8  C17 UNL     1      46.243  46.916  65.486  1.00  0.00     0.048 A
HETATM    9  C18 UNL     1      45.382  46.617  64.450  1.00  0.00    -0.018 A
HETATM   10  C19 UNL     1      44.034  46.558  64.781  1.00  0.00     0.049 A
ENDROOT
BRANCH   5  11
HETATM   11  C7  UNL     1      47.786  46.505  61.545  1.00  0.00     0.177 C
BRANCH  11  12
HETATM   12  N2  UNL     1      49.256  46.701  61.678  1.00  0.00    -0.218 N
ATOM     13  H2  UNL     1      49.636  47.547  62.101  1.00  0.00     0.178 HD
BRANCH  12  14
HETATM   14  C8  UNL     1      50.125  45.658  61.192  1.00  0.00     0.721 A
HETATM   15  N3  UNL     1      49.816  45.014  60.058  1.00  0.00    -0.103 N
HETATM   16  N4  UNL     1      50.579  44.054  59.577  1.00  0.00    -0.147 N
ATOM     17  H3  UNL     1      48.968  45.273  59.554  1.00  0.00     0.208 HD
HETATM   18  C9  UNL     1      51.714  43.709  60.258  1.00  0.00     0.111 A
HETATM   19  C10 UNL     1      52.555  42.727  59.825  1.00  0.00     0.036 A
HETATM   20  C14 UNL     1      52.040  44.374  61.436  1.00  0.00     0.112 A
HETATM   21  C11 UNL     1      53.694  42.384  60.516  1.00  0.00     0.003 A
HETATM   22  C12 UNL     1      54.023  43.039  61.683  1.00  0.00     0.002 A
HETATM   23  C13 UNL     1      53.194  44.031  62.138  1.00  0.00     0.035 A
HETATM   24  N5  UNL     1      51.227  45.330  61.862  1.00  0.00    -0.049 N
BRANCH  16  25
HETATM   25  O4  UNL     1      50.268  43.385  58.408  1.00  0.00    -0.267 OA
ATOM     26  H4  UNL     1      49.426  43.483  57.980  1.00  0.00     0.247 HD
ENDBRANCH  16  25
BRANCH  24  27
HETATM   27  O5  UNL     1      51.489  46.018  63.008  1.00  0.00    -0.269 OA
ATOM     28  H5  UNL     1      51.632  45.510  63.798  1.00  0.00     0.245 HD
ENDBRANCH  24  27
ENDBRANCH  12  14
ENDBRANCH  11  12
ENDBRANCH   5  11
BRANCH   3  29
HETATM   29  N1  UNL     1      45.236  46.063  60.772  1.00  0.00    -0.115 N
HETATM   30  O2  UNL     1      45.516  45.108  60.108  1.00  0.00    -0.532 OA
HETATM   31  O3  UNL     1      44.838  47.166  59.933  1.00  0.00    -0.532 OA
ENDBRANCH   3  29
BRANCH   7  32
HETATM   32  N6  UNL     1      48.473  47.377  66.309  1.00  0.00    -0.116 N
HETATM   33  O6  UNL     1      48.107  47.951  67.358  1.00  0.00    -0.532 OA
HETATM   34  O7  UNL     1      49.814  47.055  66.242  1.00  0.00    -0.532 OA
ENDBRANCH   7  32
BRANCH   1  35
HETATM   35  O1  UNL     1      41.790  46.280  64.042  1.00  0.00    -0.356 OA
HETATM   36  C1  UNL     1      40.897  45.515  63.264  1.00  0.00     0.210 C
ENDBRANCH   1  35
TORSDOF 8
ENDMDL