MODEL 2
REMARK VINA RESULT: -6.977313801      2.122      4.589
REMARK  7 active torsions:
REMARK  status: ('A' for Active; 'I' for Inactive)
REMARK    1  A    between atoms: O1_2  and  C2_3
REMARK    2  A    between atoms: C4_5  and  C5_6
REMARK    3  A    between atoms: C8_10  and  N1_11
REMARK    4  A    between atoms: N2_17  and  C10_18
REMARK    5  A    between atoms: C15_23  and  N3_24
REMARK    6  A    between atoms: C16_27  and  N4_28
REMARK    7  A    between atoms: C18_32  and  O8_33
ROOT
HETATM    1  C5  UNL     1      52.381  45.599  62.245  1.00  0.00     0.136 C
HETATM    2  C6  UNL     1      52.329  44.871  60.835  1.00  0.00     0.111 C
HETATM    3  C7  UNL     1      53.696  45.161  60.282  1.00  0.00     0.168 C
HETATM    4  O2  UNL     1      53.769  45.740  59.221  1.00  0.00    -0.295 OA
HETATM    5  C8  UNL     1      54.850  44.710  61.091  1.00  0.00     0.343 C
HETATM    6  C9  UNL     1      54.470  44.394  62.481  1.00  0.00     0.263 C
HETATM    7  O3  UNL     1      55.355  43.936  63.237  1.00  0.00    -0.270 OA
HETATM    8  N2  UNL     1      53.118  44.592  62.998  1.00  0.00    -0.304 N
ENDROOT
BRANCH   1   9
HETATM    9  C4  UNL     1      51.030  45.912  62.623  1.00  0.00     0.001 A
HETATM   10  C3  UNL     1      49.960  45.255  62.022  1.00  0.00     0.051 A
HETATM   11  C2  UNL     1      48.644  45.410  62.401  1.00  0.00     0.102 A
HETATM   12  C18 UNL     1      48.355  46.273  63.442  1.00  0.00     0.103 A
HETATM   13  C17 UNL     1      49.373  46.953  64.071  1.00  0.00     0.076 A
HETATM   14  C16 UNL     1      50.707  46.764  63.647  1.00  0.00     0.114 A
BRANCH  11  15
HETATM   15  O1  UNL     1      47.598  44.744  61.792  1.00  0.00    -0.353 OA
HETATM   16  C1  UNL     1      47.753  44.393  60.427  1.00  0.00     0.210 C
ENDBRANCH  11  15
BRANCH  12  17
HETATM   17  O8  UNL     1      47.031  46.422  63.813  1.00  0.00    -0.353 OA
HETATM   18  C19 UNL     1      46.546  46.986  64.990  1.00  0.00     0.210 C
ENDBRANCH  12  17
BRANCH  14  19
HETATM   19  N4  UNL     1      51.623  47.665  64.270  1.00  0.00    -0.115 N
HETATM   20  O6  UNL     1      51.437  48.930  64.081  1.00  0.00    -0.532 OA
HETATM   21  O7  UNL     1      52.684  47.374  65.022  1.00  0.00    -0.532 OA
ENDBRANCH  14  19
ENDBRANCH   1   9
BRANCH   8  22
HETATM   22  C10 UNL     1      52.732  43.744  64.041  1.00  0.00     0.071 A
HETATM   23  C11 UNL     1      52.679  44.238  65.361  1.00  0.00     0.032 A
HETATM   24  C12 UNL     1      52.281  43.497  66.442  1.00  0.00     0.002 A
HETATM   25  C13 UNL     1      51.899  42.191  66.282  1.00  0.00     0.003 A
HETATM   26  C14 UNL     1      51.933  41.677  65.024  1.00  0.00     0.038 A
HETATM   27  C15 UNL     1      52.348  42.449  63.902  1.00  0.00     0.129 A
BRANCH  27  28
HETATM   28  N3  UNL     1      52.242  41.749  62.673  1.00  0.00    -0.113 N
HETATM   29  O4  UNL     1      51.211  41.465  62.136  1.00  0.00    -0.532 OA
HETATM   30  O5  UNL     1      53.417  41.373  61.993  1.00  0.00    -0.532 OA
ENDBRANCH  27  28
ENDBRANCH   8  22
BRANCH   5  31
HETATM   31  N1  UNL     1      55.945  45.677  61.128  1.00  0.00    -0.059 N
ATOM     32  H13 UNL     1      56.709  45.335  61.711  1.00  0.00     0.275 HD
ATOM     33  H12 UNL     1      56.423  45.716  60.227  1.00  0.00     0.275 HD
ATOM     34  H11 UNL     1      55.652  46.608  61.424  1.00  0.00     0.275 HD
ENDBRANCH   5  31
TORSDOF 7
ENDMDL