MODEL 2
REMARK VINA RESULT: -8.293635261      2.181      4.135
REMARK  6 active torsions:
REMARK  status: ('A' for Active; 'I' for Inactive)
REMARK    1  A    between atoms: C6_7  and  C7_8
REMARK    2  A    between atoms: C8_9  and  C9_10
REMARK    3  A    between atoms: N2_16  and  C11_17
REMARK    4  A    between atoms: C11_17  and  C12_18
REMARK    5  A    between atoms: C14_20  and  N3_21
REMARK    6  A    between atoms: C16_25  and  N4_26
ROOT
HETATM    1  N1  UNL     1      47.686  43.623  58.482  1.00  0.00    -0.191 NA
HETATM    2  C1  UNL     1      48.686  43.988  58.925  1.00  0.00     0.099 C
HETATM    3  C2  UNL     1      49.947  44.428  59.485  1.00  0.00     0.045 A
HETATM    4  C3  UNL     1      50.861  45.066  58.670  1.00  0.00     0.023 A
HETATM    5  C4  UNL     1      52.054  45.472  59.238  1.00  0.00     0.002 A
HETATM    6  C5  UNL     1      52.303  45.240  60.561  1.00  0.00     0.014 A
HETATM    7  C6  UNL     1      51.399  44.612  61.357  1.00  0.00    -0.006 A
HETATM    8  C18 UNL     1      50.204  44.200  60.815  1.00  0.00     0.036 A
ENDROOT
BRANCH   7   9
HETATM    9  C7  UNL     1      51.585  44.486  62.850  1.00  0.00     0.072 A
HETATM   10  C8  UNL     1      52.071  43.304  63.355  1.00  0.00     0.114 A
HETATM   11  S1  UNL     1      51.965  43.537  65.048  1.00  0.00    -0.020 SA
HETATM   12  C10 UNL     1      51.324  45.101  65.030  1.00  0.00     0.292 A
HETATM   13  O3  UNL     1      51.027  45.824  66.055  1.00  0.00    -0.259 OA
HETATM   14  N2  UNL     1      51.193  45.422  63.707  1.00  0.00    -0.302 N
BRANCH  10  15
HETATM   15  C9  UNL     1      52.680  42.138  62.676  1.00  0.00     0.219 C
HETATM   16  O1  UNL     1      52.113  41.018  62.922  1.00  0.00    -0.643 OA
HETATM   17  O2  UNL     1      53.746  42.099  61.849  1.00  0.00    -0.643 OA
ENDBRANCH  10  15
BRANCH  14  18
HETATM   18  C11 UNL     1      50.553  46.738  63.432  1.00  0.00     0.171 C
BRANCH  18  19
HETATM   19  C12 UNL     1      49.077  46.666  63.463  1.00  0.00    -0.035 A
HETATM   20  C13 UNL     1      48.377  46.384  62.318  1.00  0.00     0.045 A
HETATM   21  C14 UNL     1      46.986  46.309  62.253  1.00  0.00     0.105 A
HETATM   22  C15 UNL     1      46.276  46.532  63.408  1.00  0.00     0.072 A
HETATM   23  C16 UNL     1      46.939  46.821  64.582  1.00  0.00     0.105 A
HETATM   24  C17 UNL     1      48.330  46.886  64.603  1.00  0.00     0.045 A
BRANCH  21  25
HETATM   25  N3  UNL     1      46.307  46.013  61.048  1.00  0.00    -0.116 N
HETATM   26  O4  UNL     1      46.624  46.512  59.973  1.00  0.00    -0.532 OA
HETATM   27  O5  UNL     1      45.241  45.130  61.053  1.00  0.00    -0.532 OA
ENDBRANCH  21  25
BRANCH  23  28
HETATM   28  N4  UNL     1      46.176  47.048  65.764  1.00  0.00    -0.116 N
HETATM   29  O6  UNL     1      46.716  47.440  66.808  1.00  0.00    -0.532 OA
HETATM   30  O7  UNL     1      44.824  46.832  65.756  1.00  0.00    -0.532 OA
ENDBRANCH  23  28
ENDBRANCH  18  19
ENDBRANCH  14  18
ENDBRANCH   7   9
TORSDOF 6
ENDMDL