MODEL 1
REMARK VINA RESULT: -8.011388995      0.000      0.000
REMARK  8 active torsions:
REMARK  status: ('A' for Active; 'I' for Inactive)
REMARK    1  A    between atoms: O1_2  and  C2_3
REMARK    2  A    between atoms: C4_5  and  C5_6
REMARK    3  A    between atoms: C11_13  and  O3_14
REMARK    4  A    between atoms: C15_20  and  O5_21
REMARK    5  A    between atoms: C17_23  and  O6_24
REMARK    6  A    between atoms: O6_24  and  S1_25
REMARK    7  A    between atoms: S1_25  and  O9_28
REMARK    8  A    between atoms: O9_28  and  C18_29
ROOT
HETATM    1  C2  UNL     1      52.184  43.183  61.369  1.00  0.00     0.106 A
HETATM    2  C3  UNL     1      53.145  43.513  62.313  1.00  0.00     0.051 A
HETATM    3  C4  UNL     1      53.038  44.577  63.173  1.00  0.00    -0.028 A
HETATM    4  C14 UNL     1      51.868  45.334  63.039  1.00  0.00     0.051 A
HETATM    5  C15 UNL     1      50.897  45.052  62.131  1.00  0.00     0.106 A
HETATM    6  C17 UNL     1      51.049  43.962  61.280  1.00  0.00     0.158 A
ENDROOT
BRANCH   3   7
HETATM    7  C5  UNL     1      53.994  44.950  64.189  1.00  0.00     0.053 C
HETATM    8  C6  UNL     1      55.230  45.332  64.017  1.00  0.00     0.128 A
HETATM    9  O2  UNL     1      56.080  45.682  65.076  1.00  0.00    -0.306 OA
HETATM   10  C13 UNL     1      56.027  45.494  62.817  1.00  0.00     0.221 A
HETATM   11  C7  UNL     1      57.315  46.038  64.601  1.00  0.00     0.093 A
HETATM   12  C8  UNL     1      58.426  46.446  65.338  1.00  0.00     0.038 A
HETATM   13  C12 UNL     1      57.356  45.947  63.231  1.00  0.00     0.084 A
HETATM   14  C9  UNL     1      59.566  46.755  64.639  1.00  0.00     0.006 A
HETATM   15  C10 UNL     1      59.658  46.681  63.271  1.00  0.00     0.038 A
HETATM   16  C11 UNL     1      58.528  46.269  62.552  1.00  0.00     0.082 A
HETATM   17  O4  UNL     1      55.700  45.298  61.630  1.00  0.00    -0.284 OA
BRANCH  16  18
HETATM   18  O3  UNL     1      58.590  46.184  61.174  1.00  0.00    -0.360 OA
ATOM     19  H3  UNL     1      57.984  45.617  60.711  1.00  0.00     0.217 HD
ENDBRANCH  16  18
ENDBRANCH   3   7
BRANCH   1  20
HETATM   20  O1  UNL     1      52.350  42.084  60.520  1.00  0.00    -0.353 OA
HETATM   21  C1  UNL     1      53.317  42.180  59.491  1.00  0.00     0.210 C
ENDBRANCH   1  20
BRANCH   5  22
HETATM   22  O5  UNL     1      49.755  45.793  62.002  1.00  0.00    -0.353 OA
HETATM   23  C16 UNL     1      48.676  45.729  62.923  1.00  0.00     0.210 C
ENDBRANCH   5  22
BRANCH   6  24
HETATM   24  O6  UNL     1      50.083  43.629  60.330  1.00  0.00    -0.205 OA
BRANCH  24  25
HETATM   25  S1  UNL     1      49.987  44.393  58.830  1.00  0.00     0.414 S
HETATM   26  O7  UNL     1      49.952  43.418  57.687  1.00  0.00    -0.168 OA
HETATM   27  O8  UNL     1      51.215  45.246  58.666  1.00  0.00    -0.168 OA
BRANCH  25  28
HETATM   28  O9  UNL     1      48.586  45.351  58.803  1.00  0.00    -0.175 OA
BRANCH  28  29
HETATM   29  C18 UNL     1      47.368  44.819  59.158  1.00  0.00     0.272 C
HETATM   30  C19 UNL     1      46.422  45.661  59.922  1.00  0.00     0.127 C
HETATM   31  O10 UNL     1      47.033  43.659  58.860  1.00  0.00    -0.265 OA
ENDBRANCH  28  29
ENDBRANCH  25  28
ENDBRANCH  24  25
ENDBRANCH   6  24
TORSDOF 8
ENDMDL