MODEL 2
REMARK VINA RESULT: -9.553188026      2.797      3.789
REMARK  8 active torsions:
REMARK  status: ('A' for Active; 'I' for Inactive)
REMARK    1  A    between atoms: O1_2  and  C2_3
REMARK    2  A    between atoms: C5_6  and  O2_7
REMARK    3  A    between atoms: O2_7  and  C6_8
REMARK    4  A    between atoms: C9_12  and  C10_13
REMARK    5  A    between atoms: C10_13  and  C11_14
REMARK    6  A    between atoms: C14_17  and  O3_18
REMARK    7  A    between atoms: C15_20  and  O4_21
REMARK    8  A    between atoms: C18_24  and  O5_25
ROOT
HETATM    1  C6  UNL     1      47.139  45.847  59.881  1.00  0.00     0.154 A
HETATM    2  C7  UNL     1      47.657  45.773  61.157  1.00  0.00     0.094 A
HETATM    3  C8  UNL     1      48.815  45.022  61.409  1.00  0.00     0.092 A
HETATM    4  S1  UNL     1      49.719  44.710  62.821  1.00  0.00    -0.067 SA
HETATM    5  C9  UNL     1      50.923  43.717  62.136  1.00  0.00     0.059 A
HETATM    6  C18 UNL     1      50.550  43.680  60.818  1.00  0.00     0.169 A
HETATM    7  N1  UNL     1      49.472  44.353  60.471  1.00  0.00    -0.236 N
HETATM    8  C19 UNL     1      48.938  44.442  59.207  1.00  0.00     0.335 A
HETATM    9  O6  UNL     1      49.461  43.855  58.226  1.00  0.00    -0.246 OA
HETATM   10  N2  UNL     1      47.849  45.146  58.966  1.00  0.00    -0.288 N
ATOM     11  H2  UNL     1      47.512  45.165  58.003  1.00  0.00     0.172 HD
ENDROOT
BRANCH   5  12
HETATM   12  C10 UNL     1      51.976  43.113  62.717  1.00  0.00     0.034 C
BRANCH  12  13
HETATM   13  C11 UNL     1      51.853  42.127  63.749  1.00  0.00    -0.032 A
HETATM   14  C12 UNL     1      51.491  40.844  63.354  1.00  0.00     0.014 A
HETATM   15  C13 UNL     1      51.352  39.844  64.288  1.00  0.00     0.040 A
HETATM   16  C14 UNL     1      51.558  40.050  65.635  1.00  0.00     0.099 A
HETATM   17  C15 UNL     1      51.916  41.340  65.991  1.00  0.00     0.102 A
HETATM   18  C17 UNL     1      52.062  42.356  65.080  1.00  0.00     0.051 A
BRANCH  16  19
HETATM   19  O3  UNL     1      51.413  39.028  66.572  1.00  0.00    -0.358 OA
ATOM     20  H3  UNL     1      52.143  38.712  67.092  1.00  0.00     0.217 HD
ENDBRANCH  16  19
BRANCH  17  21
HETATM   21  O4  UNL     1      52.131  41.586  67.337  1.00  0.00    -0.353 OA
HETATM   22  C16 UNL     1      52.437  42.882  67.815  1.00  0.00     0.210 C
ENDBRANCH  17  21
ENDBRANCH  12  13
ENDBRANCH   5  12
BRANCH   6  23
HETATM   23  O5  UNL     1      51.296  42.978  60.010  1.00  0.00    -0.345 OA
ATOM     24  H5  UNL     1      51.632  42.153  60.340  1.00  0.00     0.219 HD
ENDBRANCH   6  23
BRANCH   1  25
HETATM   25  O2  UNL     1      46.014  46.552  59.529  1.00  0.00    -0.294 OA
BRANCH  25  26
HETATM   26  C5  UNL     1      44.908  46.599  60.364  1.00  0.00     0.078 A
HETATM   27  C4  UNL     1      43.909  47.533  60.130  1.00  0.00     0.040 A
HETATM   28  C3  UNL     1      42.803  47.575  60.971  1.00  0.00     0.039 A
HETATM   29  C2  UNL     1      42.711  46.698  62.017  1.00  0.00     0.068 A
HETATM   30  C21 UNL     1      43.694  45.771  62.255  1.00  0.00     0.039 A
HETATM   31  C20 UNL     1      44.804  45.727  61.412  1.00  0.00     0.040 A
BRANCH  29  32
HETATM   32  O1  UNL     1      41.592  46.767  62.838  1.00  0.00    -0.356 OA
HETATM   33  C1  UNL     1      40.913  45.635  63.301  1.00  0.00     0.210 C
ENDBRANCH  29  32
ENDBRANCH  25  26
ENDBRANCH   1  25
TORSDOF 8
ENDMDL