MODEL 3
REMARK VINA RESULT: -7.804084762      1.008      2.551
REMARK  7 active torsions:
REMARK  status: ('A' for Active; 'I' for Inactive)
REMARK    1  A    between atoms: O1_2  and  C2_3
REMARK    2  A    between atoms: C4_5  and  O2_6
REMARK    3  A    between atoms: C6_8  and  O3_9
REMARK    4  A    between atoms: C9_12  and  C10_13
REMARK    5  A    between atoms: C11_14  and  S1_17
REMARK    6  A    between atoms: S1_17  and  C13_20
REMARK    7  A    between atoms: N2_29  and  O8_30
ROOT
HETATM    1  C10 UNL     1      50.477  44.132  61.557  1.00  0.00     0.049 C
HETATM    2  C11 UNL     1      50.903  43.958  60.350  1.00  0.00     0.144 C
HETATM    3  C12 UNL     1      49.857  43.944  59.301  1.00  0.00     0.112 C
HETATM    4  N1  UNL     1      49.037  43.954  58.490  1.00  0.00    -0.191 NA
ENDROOT
BRANCH   2   5
HETATM    5  S1  UNL     1      52.494  43.600  59.767  1.00  0.00     0.216 S
HETATM    6  O4  UNL     1      52.668  42.164  59.339  1.00  0.00    -0.216 OA
HETATM    7  O5  UNL     1      52.688  44.408  58.466  1.00  0.00    -0.216 OA
BRANCH   5   8
HETATM    8  C13 UNL     1      53.784  44.047  60.817  1.00  0.00     0.067 A
HETATM    9  C14 UNL     1      54.401  43.191  61.703  1.00  0.00     0.026 A
HETATM   10  C15 UNL     1      55.464  43.635  62.493  1.00  0.00     0.037 A
HETATM   11  C16 UNL     1      55.949  44.920  62.440  1.00  0.00     0.102 A
HETATM   12  C17 UNL     1      55.323  45.786  61.542  1.00  0.00     0.111 A
HETATM   13  N2  UNL     1      56.919  45.610  63.054  1.00  0.00    -0.164 N
HETATM   14  C18 UNL     1      54.293  45.335  60.784  1.00  0.00     0.063 A
HETATM   15  O6  UNL     1      55.946  46.940  61.663  1.00  0.00    -0.257 OA
HETATM   16  C19 UNL     1      56.882  46.876  62.535  1.00  0.00     0.397 A
HETATM   17  O7  UNL     1      57.681  47.802  62.902  1.00  0.00    -0.235 OA
BRANCH  13  18
HETATM   18  O8  UNL     1      57.770  45.139  64.014  1.00  0.00    -0.278 OA
ATOM     19  H8  UNL     1      57.577  45.029  64.938  1.00  0.00     0.245 HD
ENDBRANCH  13  18
ENDBRANCH   5   8
ENDBRANCH   2   5
BRANCH   1  20
HETATM   20  C9  UNL     1      51.103  44.208  62.844  1.00  0.00     0.002 A
HETATM   21  C2  UNL     1      51.308  43.148  63.665  1.00  0.00     0.081 A
HETATM   22  C3  UNL     1      51.882  43.355  64.885  1.00  0.00     0.077 A
HETATM   23  C4  UNL     1      52.280  44.667  65.333  1.00  0.00     0.104 A
HETATM   24  C6  UNL     1      52.050  45.737  64.451  1.00  0.00     0.102 A
HETATM   25  C8  UNL     1      51.477  45.508  63.244  1.00  0.00     0.054 A
BRANCH  21  26
HETATM   26  O1  UNL     1      50.970  41.841  63.338  1.00  0.00    -0.355 OA
HETATM   27  C1  UNL     1      51.670  40.703  63.711  1.00  0.00     0.210 C
ENDBRANCH  21  26
BRANCH  23  28
HETATM   28  O2  UNL     1      52.811  44.850  66.463  1.00  0.00    -0.353 OA
HETATM   29  C5  UNL     1      53.556  44.794  67.555  1.00  0.00     0.210 C
ENDBRANCH  23  28
BRANCH  24  30
HETATM   30  O3  UNL     1      52.434  46.997  64.884  1.00  0.00    -0.353 OA
HETATM   31  C7  UNL     1      53.595  47.589  64.405  1.00  0.00     0.210 C
ENDBRANCH  24  30
ENDBRANCH   1  20
TORSDOF 7
ENDMDL