MODEL 3
REMARK VINA RESULT: -9.095658604      3.503      8.161
REMARK  9 active torsions:
REMARK  status: ('A' for Active; 'I' for Inactive)
REMARK    1  A    between atoms: C2_2  and  O1_3
REMARK    2  A    between atoms: O1_3  and  C3_4
REMARK    3  A    between atoms: C3_4  and  O3_6
REMARK    4  A    between atoms: O3_6  and  C4_7
REMARK    5  A    between atoms: C7_10  and  C8_11
REMARK    6  A    between atoms: C9_13  and  O5_14
REMARK    7  A    between atoms: O5_14  and  C10_15
REMARK    8  A    between atoms: C16_22  and  C17_23
REMARK    9  A    between atoms: C18_26  and  N1_27
ROOT
HETATM    1  C8  UNL     1      50.982  44.513  61.214  1.00  0.00     0.192 C
HETATM    2  O4  UNL     1      51.084  43.741  62.369  1.00  0.00    -0.326 OA
HETATM    3  C9  UNL     1      52.419  43.946  62.804  1.00  0.00     0.420 C
HETATM    4  O6  UNL     1      53.217  43.204  61.943  1.00  0.00    -0.320 OA
HETATM    5  C16 UNL     1      53.262  43.660  60.647  1.00  0.00     0.259 C
HETATM    6  C18 UNL     1      51.908  44.069  60.111  1.00  0.00     0.229 C
ENDROOT
BRANCH   1   7
HETATM    7  C7  UNL     1      49.602  44.786  60.782  1.00  0.00    -0.027 A
HETATM    8  C6  UNL     1      48.550  44.060  61.284  1.00  0.00     0.012 A
HETATM    9  C5  UNL     1      47.254  44.310  60.874  1.00  0.00     0.038 A
HETATM   10  C4  UNL     1      46.962  45.289  59.952  1.00  0.00     0.081 A
HETATM   11  C20 UNL     1      48.003  46.026  59.441  1.00  0.00     0.038 A
HETATM   12  C19 UNL     1      49.305  45.768  59.859  1.00  0.00     0.012 A
BRANCH  10  13
HETATM   13  O3  UNL     1      45.635  45.472  59.599  1.00  0.00    -0.255 OA
BRANCH  13  14
HETATM   14  C3  UNL     1      44.796  46.102  60.493  1.00  0.00     0.416 C
HETATM   15  O2  UNL     1      44.605  47.322  60.389  1.00  0.00    -0.229 OA
BRANCH  14  16
HETATM   16  O1  UNL     1      44.141  45.432  61.524  1.00  0.00    -0.268 OA
BRANCH  16  17
HETATM   17  C2  UNL     1      43.185  46.102  62.279  1.00  0.00     0.137 C
HETATM   18  C1  UNL     1      42.407  45.363  63.059  1.00  0.00     0.038 C
ENDBRANCH  16  17
ENDBRANCH  14  16
ENDBRANCH  13  14
ENDBRANCH  10  13
ENDBRANCH   1   7
BRANCH   6  19
HETATM   19  N1  UNL     1      51.387  42.961  59.367  1.00  0.00    -0.144 N
HETATM   20  O9  UNL     1      51.765  41.809  59.601  1.00  0.00    -0.536 OA
HETATM   21  O10 UNL     1      50.464  43.179  58.387  1.00  0.00    -0.536 OA
ENDBRANCH   6  19
BRANCH   3  22
HETATM   22  O5  UNL     1      52.622  43.489  64.092  1.00  0.00    -0.297 OA
BRANCH  22  23
HETATM   23  C10 UNL     1      52.201  44.075  65.261  1.00  0.00     0.074 A
HETATM   24  C11 UNL     1      51.679  45.349  65.312  1.00  0.00     0.037 A
HETATM   25  C12 UNL     1      51.257  45.922  66.512  1.00  0.00     0.003 A
HETATM   26  C13 UNL     1      51.359  45.210  67.680  1.00  0.00     0.000 A
HETATM   27  C14 UNL     1      51.874  43.934  67.675  1.00  0.00     0.003 A
HETATM   28  C15 UNL     1      52.278  43.398  66.482  1.00  0.00     0.037 A
ENDBRANCH  22  23
ENDBRANCH   3  22
BRANCH   5  29
HETATM   29  C17 UNL     1      54.226  44.778  60.569  1.00  0.00     0.205 C
HETATM   30  O7  UNL     1      53.977  45.847  59.965  1.00  0.00    -0.646 OA
HETATM   31  O8  UNL     1      55.463  44.666  61.179  1.00  0.00    -0.646 OA
ENDBRANCH   5  29
TORSDOF 9
ENDMDL