MODEL 1
REMARK VINA RESULT: -8.736621373      0.000      0.000
REMARK  7 active torsions:
REMARK  status: ('A' for Active; 'I' for Inactive)
REMARK    1  A    between atoms: O1_2  and  C2_3
REMARK    2  A    between atoms: C4_5  and  C5_6
REMARK    3  A    between atoms: C11_13  and  O3_14
REMARK    4  A    between atoms: C13_16  and  O4_17
REMARK    5  A    between atoms: C15_19  and  O5_20
REMARK    6  A    between atoms: C18_24  and  N1_25
REMARK    7  A    between atoms: C21_31  and  N2_32
ROOT
HETATM    1  C5  UNL     1      50.099  46.252  64.787  1.00  0.00     0.025 C
HETATM    2  C6  UNL     1      48.900  46.654  64.518  1.00  0.00     0.032 C
HETATM    3  C7  UNL     1      48.166  46.415  63.282  1.00  0.00     0.194 C
HETATM    4  O2  UNL     1      48.774  46.169  62.222  1.00  0.00    -0.287 OA
HETATM    5  C8  UNL     1      46.704  46.458  63.242  1.00  0.00     0.065 A
HETATM    6  C9  UNL     1      45.981  46.733  64.400  1.00  0.00     0.032 A
HETATM    7  C10 UNL     1      44.588  46.772  64.386  1.00  0.00     0.056 A
HETATM    8  C11 UNL     1      43.884  46.540  63.223  1.00  0.00     0.105 A
HETATM    9  C13 UNL     1      44.591  46.266  62.065  1.00  0.00     0.136 A
HETATM   10  C15 UNL     1      45.988  46.229  62.093  1.00  0.00     0.119 A
HETATM   11  C17 UNL     1      46.733  46.970  65.612  1.00  0.00     0.195 C
HETATM   12  O6  UNL     1      46.191  46.786  66.720  1.00  0.00    -0.290 OA
HETATM   13  C18 UNL     1      48.123  47.427  65.548  1.00  0.00     0.294 C
ENDROOT
BRANCH   1  14
HETATM   14  C4  UNL     1      51.018  45.476  63.974  1.00  0.00    -0.033 A
HETATM   15  C3  UNL     1      50.921  44.117  63.781  1.00  0.00     0.050 A
HETATM   16  C2  UNL     1      51.817  43.437  62.978  1.00  0.00     0.102 A
HETATM   17  C21 UNL     1      52.845  44.104  62.340  1.00  0.00     0.136 A
HETATM   18  C20 UNL     1      52.971  45.463  62.512  1.00  0.00     0.040 A
HETATM   19  C19 UNL     1      52.070  46.121  63.315  1.00  0.00     0.014 A
BRANCH  16  20
HETATM   20  O1  UNL     1      51.720  42.062  62.782  1.00  0.00    -0.353 OA
HETATM   21  C1  UNL     1      51.769  41.182  63.888  1.00  0.00     0.210 C
ENDBRANCH  16  20
BRANCH  17  22
HETATM   22  N2  UNL     1      53.747  43.354  61.516  1.00  0.00    -0.113 N
HETATM   23  O7  UNL     1      53.466  43.184  60.311  1.00  0.00    -0.532 OA
HETATM   24  O8  UNL     1      54.900  42.811  61.979  1.00  0.00    -0.532 OA
ENDBRANCH  17  22
ENDBRANCH   1  14
BRANCH  13  25
HETATM   25  N1  UNL     1      48.790  47.434  66.798  1.00  0.00    -0.064 N
ATOM     26  H13 UNL     1      48.242  47.914  67.512  1.00  0.00     0.275 HD
ATOM     27  H12 UNL     1      48.812  46.505  67.215  1.00  0.00     0.275 HD
ATOM     28  H11 UNL     1      49.726  47.831  66.716  1.00  0.00     0.275 HD
ENDBRANCH  13  25
BRANCH  10  29
HETATM   29  O5  UNL     1      46.608  45.951  60.887  1.00  0.00    -0.352 OA
HETATM   30  C16 UNL     1      46.613  44.577  60.466  1.00  0.00     0.210 C
ENDBRANCH  10  29
BRANCH   9  31
HETATM   31  O4  UNL     1      43.864  46.036  60.906  1.00  0.00    -0.351 OA
HETATM   32  C14 UNL     1      43.474  47.057  60.023  1.00  0.00     0.210 C
ENDBRANCH   9  31
BRANCH   8  33
HETATM   33  O3  UNL     1      42.494  46.581  63.215  1.00  0.00    -0.353 OA
HETATM   34  C12 UNL     1      41.742  45.545  63.809  1.00  0.00     0.210 C
ENDBRANCH   8  33
TORSDOF 7
ENDMDL