MODEL 1
REMARK VINA RESULT: -6.538889815      0.000      0.000
REMARK  5 active torsions:
REMARK  status: ('A' for Active; 'I' for Inactive)
REMARK    1  A    between atoms: N1_2  and  C2_4
REMARK    2  A    between atoms: C2_4  and  C3_6
REMARK    3  A    between atoms: C3_6  and  S2_7
REMARK    4  A    between atoms: S2_7  and  C4_8
REMARK    5  A    between atoms: C5_11  and  N3_12
ROOT
HETATM    1  C4  UNL     1      56.843 -21.474  86.786  1.00  0.00     0.147 A
HETATM    2  N2  UNL     1      55.677 -22.108  86.942  1.00  0.00    -0.323 N
ATOM      3  H2  UNL     1      55.513 -22.927  86.358  1.00  0.00     0.169 HD
HETATM    4  C5  UNL     1      54.705 -21.763  87.796  1.00  0.00     0.114 A
HETATM    5  C6  UNL     1      54.877 -20.639  88.630  1.00  0.00     0.048 A
HETATM    6  C7  UNL     1      54.026 -20.139  89.543  1.00  0.00    -0.033 A
HETATM    7  C8  UNL     1      52.658 -20.725  89.858  1.00  0.00     0.050 C
HETATM    8  C9  UNL     1      54.428 -19.027  90.231  1.00  0.00    -0.012 A
HETATM    9  C10 UNL     1      53.733 -18.242  91.289  1.00  0.00     0.057 C
HETATM   10  S3  UNL     1      55.971 -18.707  89.593  1.00  0.00    -0.076 SA
HETATM   11  C11 UNL     1      56.070 -19.999  88.462  1.00  0.00     0.091 A
HETATM   12  N4  UNL     1      57.025 -20.402  87.569  1.00  0.00    -0.330 N
ATOM     13  H4  UNL     1      57.895 -19.874  87.498  1.00  0.00     0.168 HD
ENDROOT
BRANCH   1  14
HETATM   14  S2  UNL     1      58.079 -22.024  85.616  1.00  0.00    -0.087 SA
BRANCH  14  15
HETATM   15  C3  UNL     1      59.728 -21.983  86.290  1.00  0.00     0.151 C
BRANCH  15  16
HETATM   16  C2  UNL     1      60.711 -21.925  85.189  1.00  0.00     0.082 C
HETATM   17  S1  UNL     1      60.278 -21.319  83.746  1.00  0.00    -0.065 SA
BRANCH  16  18
HETATM   18  N1  UNL     1      62.023 -22.388  85.408  1.00  0.00    -0.388 N
HETATM   19  C1  UNL     1      63.059 -21.443  85.752  1.00  0.00     0.147 C
ATOM     20  H1  UNL     1      62.239 -23.382  85.324  1.00  0.00     0.159 HD
ENDBRANCH  16  18
ENDBRANCH  15  16
ENDBRANCH  14  15
ENDBRANCH   1  14
BRANCH   4  21
HETATM   21  N3  UNL     1      53.624 -22.478  87.837  1.00  0.00    -0.385 N
ATOM     22  H32 UNL     1      53.457 -23.231  87.169  1.00  0.00     0.157 HD
ATOM     23  H31 UNL     1      52.927 -22.278  88.555  1.00  0.00     0.157 HD
ENDBRANCH   4  21
TORSDOF 5
ENDMDL