MODEL 3
REMARK VINA RESULT: -7.052969912      6.665      9.378
REMARK  6 active torsions:
REMARK  status: ('A' for Active; 'I' for Inactive)
REMARK    1  A    between atoms: C2_2  and  O1_3
REMARK    2  A    between atoms: O1_3  and  N1_4
REMARK    3  A    between atoms: N1_4  and  C3_6
REMARK    4  A    between atoms: C3_6  and  N2_8
REMARK    5  A    between atoms: N2_8  and  C4_10
REMARK    6  A    between atoms: C5_15  and  C6_16
ROOT
HETATM    1  C4  UNL     1      50.695 -17.780  88.110  1.00  0.00     0.167 A
HETATM    2  N3  UNL     1      51.872 -17.832  87.487  1.00  0.00    -0.279 N
ATOM      3  H3  UNL     1      51.956 -17.549  86.510  1.00  0.00     0.189 HD
HETATM    4  N4  UNL     1      52.890 -18.242  88.135  1.00  0.00    -0.295 N
ATOM      5  H4  UNL     1      53.800 -18.290  87.678  1.00  0.00     0.187 HD
HETATM    6  C5  UNL     1      52.768 -18.604  89.396  1.00  0.00     0.082 A
HETATM    7  S2  UNL     1      51.112 -18.347  89.677  1.00  0.00    -0.037 SA
ENDROOT
BRANCH   1   8
HETATM    8  N2  UNL     1      49.540 -17.389  87.618  1.00  0.00    -0.311 N
ATOM      9  H2  UNL     1      49.135 -16.495  87.894  1.00  0.00     0.170 HD
BRANCH   8  10
HETATM   10  C3  UNL     1      48.866 -18.235  86.695  1.00  0.00     0.197 C
HETATM   11  S1  UNL     1      48.113 -19.602  87.165  1.00  0.00    -0.039 SA
BRANCH  10  12
HETATM   12  N1  UNL     1      48.851 -17.876  85.336  1.00  0.00    -0.241 N
ATOM     13  H1  UNL     1      48.697 -16.906  85.063  1.00  0.00     0.197 HD
BRANCH  12  14
HETATM   14  O1  UNL     1      49.042 -18.820  84.397  1.00  0.00    -0.279 OA
BRANCH  14  15
HETATM   15  C2  UNL     1      47.969 -18.948  83.526  1.00  0.00     0.197 C
HETATM   16  C1  UNL     1      47.286 -17.605  83.446  1.00  0.00     0.036 C
ENDBRANCH  14  15
ENDBRANCH  12  14
ENDBRANCH  10  12
ENDBRANCH   8  10
ENDBRANCH   1   8
BRANCH   6  17
HETATM   17  C6  UNL     1      53.806 -19.117  90.370  1.00  0.00     0.028 A
HETATM   18  C7  UNL     1      53.387 -18.540  91.728  1.00  0.00     0.027 C
HETATM   19  C8  UNL     1      53.754 -20.565  90.478  1.00  0.00    -0.010 A
HETATM   20  C9  UNL     1      54.766 -21.371  90.254  1.00  0.00    -0.003 A
HETATM   21  C10 UNL     1      56.080 -20.865  89.865  1.00  0.00    -0.004 A
HETATM   22  C11 UNL     1      56.179 -19.561  89.755  1.00  0.00    -0.025 A
HETATM   23  C12 UNL     1      55.129 -18.573  89.976  1.00  0.00     0.047 A
ENDBRANCH   6  17
TORSDOF 6
ENDMDL