MODEL 2
REMARK VINA RESULT: -7.319484587      4.455      6.227
REMARK  4 active torsions:
REMARK  status: ('A' for Active; 'I' for Inactive)
REMARK    1  A    between atoms: C4_5  and  C5_6
REMARK    2  A    between atoms: C7_10  and  N2_11
REMARK    3  A    between atoms: N4_17  and  C9_19
REMARK    4  A    between atoms: C9_19  and  C10_20
ROOT
HETATM    1  C5  UNL     1      50.807 -19.356  86.653  1.00  0.00     0.114 A
HETATM    2  C6  UNL     1      52.140 -19.500  86.351  1.00  0.00     0.112 A
HETATM    3  N1  UNL     1      52.812 -19.656  85.202  1.00  0.00    -0.187 N
ATOM      4  H1  UNL     1      52.299 -19.684  84.321  1.00  0.00     0.184 HD
HETATM    5  C7  UNL     1      54.172 -19.777  85.192  1.00  0.00     0.678 A
HETATM    6  N3  UNL     1      54.893 -19.746  86.325  1.00  0.00    -0.175 N
ATOM      7  H3  UNL     1      55.908 -19.837  86.308  1.00  0.00     0.186 HD
HETATM    8  C8  UNL     1      54.231 -19.590  87.472  1.00  0.00     0.147 A
HETATM    9  N4  UNL     1      54.855 -19.552  88.594  1.00  0.00    -0.374 N
ATOM     10  H4  UNL     1      54.269 -19.431  89.420  1.00  0.00     0.161 HD
HETATM   11  C13 UNL     1      52.858 -19.463  87.546  1.00  0.00     0.122 A
HETATM   12  N5  UNL     1      51.957 -19.302  88.521  1.00  0.00    -0.293 N
ATOM     13  H5  UNL     1      52.176 -19.239  89.515  1.00  0.00     0.187 HD
HETATM   14  N6  UNL     1      50.732 -19.236  88.005  1.00  0.00    -0.291 N
HETATM   15  C14 UNL     1      49.486 -19.065  88.733  1.00  0.00     0.178 C
ENDROOT
BRANCH   1  16
HETATM   16  C4  UNL     1      49.630 -19.327  85.769  1.00  0.00     0.106 A
HETATM   17  O1  UNL     1      49.231 -18.245  85.122  1.00  0.00    -0.320 OA
HETATM   18  C3  UNL     1      48.172 -18.443  84.399  1.00  0.00     0.149 A
HETATM   19  C2  UNL     1      47.785 -19.754  84.533  1.00  0.00    -0.037 A
HETATM   20  C1  UNL     1      46.655 -20.467  83.921  1.00  0.00     0.050 C
HETATM   21  C15 UNL     1      48.735 -20.292  85.414  1.00  0.00     0.048 A
ENDBRANCH   1  16
BRANCH   5  22
HETATM   22  N2  UNL     1      54.762 -19.924  84.064  1.00  0.00    -0.234 N
ATOM     23  H22 UNL     1      54.564 -20.743  83.490  1.00  0.00     0.174 HD
ATOM     24  H21 UNL     1      55.424 -19.207  83.767  1.00  0.00     0.174 HD
ENDBRANCH   5  22
BRANCH   9  25
HETATM   25  C9  UNL     1      56.244 -19.654  88.841  1.00  0.00     0.125 C
BRANCH  25  26
HETATM   26  C10 UNL     1      56.610 -20.937  89.598  1.00  0.00    -0.005 C
HETATM   27  C11 UNL     1      55.428 -21.315  90.464  1.00  0.00     0.011 C
HETATM   28  C12 UNL     1      56.862 -22.089  88.654  1.00  0.00     0.011 C
ENDBRANCH  25  26
ENDBRANCH   9  25
TORSDOF 4
ENDMDL