MODEL 3
REMARK VINA RESULT: -6.923355713      2.668      4.396
REMARK  5 active torsions:
REMARK  status: ('A' for Active; 'I' for Inactive)
REMARK    1  A    between atoms: C3_5  and  C4_6
REMARK    2  A    between atoms: C7_15  and  N5_16
REMARK    3  A    between atoms: N5_16  and  C8_18
REMARK    4  A    between atoms: C8_18  and  C9_19
REMARK    5  A    between atoms: C9_19  and  O1_20
ROOT
HETATM    1  C4  UNL     1      54.953 -19.329  88.698  1.00  0.00     0.069 A
HETATM    2  N2  UNL     1      56.033 -18.842  89.373  1.00  0.00    -0.339 N
ATOM      3  H2  UNL     1      55.980 -18.074  90.042  1.00  0.00     0.167 HD
HETATM    4  C5  UNL     1      57.159 -19.472  89.069  1.00  0.00     0.121 A
HETATM    5  N3  UNL     1      58.447 -19.320  89.471  1.00  0.00    -0.338 N
ATOM      6  H3  UNL     1      58.685 -18.604  90.158  1.00  0.00     0.168 HD
HETATM    7  C6  UNL     1      59.405 -20.108  88.967  1.00  0.00     0.183 A
HETATM    8  N4  UNL     1      59.086 -21.044  88.065  1.00  0.00    -0.338 N
ATOM      9  H4  UNL     1      59.828 -21.636  87.691  1.00  0.00     0.168 HD
HETATM   10  C7  UNL     1      57.813 -21.243  87.625  1.00  0.00     0.116 A
HETATM   11  C10 UNL     1      56.828 -20.425  88.153  1.00  0.00     0.060 A
HETATM   12  C11 UNL     1      55.445 -20.325  87.940  1.00  0.00    -0.015 A
HETATM   13  C12 UNL     1      54.762 -21.350  87.142  1.00  0.00     0.052 C
ENDROOT
BRANCH   1  14
HETATM   14  C3  UNL     1      53.559 -18.869  88.969  1.00  0.00     0.073 A
HETATM   15  N1  UNL     1      52.732 -18.840  87.928  1.00  0.00    -0.352 N
HETATM   16  C2  UNL     1      51.486 -18.592  88.024  1.00  0.00     0.047 A
ATOM     17  H1  UNL     1      53.116 -19.028  87.001  1.00  0.00     0.166 HD
HETATM   18  C1  UNL     1      50.426 -18.518  86.934  1.00  0.00     0.076 C
HETATM   19  S1  UNL     1      51.298 -18.354  89.695  1.00  0.00    -0.080 SA
HETATM   20  C13 UNL     1      52.973 -18.618  90.158  1.00  0.00     0.009 A
HETATM   21  C14 UNL     1      53.354 -18.649  91.585  1.00  0.00     0.059 C
ENDBRANCH   1  14
BRANCH  10  22
HETATM   22  N5  UNL     1      57.560 -22.131  86.741  1.00  0.00    -0.373 N
ATOM     23  H5  UNL     1      56.849 -22.828  86.964  1.00  0.00     0.161 HD
BRANCH  22  24
HETATM   24  C8  UNL     1      58.195 -22.222  85.473  1.00  0.00     0.147 C
BRANCH  24  25
HETATM   25  C9  UNL     1      57.106 -22.386  84.418  1.00  0.00     0.183 C
BRANCH  25  26
HETATM   26  O1  UNL     1      57.169 -21.251  83.579  1.00  0.00    -0.399 OA
ATOM     27  H1  UNL     1      57.725 -21.480  82.843  1.00  0.00     0.209 HD
ENDBRANCH  25  26
ENDBRANCH  24  25
ENDBRANCH  22  24
ENDBRANCH  10  22
TORSDOF 5
ENDMDL