MODEL 2
REMARK VINA RESULT: -6.900815068      3.212      5.657
REMARK  5 active torsions:
REMARK  status: ('A' for Active; 'I' for Inactive)
REMARK    1  A    between atoms: C2_2  and  C3_3
REMARK    2  A    between atoms: C3_3  and  N1_4
REMARK    3  A    between atoms: C4_5  and  O1_6
REMARK    4  A    between atoms: C8_11  and  N2_12
REMARK    5  A    between atoms: N2_12  and  C9_14
ROOT
HETATM    1  N1  UNL     1      57.538 -21.761  86.651  1.00  0.00    -0.313 N
HETATM    2  C4  UNL     1      58.300 -21.320  87.669  1.00  0.00     0.150 A
HETATM    3  C5  UNL     1      57.635 -20.342  88.377  1.00  0.00     0.005 A
HETATM    4  C6  UNL     1      58.078 -19.575  89.566  1.00  0.00     0.054 C
HETATM    5  C7  UNL     1      56.401 -20.198  87.732  1.00  0.00     0.047 A
HETATM    6  C8  UNL     1      55.310 -19.379  87.971  1.00  0.00     0.073 A
HETATM    7  C11 UNL     1      54.194 -19.459  87.143  1.00  0.00     0.105 A
HETATM    8  N3  UNL     1      53.017 -18.839  87.094  1.00  0.00    -0.295 N
ATOM      9  H3  UNL     1      52.708 -18.113  87.741  1.00  0.00     0.187 HD
HETATM   10  N4  UNL     1      52.319 -19.301  86.094  1.00  0.00    -0.288 N
ATOM     11  H4  UNL     1      51.382 -18.995  85.835  1.00  0.00     0.188 HD
HETATM   12  C12 UNL     1      53.031 -20.236  85.467  1.00  0.00     0.158 A
HETATM   13  C13 UNL     1      52.645 -21.002  84.315  1.00  0.00     0.121 C
HETATM   14  N5  UNL     1      52.319 -21.614  83.396  1.00  0.00    -0.190 NA
HETATM   15  C14 UNL     1      54.240 -20.368  86.108  1.00  0.00     0.103 A
HETATM   16  N6  UNL     1      55.296 -21.176  85.858  1.00  0.00    -0.337 N
ATOM     17  H6  UNL     1      55.287 -21.836  85.080  1.00  0.00     0.167 HD
HETATM   18  C15 UNL     1      56.361 -21.072  86.683  1.00  0.00     0.123 A
ENDROOT
BRANCH   6  19
HETATM   19  N2  UNL     1      55.333 -18.574  88.930  1.00  0.00    -0.388 N
ATOM     20  H2  UNL     1      55.971 -17.791  88.789  1.00  0.00     0.159 HD
BRANCH  19  21
HETATM   21  C9  UNL     1      54.651 -18.534  90.166  1.00  0.00     0.115 C
HETATM   22  C10 UNL     1      54.509 -19.864  90.863  1.00  0.00     0.026 C
ENDBRANCH  19  21
ENDBRANCH   6  19
BRANCH   1  23
HETATM   23  C3  UNL     1      57.877 -22.779  85.682  1.00  0.00     0.132 C
BRANCH  23  24
HETATM   24  C2  UNL     1      58.620 -22.118  84.513  1.00  0.00     0.016 C
HETATM   25  C1  UNL     1      60.069 -22.556  84.524  1.00  0.00     0.006 C
ENDBRANCH  23  24
ENDBRANCH   1  23
BRANCH   2  26
HETATM   26  O1  UNL     1      59.585 -21.750  88.012  1.00  0.00    -0.345 OA
ATOM     27  H1  UNL     1      59.822 -22.553  88.461  1.00  0.00     0.219 HD
ENDBRANCH   2  26
TORSDOF 5
ENDMDL