MODEL 1
REMARK VINA RESULT: -7.051520000      0.000      0.000
REMARK  4 active torsions:
REMARK  status: ('A' for Active; 'I' for Inactive)
REMARK    1  A    between atoms: C4_7  and  N2_8
REMARK    2  A    between atoms: N4_14  and  C6_16
REMARK    3  A    between atoms: C6_16  and  C8_18
REMARK    4  A    between atoms: C8_18  and  N5_19
ROOT
HETATM    1  C1  UNL     1      49.329 -19.008  88.898  1.00  0.00     0.057 C
HETATM    2  C2  UNL     1      50.481 -19.232  87.945  1.00  0.00    -0.012 A
HETATM    3  S1  UNL     1      50.420 -19.573  86.280  1.00  0.00    -0.075 SA
HETATM    4  C3  UNL     1      52.093 -19.680  85.964  1.00  0.00     0.105 A
HETATM    5  N1  UNL     1      52.838 -19.930  84.836  1.00  0.00    -0.185 N
ATOM      6  H1  UNL     1      52.367 -20.100  83.948  1.00  0.00     0.185 HD
HETATM    7  C4  UNL     1      54.184 -19.953  84.891  1.00  0.00     0.678 A
HETATM    8  N3  UNL     1      54.763 -19.722  86.080  1.00  0.00    -0.176 N
ATOM      9  H3  UNL     1      55.782 -19.736  86.131  1.00  0.00     0.186 HD
HETATM   10  C5  UNL     1      54.076 -19.475  87.200  1.00  0.00     0.131 A
HETATM   11  N4  UNL     1      54.715 -19.266  88.294  1.00  0.00    -0.369 N
ATOM     12  H4  UNL     1      54.159 -19.080  89.128  1.00  0.00     0.161 HD
HETATM   13  C12 UNL     1      52.665 -19.444  87.177  1.00  0.00     0.050 A
HETATM   14  C13 UNL     1      51.820 -19.208  88.220  1.00  0.00    -0.032 A
HETATM   15  C14 UNL     1      52.284 -18.924  89.648  1.00  0.00     0.050 C
ENDROOT
BRANCH  11  16
HETATM   16  C6  UNL     1      56.129 -19.272  88.447  1.00  0.00     0.097 C
HETATM   17  C7  UNL     1      56.595 -18.307  89.498  1.00  0.00     0.034 C
BRANCH  16  18
HETATM   18  C8  UNL     1      56.667 -20.643  88.831  1.00  0.00     0.153 C
BRANCH  18  19
HETATM   19  N5  UNL     1      57.738 -21.066  87.988  1.00  0.00    -0.350 N
HETATM   20  C9  UNL     1      57.605 -21.649  86.778  1.00  0.00     0.108 A
HETATM   21  C10 UNL     1      58.847 -21.925  86.248  1.00  0.00     0.106 A
HETATM   22  N6  UNL     1      59.738 -21.498  87.161  1.00  0.00    -0.361 N
HETATM   23  C11 UNL     1      59.060 -20.979  88.214  1.00  0.00     0.182 A
ATOM     24  H6  UNL     1      60.753 -21.555  87.075  1.00  0.00     0.166 HD
ENDBRANCH  18  19
ENDBRANCH  16  18
ENDBRANCH  11  16
BRANCH   7  25
HETATM   25  N2  UNL     1      54.845 -20.191  83.815  1.00  0.00    -0.234 N
ATOM     26  H22 UNL     1      54.446 -20.657  83.001  1.00  0.00     0.174 HD
ATOM     27  H21 UNL     1      55.823 -19.904  83.764  1.00  0.00     0.174 HD
ENDBRANCH   7  25
TORSDOF 4
ENDMDL