MODEL 1
REMARK VINA RESULT: -7.504286362      0.000      0.000
REMARK  5 active torsions:
REMARK  status: ('A' for Active; 'I' for Inactive)
REMARK    1  A    between atoms: C2_2  and  C3_3
REMARK    2  A    between atoms: C3_3  and  C4_4
REMARK    3  A    between atoms: C7_11  and  N3_12
REMARK    4  A    between atoms: N3_12  and  C8_14
REMARK    5  A    between atoms: C14_22  and  N5_23
ROOT
HETATM    1  C8  UNL     1      54.175 -19.629  87.249  1.00  0.00     0.134 A
HETATM    2  N4  UNL     1      53.906 -20.623  86.392  1.00  0.00    -0.344 N
ATOM      3  H4  UNL     1      53.001 -20.632  85.923  1.00  0.00     0.167 HD
HETATM    4  C9  UNL     1      54.777 -21.605  86.126  1.00  0.00     0.014 A
HETATM    5  C10 UNL     1      54.385 -22.682  85.151  1.00  0.00     0.068 C
HETATM    6  C11 UNL     1      56.044 -21.698  86.706  1.00  0.00    -0.023 A
HETATM    7  C12 UNL     1      56.952 -22.801  86.373  1.00  0.00     0.051 C
HETATM    8  C13 UNL     1      56.348 -20.683  87.594  1.00  0.00     0.046 A
HETATM    9  C14 UNL     1      57.561 -20.669  88.222  1.00  0.00     0.113 A
HETATM   10  N6  UNL     1      57.827 -19.669  89.079  1.00  0.00    -0.338 N
ATOM     11  H6  UNL     1      58.729 -19.644  89.555  1.00  0.00     0.168 HD
HETATM   12  C15 UNL     1      56.922 -18.699  89.319  1.00  0.00     0.182 A
HETATM   13  N7  UNL     1      55.726 -18.687  88.719  1.00  0.00    -0.348 N
ATOM     14  H7  UNL     1      55.057 -17.943  88.917  1.00  0.00     0.167 HD
HETATM   15  C16 UNL     1      55.413 -19.670  87.850  1.00  0.00     0.092 A
ENDROOT
BRANCH   1  16
HETATM   16  N3  UNL     1      53.373 -18.682  87.524  1.00  0.00    -0.338 N
ATOM     17  H3  UNL     1      53.786 -17.763  87.685  1.00  0.00     0.167 HD
BRANCH  16  18
HETATM   18  C7  UNL     1      51.969 -18.774  87.630  1.00  0.00     0.072 A
HETATM   19  C4  UNL     1      51.304 -19.148  88.774  1.00  0.00     0.038 A
HETATM   20  N1  UNL     1      49.946 -19.169  88.691  1.00  0.00    -0.354 N
HETATM   21  C5  UNL     1      49.265 -18.858  87.603  1.00  0.00     0.180 A
ATOM     22  H1  UNL     1      49.421 -19.442  89.523  1.00  0.00     0.166 HD
HETATM   23  N2  UNL     1      49.898 -18.497  86.494  1.00  0.00    -0.360 N
HETATM   24  C6  UNL     1      51.236 -18.447  86.482  1.00  0.00     0.120 A
ATOM     25  H2  UNL     1      49.368 -18.258  85.656  1.00  0.00     0.166 HD
BRANCH  19  26
HETATM   26  C3  UNL     1      52.010 -19.514  90.019  1.00  0.00     0.059 C
BRANCH  26  27
HETATM   27  C2  UNL     1      52.433 -18.375  90.874  1.00  0.00     0.002 C
HETATM   28  C1  UNL     1      53.746 -18.654  91.605  1.00  0.00     0.005 C
ENDBRANCH  26  27
ENDBRANCH  19  26
ENDBRANCH  16  18
ENDBRANCH   1  16
BRANCH   9  29
HETATM   29  N5  UNL     1      58.408 -21.571  88.001  1.00  0.00    -0.385 N
ATOM     30  H52 UNL     1      58.122 -22.546  87.912  1.00  0.00     0.157 HD
ATOM     31  H51 UNL     1      59.398 -21.344  87.909  1.00  0.00     0.157 HD
ENDBRANCH   9  29
TORSDOF 5
ENDMDL