MODEL 3
REMARK VINA RESULT: -7.864964749      3.511      6.465
REMARK  3 active torsions:
REMARK  status: ('A' for Active; 'I' for Inactive)
REMARK    1  A    between atoms: C4_4  and  C5_5
REMARK    2  A    between atoms: C9_11  and  C10_12
REMARK    3  A    between atoms: C16_27  and  N7_28
ROOT
HETATM    1  C5  UNL     1      50.602 -18.868  88.364  1.00  0.00     0.045 A
HETATM    2  C6  UNL     1      50.909 -18.489  89.647  1.00  0.00     0.060 A
HETATM    3  C7  UNL     1      52.218 -18.530  90.144  1.00  0.00     0.046 A
HETATM    4  N1  UNL     1      52.771 -18.225  91.326  1.00  0.00    -0.364 N
ATOM      5  H1  UNL     1      52.254 -17.874  92.132  1.00  0.00     0.165 HD
HETATM    6  C8  UNL     1      54.101 -18.443  91.306  1.00  0.00     0.103 A
HETATM    7  C9  UNL     1      54.417 -18.911  90.055  1.00  0.00     0.023 A
HETATM    8  C13 UNL     1      53.240 -18.962  89.339  1.00  0.00     0.020 A
HETATM    9  C14 UNL     1      52.905 -19.337  88.055  1.00  0.00     0.103 A
HETATM   10  N5  UNL     1      51.643 -19.291  87.593  1.00  0.00    -0.364 N
ATOM     11  H5  UNL     1      51.459 -19.581  86.632  1.00  0.00     0.165 HD
ENDROOT
BRANCH   1  12
HETATM   12  C4  UNL     1      49.261 -18.844  87.797  1.00  0.00     0.007 A
HETATM   13  C3  UNL     1      48.172 -19.240  88.538  1.00  0.00     0.025 A
HETATM   14  C2  UNL     1      46.897 -19.212  87.985  1.00  0.00    -0.018 A
HETATM   15  C1  UNL     1      45.691 -19.630  88.748  1.00  0.00     0.052 C
HETATM   16  C16 UNL     1      46.776 -18.779  86.688  1.00  0.00     0.104 A
HETATM   17  N6  UNL     1      47.823 -18.388  85.946  1.00  0.00    -0.351 N
HETATM   18  C15 UNL     1      49.043 -18.423  86.501  1.00  0.00     0.103 A
ATOM     19  H6  UNL     1      47.693 -18.072  84.985  1.00  0.00     0.166 HD
BRANCH  16  20
HETATM   20  N7  UNL     1      45.594 -18.736  86.125  1.00  0.00    -0.385 N
ATOM     21  H72 UNL     1      44.934 -19.474  86.370  1.00  0.00     0.157 HD
ATOM     22  H71 UNL     1      45.373 -17.985  85.473  1.00  0.00     0.157 HD
ENDBRANCH  16  20
ENDBRANCH   1  12
BRANCH   7  23
HETATM   23  C10 UNL     1      55.745 -19.280  89.581  1.00  0.00     0.079 A
HETATM   24  C11 UNL     1      56.772 -18.403  89.301  1.00  0.00     0.140 A
HETATM   25  N2  UNL     1      57.812 -19.154  88.895  1.00  0.00    -0.293 N
HETATM   26  N3  UNL     1      57.483 -20.435  88.909  1.00  0.00    -0.239 N
ATOM     27  H2  UNL     1      58.722 -18.788  88.616  1.00  0.00     0.187 HD
HETATM   28  C12 UNL     1      58.398 -21.504  88.522  1.00  0.00     0.200 C
HETATM   29  N4  UNL     1      56.242 -20.499  89.321  1.00  0.00    -0.282 N
ATOM     30  H4  UNL     1      55.717 -21.367  89.432  1.00  0.00     0.189 HD
ENDBRANCH   7  23
TORSDOF 3
ENDMDL