MODEL 5
REMARK VINA RESULT: -6.402516051      2.887      3.981
REMARK  6 active torsions:
REMARK  status: ('A' for Active; 'I' for Inactive)
REMARK    1  A    between atoms: C4_5  and  C5_6
REMARK    2  A    between atoms: C5_6  and  N1_7
REMARK    3  A    between atoms: N1_7  and  C6_10
REMARK    4  A    between atoms: C10_16  and  N3_17
REMARK    5  A    between atoms: N3_17  and  C11_19
REMARK    6  A    between atoms: C11_19  and  N4_21
REMARK       I    between atoms: N4_21  and  C12_23
ROOT
HETATM    1  C1  UNL     1      59.553 -21.062  88.412  1.00  0.00     0.018 C
HETATM    2  C2  UNL     1      58.388 -20.877  88.177  1.00  0.00    -0.066 C
HETATM    3  C3  UNL     1      56.978 -20.631  87.906  1.00  0.00     0.103 A
HETATM    4  S1  UNL     1      55.898 -19.525  88.637  1.00  0.00    -0.062 SA
HETATM    5  C4  UNL     1      54.494 -19.884  87.743  1.00  0.00     0.079 A
HETATM    6  N2  UNL     1      54.927 -20.828  86.938  1.00  0.00    -0.337 N
ATOM      7  H2  UNL     1      54.279 -21.245  86.269  1.00  0.00     0.168 HD
HETATM    8  C10 UNL     1      56.151 -21.240  86.971  1.00  0.00     0.134 A
ENDROOT
BRANCH   8   9
HETATM    9  N3  UNL     1      56.645 -22.276  86.090  1.00  0.00    -0.317 N
ATOM     10  H3  UNL     1      56.925 -23.151  86.534  1.00  0.00     0.170 HD
BRANCH   9  11
HETATM   11  C11 UNL     1      56.781 -22.217  84.715  1.00  0.00     0.179 C
HETATM   12  S2  UNL     1      55.636 -23.044  83.835  1.00  0.00    -0.040 SA
BRANCH  11  13
HETATM   13  N4  UNL     1      57.764 -21.549  83.987  1.00  0.00    -0.304 N
HETATM   14  C12 UNL     1      59.173 -21.731  84.245  1.00  0.00     0.219 C
HETATM   15  C13 UNL     1      60.138 -20.960  83.401  1.00  0.00     0.117 C
HETATM   16  O1  UNL     1      59.574 -22.508  85.145  1.00  0.00    -0.274 OA
ATOM     17  H4  UNL     1      57.478 -20.910  83.245  1.00  0.00     0.171 HD
ENDBRANCH  11  13
ENDBRANCH   9  11
ENDBRANCH   8   9
BRANCH   5  18
HETATM   18  C5  UNL     1      53.158 -19.252  87.899  1.00  0.00     0.297 C
BRANCH  18  19
HETATM   19  N1  UNL     1      53.148 -18.268  88.961  1.00  0.00    -0.062 N
ATOM     20  H12 UNL     1      54.096 -18.021  89.248  1.00  0.00     0.278 HD
ATOM     21  H11 UNL     1      52.842 -17.357  88.621  1.00  0.00     0.278 HD
BRANCH  19  22
HETATM   22  C6  UNL     1      52.353 -18.703  90.090  1.00  0.00     0.115 C
HETATM   23  C7  UNL     1      52.151 -20.188  90.133  1.00  0.00     0.045 C
HETATM   24  C8  UNL     1      52.999 -18.280  91.401  1.00  0.00     0.045 C
HETATM   25  C9  UNL     1      50.971 -18.057  90.070  1.00  0.00     0.045 C
ENDBRANCH  19  22
ENDBRANCH  18  19
ENDBRANCH   5  18
TORSDOF 6
ENDMDL