MODEL 1
REMARK VINA RESULT: -7.525095153      0.000      0.000
REMARK  5 active torsions:
REMARK  status: ('A' for Active; 'I' for Inactive)
REMARK    1  A    between atoms: O1_2  and  C2_3
REMARK    2  A    between atoms: C4_5  and  N1_6
REMARK    3  A    between atoms: N1_6  and  C5_8
REMARK    4  A    between atoms: C12_19  and  C13_20
REMARK    5  A    between atoms: C15_26  and  N6_27
ROOT
HETATM    1  C2  UNL     1      56.516 -19.196  89.090  1.00  0.00     0.081 A
HETATM    2  C3  UNL     1      57.635 -19.843  88.588  1.00  0.00     0.068 A
HETATM    3  C4  UNL     1      57.555 -21.167  88.221  1.00  0.00     0.058 A
HETATM    4  C9  UNL     1      56.358 -21.829  88.361  1.00  0.00    -0.034 A
HETATM    5  C10 UNL     1      56.239 -23.267  87.971  1.00  0.00     0.050 C
HETATM    6  C11 UNL     1      55.265 -21.175  88.858  1.00  0.00     0.024 A
HETATM    7  C12 UNL     1      55.296 -19.829  89.244  1.00  0.00     0.010 A
ENDROOT
BRANCH   7   8
HETATM    8  C13 UNL     1      54.112 -19.178  89.766  1.00  0.00    -0.003 A
HETATM    9  C14 UNL     1      53.999 -19.008  91.128  1.00  0.00     0.119 A
HETATM   10  N4  UNL     1      52.904 -18.400  91.667  1.00  0.00    -0.309 N
HETATM   11  N5  UNL     1      51.906 -17.946  90.944  1.00  0.00    -0.286 N
ATOM     12  H4  UNL     1      52.859 -18.292  92.680  1.00  0.00     0.186 HD
HETATM   13  C15 UNL     1      51.964 -18.084  89.613  1.00  0.00     0.114 A
ATOM     14  H5  UNL     1      51.103 -17.497  91.386  1.00  0.00     0.188 HD
HETATM   15  C16 UNL     1      53.064 -18.701  89.006  1.00  0.00     0.063 A
BRANCH  13  16
HETATM   16  N6  UNL     1      50.998 -17.647  88.891  1.00  0.00    -0.384 N
ATOM     17  H62 UNL     1      50.247 -17.106  89.320  1.00  0.00     0.157 HD
ATOM     18  H61 UNL     1      50.991 -17.844  87.890  1.00  0.00     0.157 HD
ENDBRANCH  13  16
ENDBRANCH   7   8
BRANCH   1  19
HETATM   19  O1  UNL     1      56.620 -17.881  89.448  1.00  0.00    -0.355 OA
HETATM   20  C1  UNL     1      57.794 -17.182  89.716  1.00  0.00     0.210 C
ENDBRANCH   1  19
BRANCH   3  21
HETATM   21  N1  UNL     1      58.652 -21.876  87.707  1.00  0.00    -0.191 N
ATOM     22  H1  UNL     1      59.039 -22.613  88.297  1.00  0.00     0.184 HD
BRANCH  21  23
HETATM   23  C5  UNL     1      59.210 -21.693  86.586  1.00  0.00     0.682 A
HETATM   24  N2  UNL     1      60.509 -21.382  86.521  1.00  0.00    -0.202 N
HETATM   25  C6  UNL     1      61.091 -21.189  85.310  1.00  0.00     0.107 A
ATOM     26  H2  UNL     1      61.059 -21.289  87.376  1.00  0.00     0.183 HD
HETATM   27  C7  UNL     1      60.345 -21.315  84.143  1.00  0.00     0.035 A
HETATM   28  C8  UNL     1      59.003 -21.638  84.228  1.00  0.00     0.107 A
HETATM   29  N3  UNL     1      58.489 -21.815  85.467  1.00  0.00    -0.202 N
ATOM     30  H3  UNL     1      57.501 -22.055  85.553  1.00  0.00     0.183 HD
ENDBRANCH  21  23
ENDBRANCH   3  21
TORSDOF 5
ENDMDL