MODEL 1
REMARK VINA RESULT: -7.555031821      0.000      0.000
REMARK  12 active torsions:
REMARK  status: ('A' for Active; 'I' for Inactive)
REMARK    1  A    between atoms: C6_6  and  C8_8
REMARK    2  A    between atoms: C8_8  and  C9_9
REMARK    3  A    between atoms: C9_9  and  C10_10
REMARK    4  A    between atoms: C10_10  and  O2_12
REMARK    5  A    between atoms: O2_12  and  C11_13
REMARK    6  A    between atoms: C11_13  and  C12_14
REMARK    7  A    between atoms: C12_14  and  C13_15
REMARK    8  A    between atoms: C16_19  and  C17_20
REMARK    9  A    between atoms: C19_22  and  C21_24
REMARK   10  A    between atoms: C29_33  and  O5_34
REMARK   11  A    between atoms: C32_38  and  O6_39
REMARK   12  A    between atoms: C33_41  and  O7_42
ROOT
HETATM    1  C1  UNL     1      27.113   3.436  -6.100  1.00  0.00     0.017 C
HETATM    2  C2  UNL     1      27.678   2.417  -5.460  1.00  0.00    -0.061 C
HETATM    3  C3  UNL     1      26.810   1.477  -4.724  1.00  0.00     0.036 C
HETATM    4  C4  UNL     1      26.869   1.592  -3.223  1.00  0.00     0.005 C
HETATM    5  C5  UNL     1      26.273   2.909  -2.755  1.00  0.00     0.012 C
HETATM    6  C6  UNL     1      26.574   3.251  -1.356  1.00  0.00    -0.015 C
HETATM    7  C7  UNL     1      26.550   1.849  -0.672  1.00  0.00     0.018 C
HETATM    8  C15 UNL     1      27.853   3.895  -0.975  1.00  0.00     0.165 C
HETATM    9  O3  UNL     1      28.677   2.995  -0.384  1.00  0.00    -0.349 OA
HETATM   10  C16 UNL     1      29.894   2.675  -0.882  1.00  0.00     0.292 C
HETATM   11  O4  UNL     1      30.402   3.308  -1.946  1.00  0.00    -0.339 OA
HETATM   12  C24 UNL     1      29.845   4.402  -2.488  1.00  0.00     0.121 C
HETATM   13  C25 UNL     1      30.906   5.480  -2.438  1.00  0.00    -0.052 C
HETATM   14  C26 UNL     1      32.120   5.294  -1.962  1.00  0.00     0.017 C
HETATM   15  C27 UNL     1      30.531   6.797  -2.971  1.00  0.00     0.039 C
HETATM   16  C28 UNL     1      30.264   6.597  -4.448  1.00  0.00     0.036 C
HETATM   17  C29 UNL     1      30.424   5.149  -4.854  1.00  0.00     0.126 C
HETATM   18  C30 UNL     1      29.630   4.201  -3.997  1.00  0.00     0.059 C
HETATM   19  C31 UNL     1      29.963   2.811  -4.449  1.00  0.00     0.046 C
HETATM   20  C32 UNL     1      29.121   2.233  -5.520  1.00  0.00     0.146 C
HETATM   21  C33 UNL     1      28.546   4.865  -1.818  1.00  0.00     0.187 C
ENDROOT
BRANCH   6  22
HETATM   22  C8  UNL     1      25.337   3.855  -0.711  1.00  0.00     0.021 C
BRANCH  22  23
HETATM   23  C9  UNL     1      24.898   3.255   0.564  1.00  0.00     0.112 C
BRANCH  23  24
HETATM   24  C10 UNL     1      25.133   4.336   1.602  1.00  0.00     0.258 C
HETATM   25  O1  UNL     1      24.178   5.046   1.970  1.00  0.00    -0.265 OA
BRANCH  24  26
HETATM   26  O2  UNL     1      26.363   4.533   2.129  1.00  0.00    -0.321 OA
BRANCH  26  27
HETATM   27  C11 UNL     1      27.278   5.555   2.037  1.00  0.00     0.178 C
BRANCH  27  28
HETATM   28  C12 UNL     1      28.320   5.689   3.060  1.00  0.00     0.026 C
BRANCH  28  29
HETATM   29  C13 UNL     1      28.779   7.041   3.388  1.00  0.00    -0.002 C
HETATM   30  C14 UNL     1      30.339   6.983   3.395  1.00  0.00     0.005 C
ENDBRANCH  28  29
ENDBRANCH  27  28
ENDBRANCH  26  27
ENDBRANCH  24  26
ENDBRANCH  23  24
ENDBRANCH  22  23
ENDBRANCH   6  22
BRANCH  21  31
HETATM   31  O7  UNL     1      27.811   5.532  -2.779  1.00  0.00    -0.390 OA
ATOM     32  H7  UNL     1      28.083   5.453  -3.685  1.00  0.00     0.210 HD
ENDBRANCH  21  31
BRANCH  10  33
HETATM   33  C17 UNL     1      30.797   2.531   0.284  1.00  0.00    -0.027 C
HETATM   34  C18 UNL     1      30.627   3.530   1.410  1.00  0.00     0.049 C
HETATM   35  C19 UNL     1      31.750   1.646   0.442  1.00  0.00    -0.074 C
HETATM   36  C20 UNL     1      32.600   1.597   1.674  1.00  0.00     0.044 C
BRANCH  35  37
HETATM   37  C21 UNL     1      32.058   0.660  -0.616  1.00  0.00     0.006 C
HETATM   38  C22 UNL     1      33.217   1.164  -1.493  1.00  0.00     0.014 C
HETATM   39  C23 UNL     1      32.526  -0.663  -0.035  1.00  0.00     0.014 C
ENDBRANCH  35  37
ENDBRANCH  10  33
BRANCH  20  40
HETATM   40  O6  UNL     1      29.437   0.844  -5.552  1.00  0.00    -0.391 OA
ATOM     41  H6  UNL     1      29.886   0.592  -4.754  1.00  0.00     0.210 HD
ENDBRANCH  20  40
BRANCH  17  42
HETATM   42  O5  UNL     1      31.763   4.797  -4.998  1.00  0.00    -0.395 OA
ATOM     43  H5  UNL     1      31.865   3.883  -5.236  1.00  0.00     0.210 HD
ENDBRANCH  17  42
TORSDOF 12
ENDMDL