MODEL 1
REMARK VINA RESULT: -7.028880226      0.000      0.000
REMARK  13 active torsions:
REMARK  status: ('A' for Active; 'I' for Inactive)
REMARK    1  A    between atoms: C2_2  and  C3_3
REMARK    2  A    between atoms: C3_3  and  C4_4
REMARK    3  A    between atoms: C4_4  and  C5_5
REMARK    4  A    between atoms: C5_5  and  O1_6
REMARK    5  A    between atoms: O1_6  and  C6_7
REMARK       I    between atoms: C6_7  and  N1_9
REMARK    6  A    between atoms: C11_15  and  C12_16
REMARK    7  A    between atoms: C12_16  and  O3_18
REMARK    8  A    between atoms: C17_22  and  C18_23
REMARK    9  A    between atoms: C19_24  and  O4_25
REMARK   10  A    between atoms: C19_24  and  N2_27
REMARK   11  A    between atoms: N2_27  and  O5_28
REMARK   12  A    between atoms: C20_30  and  O6_31
REMARK   13  A    between atoms: O6_31  and  C21_32
ROOT
HETATM    1  C5  UNL     1      29.765   5.099  -4.303  1.00  0.00     0.103 C
HETATM    2  C8  UNL     1      28.857   4.302  -3.420  1.00  0.00    -0.012 A
HETATM    3  C9  UNL     1      27.578   4.843  -3.513  1.00  0.00     0.012 A
HETATM    4  C10 UNL     1      26.491   4.344  -2.804  1.00  0.00     0.010 A
HETATM    5  C11 UNL     1      26.654   3.268  -1.968  1.00  0.00    -0.029 A
HETATM    6  C15 UNL     1      27.902   2.707  -1.854  1.00  0.00     0.022 A
HETATM    7  C16 UNL     1      29.000   3.227  -2.582  1.00  0.00    -0.017 A
HETATM    8  C17 UNL     1      30.058   2.322  -2.138  1.00  0.00    -0.013 C
HETATM    9  C20 UNL     1      31.415   2.685  -1.580  1.00  0.00     0.156 C
HETATM   10  C29 UNL     1      32.305   2.948  -2.784  1.00  0.00     0.037 C
HETATM   11  C30 UNL     1      31.996   4.433  -3.121  1.00  0.00     0.010 C
HETATM   12  C31 UNL     1      31.186   4.554  -4.263  1.00  0.00     0.022 C
HETATM   13  C32 UNL     1      31.930   5.295  -5.382  1.00  0.00     0.013 C
ENDROOT
BRANCH   1  14
HETATM   14  C4  UNL     1      29.652   6.538  -4.023  1.00  0.00     0.044 C
BRANCH  14  15
HETATM   15  C3  UNL     1      30.194   7.168  -2.803  1.00  0.00     0.003 C
BRANCH  15  16
HETATM   16  C2  UNL     1      29.050   7.600  -1.847  1.00  0.00    -0.004 C
HETATM   17  C1  UNL     1      28.965   6.760  -0.627  1.00  0.00     0.005 C
ENDBRANCH  15  16
ENDBRANCH  14  15
ENDBRANCH   1  14
BRANCH   1  18
HETATM   18  O1  UNL     1      29.471   4.791  -5.552  1.00  0.00    -0.287 OA
BRANCH  18  19
HETATM   19  C6  UNL     1      29.150   4.505  -6.743  1.00  0.00     0.361 C
HETATM   20  O2  UNL     1      28.916   3.241  -6.756  1.00  0.00    -0.238 OA
HETATM   21  N1  UNL     1      28.998   5.175  -7.965  1.00  0.00    -0.341 N
HETATM   22  C7  UNL     1      28.606   4.524  -9.180  1.00  0.00     0.151 C
ATOM     23  H1  UNL     1      29.176   6.179  -7.990  1.00  0.00     0.164 HD
ENDBRANCH  18  19
ENDBRANCH   1  18
BRANCH   8  24
HETATM   24  C18 UNL     1      29.842   1.060  -2.345  1.00  0.00     0.085 C
HETATM   25  C19 UNL     1      29.222   0.151  -3.220  1.00  0.00     0.247 C
BRANCH  25  26
HETATM   26  O4  UNL     1      29.288  -1.258  -2.684  1.00  0.00    -0.334 OA
ATOM     27  H4  UNL     1      28.876  -1.324  -1.831  1.00  0.00     0.220 HD
ENDBRANCH  25  26
BRANCH  25  28
HETATM   28  N2  UNL     1      28.665   0.122  -4.279  1.00  0.00    -0.258 NA
BRANCH  28  29
HETATM   29  O5  UNL     1      28.300  -0.276  -5.424  1.00  0.00    -0.216 OA
ATOM     30  H5  UNL     1      28.344  -0.544  -6.334  1.00  0.00     0.261 HD
ENDBRANCH  28  29
ENDBRANCH  25  28
ENDBRANCH   8  24
BRANCH   5  31
HETATM   31  C12 UNL     1      25.511   2.703  -1.215  1.00  0.00     0.149 C
HETATM   32  C13 UNL     1      25.297   3.377   0.132  1.00  0.00     0.045 C
BRANCH  31  33
HETATM   33  O3  UNL     1      25.593   1.333  -1.037  1.00  0.00    -0.386 OA
HETATM   34  C14 UNL     1      25.358   0.994   0.280  1.00  0.00     0.202 C
ENDBRANCH  31  33
ENDBRANCH   5  31
BRANCH   9  35
HETATM   35  O6  UNL     1      31.912   1.589  -0.901  1.00  0.00    -0.376 OA
BRANCH  35  36
HETATM   36  C21 UNL     1      32.942   1.976  -0.088  1.00  0.00     0.127 C
HETATM   37  C22 UNL     1      32.828   3.424   0.356  1.00  0.00     0.037 C
HETATM   38  C23 UNL     1      32.813   3.224   1.855  1.00  0.00    -0.003 C
HETATM   39  C24 UNL     1      33.969   2.219   1.976  1.00  0.00     0.013 C
HETATM   40  C26 UNL     1      31.934   2.026   2.109  1.00  0.00    -0.038 C
HETATM   41  C25 UNL     1      32.958   1.303   1.265  1.00  0.00     0.023 C
HETATM   42  C27 UNL     1      30.546   2.062   1.565  1.00  0.00     0.015 C
HETATM   43  C28 UNL     1      32.000   1.576   3.552  1.00  0.00     0.015 C
ENDBRANCH  35  36
ENDBRANCH   9  35
TORSDOF 13
ENDMDL