MODEL 2
REMARK VINA RESULT: -7.112014802      2.518      6.238
REMARK  12 active torsions:
REMARK  status: ('A' for Active; 'I' for Inactive)
REMARK    1  A    between atoms: C6_6  and  O1_7
REMARK    2  A    between atoms: C9_12  and  C10_13
REMARK    3  A    between atoms: C10_13  and  O3_14
REMARK    4  A    between atoms: C10_13  and  C11_16
REMARK    5  A    between atoms: C11_16  and  C12_17
REMARK    6  A    between atoms: C12_17  and  C13_18
REMARK    7  A    between atoms: C13_18  and  O4_19
REMARK    8  A    between atoms: C13_18  and  C14_21
REMARK    9  A    between atoms: C20_27  and  C21_28
REMARK   10  A    between atoms: C21_28  and  O5_29
REMARK   11  A    between atoms: O5_29  and  C22_30
REMARK   12  A    between atoms: C22_30  and  C23_32
ROOT
HETATM    1  C13 UNL     1      33.002   3.202  -4.651  1.00  0.00     0.123 C
ENDROOT
BRANCH   1   2
HETATM    2  C12 UNL     1      33.560   4.234  -3.751  1.00  0.00     0.034 C
BRANCH   2   3
HETATM    3  C11 UNL     1      34.602   3.890  -2.773  1.00  0.00     0.037 C
BRANCH   3   4
HETATM    4  C10 UNL     1      34.800   2.480  -2.342  1.00  0.00     0.148 C
BRANCH   4   5
HETATM    5  C9  UNL     1      34.703   2.377  -0.861  1.00  0.00     0.165 C
HETATM    6  O2  UNL     1      34.004   3.534  -0.415  1.00  0.00    -0.339 OA
HETATM    7  C5  UNL     1      32.714   3.478   0.093  1.00  0.00     0.109 A
HETATM    8  C4  UNL     1      32.406   2.365   0.848  1.00  0.00    -0.021 A
HETATM    9  C6  UNL     1      31.797   4.498  -0.156  1.00  0.00     0.106 A
HETATM   10  C3  UNL     1      31.140   2.261   1.376  1.00  0.00     0.017 A
HETATM   11  C34 UNL     1      33.462   1.342   1.048  1.00  0.00     0.053 C
HETATM   12  C2  UNL     1      30.227   3.267   1.133  1.00  0.00    -0.053 A
HETATM   13  C1  UNL     1      28.852   3.176   1.693  1.00  0.00     0.049 C
HETATM   14  C7  UNL     1      30.528   4.380   0.381  1.00  0.00    -0.020 A
HETATM   15  C8  UNL     1      29.505   5.454   0.140  1.00  0.00     0.052 C
HETATM   16  C31 UNL     1      34.174   1.118  -0.296  1.00  0.00    -0.015 C
HETATM   17  C32 UNL     1      33.222   0.338  -1.140  1.00  0.00     0.018 C
HETATM   18  C33 UNL     1      35.332   0.167   0.047  1.00  0.00     0.018 C
BRANCH   9  19
HETATM   19  O1  UNL     1      32.161   5.598  -0.924  1.00  0.00    -0.357 OA
ATOM     20  H1  UNL     1      32.787   6.230  -0.589  1.00  0.00     0.217 HD
ENDBRANCH   9  19
ENDBRANCH   4   5
BRANCH   4  21
HETATM   21  O3  UNL     1      35.863   1.890  -2.952  1.00  0.00    -0.393 OA
ATOM     22  H3  UNL     1      36.513   2.454  -3.356  1.00  0.00     0.210 HD
ENDBRANCH   4  21
ENDBRANCH   3   4
ENDBRANCH   2   3
ENDBRANCH   1   2
BRANCH   1  23
HETATM   23  O4  UNL     1      33.620   3.161  -5.865  1.00  0.00    -0.395 OA
ATOM     24  H4  UNL     1      33.227   2.535  -6.462  1.00  0.00     0.210 HD
ENDBRANCH   1  23
BRANCH   1  25
HETATM   25  C14 UNL     1      31.526   3.572  -4.932  1.00  0.00     0.023 C
HETATM   26  C15 UNL     1      31.054   4.710  -4.088  1.00  0.00     0.009 C
HETATM   27  C16 UNL     1      29.619   4.403  -3.669  1.00  0.00     0.015 C
HETATM   28  C17 UNL     1      29.267   3.191  -4.469  1.00  0.00    -0.013 C
HETATM   29  C18 UNL     1      28.835   3.574  -5.843  1.00  0.00     0.021 C
HETATM   30  C19 UNL     1      28.182   2.351  -3.855  1.00  0.00    -0.072 C
HETATM   31  C29 UNL     1      30.600   2.454  -4.467  1.00  0.00    -0.027 C
HETATM   32  C20 UNL     1      26.950   2.377  -4.333  1.00  0.00     0.003 C
HETATM   33  C26 UNL     1      28.524   1.515  -2.702  1.00  0.00     0.034 C
HETATM   34  C27 UNL     1      29.887   1.687  -2.159  1.00  0.00     0.005 C
HETATM   35  C28 UNL     1      30.964   2.130  -3.065  1.00  0.00     0.011 C
HETATM   36  C30 UNL     1      30.601   1.281  -5.389  1.00  0.00     0.016 C
BRANCH  32  37
HETATM   37  C21 UNL     1      25.756   1.653  -3.903  1.00  0.00     0.206 C
BRANCH  37  38
HETATM   38  O5  UNL     1      24.986   2.375  -3.010  1.00  0.00    -0.317 OA
BRANCH  38  39
HETATM   39  C22 UNL     1      25.235   2.381  -1.655  1.00  0.00     0.262 C
HETATM   40  O6  UNL     1      25.363   1.273  -1.074  1.00  0.00    -0.265 OA
BRANCH  39  41
HETATM   41  C23 UNL     1      25.338   3.691  -0.964  1.00  0.00     0.077 C
HETATM   42  C24 UNL     1      25.271   3.422   0.521  1.00  0.00     0.020 C
HETATM   43  C25 UNL     1      26.600   4.432  -1.350  1.00  0.00     0.020 C
ENDBRANCH  39  41
ENDBRANCH  38  39
ENDBRANCH  37  38
ENDBRANCH  32  37
ENDBRANCH   1  25
TORSDOF 12
ENDMDL