MODEL 3
REMARK VINA RESULT: -6.899781523      1.010      1.117
REMARK  10 active torsions:
REMARK  status: ('A' for Active; 'I' for Inactive)
REMARK    1  A    between atoms: O1_2  and  C2_3
REMARK    2  A    between atoms: C8_9  and  N1_10
REMARK    3  A    between atoms: C10_15  and  O2_16
REMARK    4  A    between atoms: C17_26  and  C18_27
REMARK    5  A    between atoms: C19_28  and  C20_29
REMARK    6  A    between atoms: C20_29  and  O5_30
REMARK    7  A    between atoms: C20_29  and  C22_32
REMARK    8  A    between atoms: C22_32  and  C24_34
REMARK    9  A    between atoms: C25_35  and  C27_37
REMARK   10  A    between atoms: C28_38  and  C29_39
ROOT
HETATM    1  C2  UNL     1      28.058   3.947  -7.061  1.00  0.00     0.068 A
HETATM    2  C3  UNL     1      27.225   3.091  -6.391  1.00  0.00     0.038 A
HETATM    3  C4  UNL     1      27.677   2.527  -5.221  1.00  0.00     0.021 A
HETATM    4  C5  UNL     1      28.951   2.794  -4.692  1.00  0.00     0.048 A
HETATM    5  C6  UNL     1      29.808   3.669  -5.375  1.00  0.00    -0.009 A
HETATM    6  C7  UNL     1      29.311   4.213  -6.546  1.00  0.00     0.047 A
HETATM    7  C8  UNL     1      31.174   3.981  -4.953  1.00  0.00     0.220 C
HETATM    8  C9  UNL     1      31.417   5.216  -4.189  1.00  0.00     0.073 C
HETATM    9  C10 UNL     1      30.868   6.496  -4.703  1.00  0.00     0.143 C
HETATM   10  C11 UNL     1      31.333   7.567  -3.748  1.00  0.00     0.004 C
HETATM   11  C12 UNL     1      30.575   8.428  -3.138  1.00  0.00    -0.002 C
HETATM   12  C13 UNL     1      29.151   8.603  -3.187  1.00  0.00    -0.004 C
HETATM   13  C14 UNL     1      28.212   7.878  -2.626  1.00  0.00    -0.017 C
HETATM   14  C15 UNL     1      28.467   6.662  -1.775  1.00  0.00     0.138 C
HETATM   15  C16 UNL     1      27.606   5.567  -2.229  1.00  0.00     0.264 C
HETATM   16  O3  UNL     1      26.440   5.888  -2.642  1.00  0.00    -0.265 OA
HETATM   17  O4  UNL     1      27.925   4.229  -2.257  1.00  0.00    -0.285 OA
HETATM   18  C17 UNL     1      28.900   3.598  -1.466  1.00  0.00     0.303 C
HETATM   19  O6  UNL     1      29.745   2.761  -2.278  1.00  0.00    -0.282 OA
HETATM   20  C33 UNL     1      29.280   2.125  -3.441  1.00  0.00     0.296 C
HETATM   21  O7  UNL     1      29.104   0.842  -3.481  1.00  0.00    -0.259 OA
ENDROOT
BRANCH  18  22
HETATM   22  C18 UNL     1      28.274   2.743  -0.422  1.00  0.00     0.032 C
HETATM   23  C19 UNL     1      27.720   3.101   0.691  1.00  0.00     0.006 C
BRANCH  23  24
HETATM   24  C20 UNL     1      27.541   4.442   1.259  1.00  0.00     0.150 C
BRANCH  24  25
HETATM   25  O5  UNL     1      26.414   4.440   2.105  1.00  0.00    -0.386 OA
HETATM   26  C21 UNL     1      25.251   4.067   1.487  1.00  0.00     0.202 C
ENDBRANCH  24  25
BRANCH  24  27
HETATM   27  C22 UNL     1      28.704   4.822   2.180  1.00  0.00     0.037 C
HETATM   28  C23 UNL     1      28.230   5.997   3.066  1.00  0.00     0.017 C
BRANCH  27  29
HETATM   29  C24 UNL     1      29.854   5.287   1.451  1.00  0.00    -0.013 C
HETATM   30  C25 UNL     1      31.074   4.783   1.529  1.00  0.00    -0.065 C
HETATM   31  C26 UNL     1      32.152   5.422   0.672  1.00  0.00     0.048 C
BRANCH  30  32
HETATM   32  C27 UNL     1      31.389   3.682   2.382  1.00  0.00     0.006 C
HETATM   33  C28 UNL     1      31.505   2.418   2.189  1.00  0.00     0.001 C
BRANCH  33  34
HETATM   34  C29 UNL     1      31.350   1.652   0.999  1.00  0.00     0.002 C
HETATM   35  C30 UNL     1      32.481   1.184   0.407  1.00  0.00    -0.088 C
HETATM   36  C31 UNL     1      33.822   1.478   1.002  1.00  0.00     0.043 C
HETATM   37  C32 UNL     1      32.355   0.373  -0.824  1.00  0.00     0.043 C
ENDBRANCH  33  34
ENDBRANCH  30  32
ENDBRANCH  27  29
ENDBRANCH  24  27
ENDBRANCH  23  24
ENDBRANCH  18  22
BRANCH   7  38
HETATM   38  N1  UNL     1      32.077   3.930  -6.121  1.00  0.00    -0.071 N
ATOM     39  H13 UNL     1      32.122   2.998  -6.533  1.00  0.00     0.275 HD
ATOM     40  H12 UNL     1      31.694   4.427  -6.926  1.00  0.00     0.275 HD
ATOM     41  H11 UNL     1      32.998   4.279  -5.856  1.00  0.00     0.275 HD
ENDBRANCH   7  38
BRANCH   1  42
HETATM   42  O1  UNL     1      27.585   4.509  -8.237  1.00  0.00    -0.356 OA
HETATM   43  C1  UNL     1      28.406   5.301  -9.073  1.00  0.00     0.210 C
ENDBRANCH   1  42
BRANCH   9  44
HETATM   44  O2  UNL     1      31.481   6.885  -5.925  1.00  0.00    -0.392 OA
ATOM     45  H2  UNL     1      31.135   7.708  -6.251  1.00  0.00     0.210 HD
ENDBRANCH   9  44
TORSDOF 10
ENDMDL