MODEL 2
REMARK VINA RESULT: -7.040088433      3.022      6.044
REMARK  11 active torsions:
REMARK  status: ('A' for Active; 'I' for Inactive)
REMARK    1  A    between atoms: O1_2  and  C2_3
REMARK    2  A    between atoms: C15_17  and  C16_18
REMARK    3  A    between atoms: C17_19  and  C19_21
REMARK    4  A    between atoms: C21_25  and  O5_26
REMARK    5  A    between atoms: O5_26  and  C22_27
REMARK    6  A    between atoms: C22_27  and  C23_29
REMARK    7  A    between atoms: C23_29  and  C24_30
REMARK    8  A    between atoms: C24_30  and  C25_31
REMARK    9  A    between atoms: C25_31  and  C26_32
REMARK   10  A    between atoms: C26_32  and  C27_33
REMARK   11  A    between atoms: C31_39  and  O9_40
ROOT
HETATM    1  C2  UNL     1      30.938   3.091   1.861  1.00  0.00     0.153 C
HETATM    2  C3  UNL     1      29.423   3.153   1.956  1.00  0.00     0.068 C
HETATM    3  C4  UNL     1      28.887   4.531   1.872  1.00  0.00    -0.085 C
HETATM    4  C5  UNL     1      29.380   5.452   2.937  1.00  0.00     0.043 C
HETATM    5  C6  UNL     1      28.041   4.990   0.972  1.00  0.00    -0.020 C
HETATM    6  C7  UNL     1      27.437   4.254  -0.155  1.00  0.00     0.055 C
HETATM    7  C8  UNL     1      26.564   3.157   0.221  1.00  0.00    -0.013 C
HETATM    8  C9  UNL     1      26.177   2.114  -0.477  1.00  0.00    -0.020 C
HETATM    9  C10 UNL     1      25.236   1.129   0.221  1.00  0.00     0.052 C
HETATM   10  C11 UNL     1      26.576   1.836  -1.846  1.00  0.00     0.155 C
HETATM   11  O2  UNL     1      25.627   1.710  -2.707  1.00  0.00    -0.293 OA
HETATM   12  C12 UNL     1      27.951   1.679  -2.357  1.00  0.00     0.087 C
HETATM   13  C13 UNL     1      28.200   2.523  -3.578  1.00  0.00     0.042 C
HETATM   14  C14 UNL     1      29.562   2.330  -4.146  1.00  0.00    -0.077 C
HETATM   15  C15 UNL     1      29.752   2.658  -5.410  1.00  0.00     0.004 C
HETATM   16  C20 UNL     1      30.713   1.810  -3.381  1.00  0.00     0.066 C
HETATM   17  C21 UNL     1      31.648   2.897  -2.867  1.00  0.00     0.136 C
HETATM   18  C28 UNL     1      32.312   2.373  -1.619  1.00  0.00     0.039 C
HETATM   19  C29 UNL     1      32.099   3.223  -0.391  1.00  0.00     0.015 C
HETATM   20  C30 UNL     1      31.550   4.582  -0.666  1.00  0.00     0.012 C
HETATM   21  C31 UNL     1      31.290   2.424   0.581  1.00  0.00     0.151 C
ENDROOT
BRANCH  17  22
HETATM   22  O5  UNL     1      32.710   3.103  -3.808  1.00  0.00    -0.316 OA
BRANCH  22  23
HETATM   23  C22 UNL     1      32.842   4.275  -4.517  1.00  0.00     0.259 C
HETATM   24  O6  UNL     1      33.346   4.190  -5.663  1.00  0.00    -0.265 OA
BRANCH  23  25
HETATM   25  C23 UNL     1      32.398   5.565  -3.924  1.00  0.00     0.111 C
BRANCH  25  26
HETATM   26  C24 UNL     1      31.159   6.042  -4.638  1.00  0.00     0.010 C
BRANCH  26  27
HETATM   27  C25 UNL     1      29.943   6.043  -3.765  1.00  0.00     0.011 C
BRANCH  27  28
HETATM   28  C26 UNL     1      30.061   7.246  -2.827  1.00  0.00     0.113 C
BRANCH  28  29
HETATM   29  C27 UNL     1      28.792   7.359  -2.077  1.00  0.00     0.172 C
HETATM   30  O7  UNL     1      27.738   6.840  -2.518  1.00  0.00    -0.648 OA
HETATM   31  O8  UNL     1      28.724   8.045  -0.851  1.00  0.00    -0.648 OA
ENDBRANCH  28  29
ENDBRANCH  27  28
ENDBRANCH  26  27
ENDBRANCH  25  26
ENDBRANCH  23  25
ENDBRANCH  22  23
ENDBRANCH  17  22
BRANCH  15  32
HETATM   32  C16 UNL     1      28.741   3.196  -6.305  1.00  0.00     0.014 C
HETATM   33  C17 UNL     1      29.037   3.971  -7.327  1.00  0.00     0.015 C
HETATM   34  C18 UNL     1      30.431   4.338  -7.619  1.00  0.00     0.055 C
BRANCH  33  35
HETATM   35  C19 UNL     1      27.973   4.475  -8.178  1.00  0.00     0.204 C
HETATM   36  O3  UNL     1      26.819   3.983  -8.179  1.00  0.00    -0.644 OA
HETATM   37  O4  UNL     1      28.210   5.546  -9.037  1.00  0.00    -0.644 OA
ENDBRANCH  33  35
ENDBRANCH  15  32
BRANCH  21  38
HETATM   38  O9  UNL     1      31.988   1.241   0.864  1.00  0.00    -0.393 OA
ATOM     39  H9  UNL     1      31.625   0.538   0.338  1.00  0.00     0.210 HD
ENDBRANCH  21  38
BRANCH   1  40
HETATM   40  O1  UNL     1      31.462   2.319   2.920  1.00  0.00    -0.388 OA
HETATM   41  C1  UNL     1      32.421   3.002   3.650  1.00  0.00     0.202 C
ENDBRANCH   1  40
TORSDOF 11
ENDMDL