MODEL 2
REMARK VINA RESULT: -6.911481408      3.119      8.998
REMARK  11 active torsions:
REMARK  status: ('A' for Active; 'I' for Inactive)
REMARK    1  A    between atoms: C2_2  and  C3_4
REMARK    2  A    between atoms: C3_4  and  C4_5
REMARK    3  A    between atoms: C4_5  and  C5_6
REMARK    4  A    between atoms: C5_6  and  C6_7
REMARK    5  A    between atoms: C6_7  and  C7_8
REMARK    6  A    between atoms: C6_7  and  O2_12
REMARK    7  A    between atoms: O2_12  and  C11_13
REMARK    8  A    between atoms: C18_20  and  O3_21
REMARK    9  A    between atoms: C26_30  and  C27_31
REMARK   10  A    between atoms: C29_34  and  O5_35
REMARK   11  A    between atoms: C33_40  and  O6_41
ROOT
HETATM    1  C11 UNL     1      31.100   4.669   2.383  1.00  0.00     0.261 C
HETATM    2  C12 UNL     1      32.257   4.584   1.422  1.00  0.00     0.061 C
HETATM    3  C13 UNL     1      31.910   4.899  -0.000  1.00  0.00     0.017 C
HETATM    4  C14 UNL     1      30.546   4.399  -0.429  1.00  0.00    -0.010 C
HETATM    5  C15 UNL     1      29.673   5.633  -0.495  1.00  0.00     0.018 C
HETATM    6  C16 UNL     1      29.942   3.551   0.695  1.00  0.00     0.136 C
HETATM    7  C17 UNL     1      28.491   3.339   0.319  1.00  0.00     0.065 C
HETATM    8  C18 UNL     1      28.238   2.913  -1.068  1.00  0.00     0.128 C
HETATM    9  C19 UNL     1      29.480   2.621  -1.890  1.00  0.00     0.058 C
HETATM   10  C20 UNL     1      30.586   3.602  -1.716  1.00  0.00    -0.025 C
HETATM   11  C21 UNL     1      31.896   2.785  -1.609  1.00  0.00     0.016 C
HETATM   12  C22 UNL     1      30.794   4.566  -2.832  1.00  0.00     0.011 C
HETATM   13  C23 UNL     1      30.587   4.034  -4.216  1.00  0.00     0.014 C
HETATM   14  C24 UNL     1      29.209   3.437  -4.282  1.00  0.00    -0.005 C
HETATM   15  C25 UNL     1      28.186   4.486  -4.181  1.00  0.00     0.019 C
HETATM   16  C26 UNL     1      28.971   2.632  -5.565  1.00  0.00     0.032 C
HETATM   17  C31 UNL     1      28.051   1.504  -5.148  1.00  0.00     0.013 C
HETATM   18  C32 UNL     1      27.867   1.678  -3.623  1.00  0.00     0.040 C
HETATM   19  C33 UNL     1      29.174   2.322  -3.295  1.00  0.00     0.072 C
HETATM   20  O7  UNL     1      29.889   4.385   1.828  1.00  0.00    -0.355 OA
ENDROOT
BRANCH   1  21
HETATM   21  O2  UNL     1      31.316   3.848   3.464  1.00  0.00    -0.352 OA
BRANCH  21  22
HETATM   22  C6  UNL     1      32.452   3.029   3.327  1.00  0.00     0.147 C
BRANCH  22  23
HETATM   23  C5  UNL     1      31.976   1.647   3.154  1.00  0.00     0.036 C
BRANCH  23  24
HETATM   24  C4  UNL     1      32.195   1.024   1.835  1.00  0.00     0.010 C
BRANCH  24  25
HETATM   25  C3  UNL     1      33.562   1.138   1.276  1.00  0.00     0.078 C
BRANCH  25  26
HETATM   26  C2  UNL     1      33.615   0.161   0.108  1.00  0.00     0.123 C
HETATM   27  C1  UNL     1      32.414  -0.659  -0.173  1.00  0.00     0.091 C
HETATM   28  O1  UNL     1      34.611   0.058  -0.577  1.00  0.00    -0.298 OA
ENDBRANCH  25  26
ENDBRANCH  24  25
ENDBRANCH  23  24
ENDBRANCH  22  23
BRANCH  22  29
HETATM   29  C7  UNL     1      33.460   3.311   4.345  1.00  0.00     0.007 C
HETATM   30  C8  UNL     1      33.549   2.830   5.555  1.00  0.00    -0.089 C
HETATM   31  C9  UNL     1      32.558   1.866   6.075  1.00  0.00     0.042 C
HETATM   32  C10 UNL     1      34.654   3.240   6.454  1.00  0.00     0.042 C
ENDBRANCH  22  29
ENDBRANCH  21  22
ENDBRANCH   1  21
BRANCH   8  33
HETATM   33  O3  UNL     1      27.527   1.685  -0.978  1.00  0.00    -0.395 OA
ATOM     34  H3  UNL     1      26.744   1.796  -1.503  1.00  0.00     0.210 HD
ENDBRANCH   8  33
BRANCH  19  35
HETATM   35  O6  UNL     1      30.150   1.398  -3.767  1.00  0.00    -0.389 OA
ATOM     36  H6  UNL     1      29.927   1.170  -4.662  1.00  0.00     0.210 HD
ENDBRANCH  19  35
BRANCH  16  37
HETATM   37  C27 UNL     1      28.429   3.435  -6.658  1.00  0.00    -0.026 A
HETATM   38  C28 UNL     1      27.068   3.485  -6.991  1.00  0.00     0.152 A
HETATM   39  O4  UNL     1      26.955   4.311  -8.001  1.00  0.00    -0.300 OA
HETATM   40  C29 UNL     1      28.102   4.805  -8.362  1.00  0.00     0.183 A
HETATM   41  C30 UNL     1      29.070   4.270  -7.529  1.00  0.00     0.073 A
BRANCH  40  42
HETATM   42  O5  UNL     1      28.314   5.702  -9.390  1.00  0.00    -0.341 OA
ATOM     43  H5  UNL     1      29.120   6.173  -9.564  1.00  0.00     0.220 HD
ENDBRANCH  40  42
ENDBRANCH  16  37
TORSDOF 11
ENDMDL