MODEL 1
REMARK VINA RESULT: -7.023985191      0.000      0.000
REMARK  12 active torsions:
REMARK  status: ('A' for Active; 'I' for Inactive)
REMARK    1  A    between atoms: C9_9  and  O1_11
REMARK    2  A    between atoms: C11_13  and  C12_14
REMARK    3  A    between atoms: C14_16  and  O2_17
REMARK    4  A    between atoms: C16_20  and  C17_21
REMARK    5  A    between atoms: C17_21  and  C19_23
REMARK    6  A    between atoms: C19_23  and  C20_24
REMARK    7  A    between atoms: C20_24  and  C21_25
REMARK    8  A    between atoms: C26_33  and  O4_34
REMARK    9  A    between atoms: O4_34  and  C27_35
REMARK   10  A    between atoms: C27_35  and  C28_37
REMARK   11  A    between atoms: C28_37  and  C29_38
REMARK   12  A    between atoms: C29_38  and  C30_39
ROOT
HETATM    1  C1  UNL     1      30.709   5.851  -6.536  1.00  0.00     0.014 C
HETATM    2  C2  UNL     1      30.972   5.298  -5.374  1.00  0.00    -0.089 C
HETATM    3  C3  UNL     1      31.738   4.010  -5.365  1.00  0.00     0.033 C
HETATM    4  C4  UNL     1      32.989   4.101  -4.497  1.00  0.00     0.005 C
HETATM    5  C5  UNL     1      33.475   2.694  -4.236  1.00  0.00     0.005 C
HETATM    6  C6  UNL     1      33.925   2.508  -2.782  1.00  0.00    -0.016 C
HETATM    7  C7  UNL     1      35.459   2.453  -2.822  1.00  0.00     0.010 C
HETATM    8  C8  UNL     1      33.340   1.232  -2.297  1.00  0.00     0.042 C
HETATM    9  C9  UNL     1      33.231   1.064  -0.824  1.00  0.00     0.060 C
HETATM   10  C10 UNL     1      34.600   1.084  -0.166  1.00  0.00     0.046 C
HETATM   11  C11 UNL     1      32.369   2.054  -0.122  1.00  0.00     0.048 C
HETATM   12  C14 UNL     1      31.110   2.300  -0.881  1.00  0.00     0.125 C
HETATM   13  C15 UNL     1      30.094   3.148  -0.173  1.00  0.00     0.041 C
HETATM   14  C16 UNL     1      30.509   4.549   0.088  1.00  0.00     0.018 C
HETATM   15  C25 UNL     1      30.505   5.515  -1.018  1.00  0.00     0.041 C
HETATM   16  C26 UNL     1      29.318   5.528  -1.941  1.00  0.00     0.133 C
HETATM   17  C31 UNL     1      29.657   4.979  -3.312  1.00  0.00     0.037 C
HETATM   18  C32 UNL     1      30.545   5.896  -4.071  1.00  0.00     0.036 C
ENDROOT
BRANCH  14  19
HETATM   19  C17 UNL     1      29.820   5.083   1.284  1.00  0.00    -0.085 C
HETATM   20  C18 UNL     1      29.888   6.345   1.650  1.00  0.00     0.014 C
BRANCH  19  21
HETATM   21  C19 UNL     1      29.009   4.158   2.115  1.00  0.00     0.040 C
BRANCH  21  22
HETATM   22  C20 UNL     1      27.645   4.744   2.460  1.00  0.00     0.071 C
BRANCH  22  23
HETATM   23  C21 UNL     1      26.590   4.095   1.624  1.00  0.00     0.078 A
HETATM   24  C22 UNL     1      26.628   2.805   1.150  1.00  0.00     0.061 A
HETATM   25  C23 UNL     1      25.467   2.587   0.421  1.00  0.00     0.031 A
HETATM   26  C24 UNL     1      25.103   1.336  -0.264  1.00  0.00     0.070 C
HETATM   27  N1  UNL     1      24.794   3.767   0.501  1.00  0.00    -0.266 N
HETATM   28  O3  UNL     1      25.483   4.615   1.208  1.00  0.00    -0.242 OA
ATOM     29  H1  UNL     1      23.889   3.958   0.072  1.00  0.00     0.194 HD
ENDBRANCH  22  23
ENDBRANCH  21  22
ENDBRANCH  19  21
ENDBRANCH  14  19
BRANCH  12  30
HETATM   30  O2  UNL     1      30.446   1.095  -1.222  1.00  0.00    -0.395 OA
ATOM     31  H2  UNL     1      30.843   0.337  -0.809  1.00  0.00     0.210 HD
ENDBRANCH  12  30
BRANCH  16  32
HETATM   32  O4  UNL     1      28.117   5.116  -1.440  1.00  0.00    -0.316 OA
BRANCH  32  33
HETATM   33  C27 UNL     1      27.195   4.373  -2.125  1.00  0.00     0.259 C
HETATM   34  O5  UNL     1      26.092   4.936  -2.287  1.00  0.00    -0.265 OA
BRANCH  33  35
HETATM   35  C28 UNL     1      27.378   3.020  -2.667  1.00  0.00     0.121 C
BRANCH  35  36
HETATM   36  C29 UNL     1      26.906   2.870  -4.076  1.00  0.00     0.123 C
BRANCH  36  37
HETATM   37  C30 UNL     1      26.121   1.587  -4.155  1.00  0.00     0.172 C
HETATM   38  O6  UNL     1      26.683   0.485  -4.426  1.00  0.00    -0.648 OA
HETATM   39  O7  UNL     1      24.755   1.547  -3.939  1.00  0.00    -0.648 OA
ENDBRANCH  36  37
ENDBRANCH  35  36
ENDBRANCH  33  35
ENDBRANCH  32  33
ENDBRANCH  16  32
BRANCH  11  40
HETATM   40  C12 UNL     1      32.213   1.710   1.313  1.00  0.00     0.006 C
HETATM   41  C13 UNL     1      32.735   2.678   2.303  1.00  0.00     0.006 C
ENDBRANCH  11  40
BRANCH   9  42
HETATM   42  O1  UNL     1      32.737  -0.245  -0.608  1.00  0.00    -0.390 OA
ATOM     43  H1  UNL     1      31.931  -0.312  -1.106  1.00  0.00     0.210 HD
ENDBRANCH   9  42
TORSDOF 12
ENDMDL