MODEL 3
REMARK VINA RESULT: -6.236558197      2.897      4.188
REMARK  13 active torsions:
REMARK  status: ('A' for Active; 'I' for Inactive)
REMARK    1  A    between atoms: O1_2  and  C2_3
REMARK    2  A    between atoms: C2_3  and  C4_5
REMARK    3  A    between atoms: C4_5  and  C5_6
REMARK    4  A    between atoms: C5_6  and  O3_8
REMARK    5  A    between atoms: O3_8  and  C6_9
REMARK    6  A    between atoms: C8_11  and  C9_12
REMARK    7  A    between atoms: C9_12  and  C11_14
REMARK    8  A    between atoms: C11_14  and  C12_15
REMARK    9  A    between atoms: C12_15  and  C13_16
REMARK   10  A    between atoms: C13_16  and  C14_17
REMARK   11  A    between atoms: C17_20  and  O4_21
REMARK   12  A    between atoms: C18_23  and  O5_24
REMARK   13  A    between atoms: C27_34  and  O6_35
ROOT
HETATM    1  C6  UNL     1      27.941   2.839  -3.858  1.00  0.00     0.143 C
HETATM    2  C7  UNL     1      28.358   3.758  -4.953  1.00  0.00     0.041 C
HETATM    3  C8  UNL     1      29.436   2.971  -5.723  1.00  0.00     0.029 C
HETATM    4  C17 UNL     1      30.056   2.054  -4.782  1.00  0.00     0.098 C
HETATM    5  C18 UNL     1      31.513   2.052  -4.547  1.00  0.00     0.154 C
HETATM    6  C19 UNL     1      31.908   1.825  -3.074  1.00  0.00     0.040 C
HETATM    7  C20 UNL     1      31.253   2.948  -2.330  1.00  0.00     0.002 C
HETATM    8  C21 UNL     1      29.789   2.701  -2.318  1.00  0.00     0.004 C
HETATM    9  C22 UNL     1      29.339   1.892  -1.098  1.00  0.00     0.007 C
HETATM   10  C23 UNL     1      29.887   2.382   0.196  1.00  0.00     0.010 C
HETATM   11  C24 UNL     1      30.880   3.492   0.107  1.00  0.00     0.030 C
HETATM   12  C25 UNL     1      31.770   3.401   1.304  1.00  0.00    -0.019 A
HETATM   13  C26 UNL     1      31.990   3.786   2.608  1.00  0.00     0.074 A
HETATM   14  C27 UNL     1      33.157   3.197   3.026  1.00  0.00     0.183 A
HETATM   15  O7  UNL     1      33.611   2.496   2.021  1.00  0.00    -0.292 OA
HETATM   16  C28 UNL     1      32.828   2.583   0.979  1.00  0.00     0.063 A
HETATM   17  C29 UNL     1      32.677   2.108  -0.442  1.00  0.00     0.075 C
HETATM   18  C30 UNL     1      31.843   3.234  -1.006  1.00  0.00    -0.026 C
HETATM   19  C31 UNL     1      32.762   4.466  -1.059  1.00  0.00     0.016 C
HETATM   20  C32 UNL     1      29.193   2.058  -3.520  1.00  0.00     0.021 C
HETATM   21  C33 UNL     1      28.669   0.652  -3.198  1.00  0.00     0.021 C
ENDROOT
BRANCH   1  22
HETATM   22  O3  UNL     1      26.831   2.016  -4.203  1.00  0.00    -0.315 OA
BRANCH  22  23
HETATM   23  C5  UNL     1      25.717   1.907  -3.387  1.00  0.00     0.261 C
HETATM   24  O2  UNL     1      24.643   1.630  -4.049  1.00  0.00    -0.265 OA
BRANCH  23  25
HETATM   25  C4  UNL     1      25.673   2.069  -1.930  1.00  0.00     0.142 C
BRANCH  25  26
HETATM   26  C2  UNL     1      25.347   3.426  -1.413  1.00  0.00     0.126 C
HETATM   27  C3  UNL     1      26.553   4.257  -1.046  1.00  0.00     0.040 C
BRANCH  26  28
HETATM   28  O1  UNL     1      24.553   3.222  -0.255  1.00  0.00    -0.391 OA
HETATM   29  C1  UNL     1      25.303   2.658   0.776  1.00  0.00     0.202 C
ENDBRANCH  26  28
ENDBRANCH  25  26
ENDBRANCH  23  25
ENDBRANCH  22  23
ENDBRANCH   1  22
BRANCH   3  30
HETATM   30  C9  UNL     1      30.136   3.950  -6.558  1.00  0.00    -0.012 C
HETATM   31  C10 UNL     1      29.907   3.914  -8.035  1.00  0.00     0.010 C
BRANCH  30  32
HETATM   32  C11 UNL     1      30.197   5.356  -6.003  1.00  0.00     0.005 C
BRANCH  32  33
HETATM   33  C12 UNL     1      31.530   5.664  -5.402  1.00  0.00     0.001 C
BRANCH  33  34
HETATM   34  C13 UNL     1      31.350   6.153  -3.978  1.00  0.00     0.004 C
BRANCH  34  35
HETATM   35  C14 UNL     1      29.981   6.742  -3.751  1.00  0.00    -0.023 C
HETATM   36  C15 UNL     1      29.519   6.287  -2.374  1.00  0.00     0.009 C
HETATM   37  C16 UNL     1      30.024   8.256  -3.686  1.00  0.00     0.009 C
ENDBRANCH  34  35
ENDBRANCH  33  34
ENDBRANCH  32  33
ENDBRANCH  30  32
ENDBRANCH   3  30
BRANCH   4  38
HETATM   38  O4  UNL     1      29.831   0.735  -5.312  1.00  0.00    -0.386 OA
ATOM     39  H4  UNL     1      30.242   0.135  -4.701  1.00  0.00     0.210 HD
ENDBRANCH   4  38
BRANCH   5  40
HETATM   40  O5  UNL     1      32.209   0.982  -5.173  1.00  0.00    -0.392 OA
ATOM     41  H5  UNL     1      33.132   1.148  -5.326  1.00  0.00     0.210 HD
ENDBRANCH   5  40
BRANCH  14  42
HETATM   42  O6  UNL     1      33.696   3.358   4.296  1.00  0.00    -0.341 OA
ATOM     43  H6  UNL     1      33.736   2.668   4.946  1.00  0.00     0.220 HD
ENDBRANCH  14  42
TORSDOF 13
ENDMDL