MODEL 5
REMARK VINA RESULT: -6.906489972      2.211      3.491
REMARK  15 active torsions:
REMARK  status: ('A' for Active; 'I' for Inactive)
REMARK    1  A    between atoms: C10_10  and  O1_11
REMARK    2  A    between atoms: C14_16  and  C15_17
REMARK    3  A    between atoms: C15_17  and  C16_18
REMARK    4  A    between atoms: C16_18  and  C17_19
REMARK    5  A    between atoms: C19_21  and  O2_22
REMARK    6  A    between atoms: O2_22  and  C20_23
REMARK    7  A    between atoms: C20_23  and  C21_24
REMARK    8  A    between atoms: C21_24  and  C22_25
REMARK    9  A    between atoms: C21_24  and  C28_34
REMARK   10  A    between atoms: C22_25  and  C23_26
REMARK   11  A    between atoms: C23_26  and  C24_27
REMARK   12  A    between atoms: C26_30  and  O4_31
REMARK   13  A    between atoms: C28_34  and  O5_35
REMARK   14  A    between atoms: O5_35  and  C29_36
REMARK   15  A    between atoms: C32_40  and  O7_41
ROOT
HETATM    1  C17 UNL     1      27.626   3.169   0.282  1.00  0.00     0.065 C
HETATM    2  C18 UNL     1      27.463   4.319  -0.623  1.00  0.00     0.049 C
HETATM    3  C19 UNL     1      26.370   4.295  -1.551  1.00  0.00     0.125 C
HETATM    4  C31 UNL     1      25.742   2.960  -1.876  1.00  0.00     0.064 C
HETATM    5  C32 UNL     1      25.793   1.928  -0.821  1.00  0.00     0.125 C
HETATM    6  C33 UNL     1      26.228   2.465   0.489  1.00  0.00     0.025 C
HETATM    7  C34 UNL     1      25.355   3.479   1.153  1.00  0.00     0.014 C
ENDROOT
BRANCH   1   8
HETATM    8  C16 UNL     1      28.521   2.841   1.049  1.00  0.00    -0.150 C
BRANCH   8   9
HETATM    9  C15 UNL     1      29.624   2.525   1.912  1.00  0.00     0.059 C
BRANCH   9  10
HETATM   10  C14 UNL     1      30.834   3.144   1.894  1.00  0.00    -0.037 C
HETATM   11  C2  UNL     1      30.914   4.586   1.835  1.00  0.00    -0.060 C
HETATM   12  C1  UNL     1      30.266   5.315   2.756  1.00  0.00     0.019 C
HETATM   13  C3  UNL     1      31.827   5.212   0.867  1.00  0.00     0.039 C
HETATM   14  C4  UNL     1      32.338   4.024   0.019  1.00  0.00     0.011 C
HETATM   15  C5  UNL     1      33.101   3.158   1.037  1.00  0.00     0.009 C
HETATM   16  C6  UNL     1      32.096   2.358   1.836  1.00  0.00    -0.011 C
HETATM   17  C11 UNL     1      34.199   2.339   0.458  1.00  0.00    -0.017 C
HETATM   18  C7  UNL     1      32.598   2.195   3.251  1.00  0.00     0.021 C
HETATM   19  C8  UNL     1      31.786   1.034   1.250  1.00  0.00     0.017 C
HETATM   20  C9  UNL     1      32.959   0.234   0.748  1.00  0.00     0.033 C
HETATM   21  C10 UNL     1      33.731   1.057  -0.215  1.00  0.00     0.126 C
HETATM   22  C12 UNL     1      35.302   1.985   1.434  1.00  0.00     0.018 C
HETATM   23  C13 UNL     1      34.935   3.150  -0.641  1.00  0.00     0.018 C
BRANCH  21  24
HETATM   24  O1  UNL     1      32.873   1.446  -1.238  1.00  0.00    -0.395 OA
ATOM     25  H1  UNL     1      32.899   0.781  -1.915  1.00  0.00     0.210 HD
ENDBRANCH  21  24
ENDBRANCH   9  10
ENDBRANCH   8   9
ENDBRANCH   1   8
BRANCH   3  26
HETATM   26  O2  UNL     1      26.603   4.904  -2.830  1.00  0.00    -0.385 OA
BRANCH  26  27
HETATM   27  C20 UNL     1      27.651   5.867  -2.571  1.00  0.00     0.175 C
BRANCH  27  28
HETATM   28  C21 UNL     1      28.656   5.799  -3.622  1.00  0.00     0.044 C
BRANCH  28  29
HETATM   29  C22 UNL     1      29.781   4.768  -3.338  1.00  0.00     0.094 C
BRANCH  29  30
HETATM   30  C23 UNL     1      29.630   3.597  -3.343  1.00  0.00    -0.146 C
BRANCH  30  31
HETATM   31  C24 UNL     1      29.286   2.158  -3.280  1.00  0.00     0.011 A
HETATM   32  C25 UNL     1      28.186   1.692  -4.106  1.00  0.00     0.224 A
HETATM   33  O3  UNL     1      28.160   0.426  -3.948  1.00  0.00    -0.326 OA
HETATM   34  C26 UNL     1      29.041  -0.023  -3.168  1.00  0.00     0.179 A
HETATM   35  C27 UNL     1      29.782   1.080  -2.717  1.00  0.00     0.081 A
BRANCH  34  36
HETATM   36  O4  UNL     1      29.300  -1.323  -2.762  1.00  0.00    -0.341 OA
ATOM     37  H4  UNL     1      30.091  -1.709  -2.405  1.00  0.00     0.220 HD
ENDBRANCH  34  36
ENDBRANCH  30  31
ENDBRANCH  29  30
ENDBRANCH  28  29
BRANCH  28  38
HETATM   38  C28 UNL     1      29.535   7.131  -3.462  1.00  0.00     0.186 C
BRANCH  38  39
HETATM   39  O5  UNL     1      30.086   6.959  -2.187  1.00  0.00    -0.321 OA
BRANCH  39  40
HETATM   40  C29 UNL     1      30.293   7.829  -1.168  1.00  0.00     0.254 C
HETATM   41  C30 UNL     1      29.355   7.849   0.022  1.00  0.00     0.126 C
HETATM   42  O6  UNL     1      31.263   8.592  -1.217  1.00  0.00    -0.266 OA
ENDBRANCH  39  40
ENDBRANCH  38  39
ENDBRANCH  28  38
ENDBRANCH  27  28
ENDBRANCH  26  27
ENDBRANCH   3  26
BRANCH   5  43
HETATM   43  O7  UNL     1      26.541   0.843  -1.171  1.00  0.00    -0.395 OA
ATOM     44  H7  UNL     1      26.482   0.133  -0.544  1.00  0.00     0.210 HD
ENDBRANCH   5  43
TORSDOF 15
ENDMDL