MODEL 3
REMARK VINA RESULT: -7.149585617      0.528      1.625
REMARK  11 active torsions:
REMARK  status: ('A' for Active; 'I' for Inactive)
REMARK    1  A    between atoms: C2_2  and  O1_3
REMARK    2  A    between atoms: O1_3  and  N1_4
REMARK    3  A    between atoms: C4_7  and  C5_8
REMARK    4  A    between atoms: C5_8  and  C6_10
REMARK    5  A    between atoms: C6_10  and  C7_11
REMARK    6  A    between atoms: C7_11  and  C8_12
REMARK    7  A    between atoms: C8_12  and  O3_13
REMARK    8  A    between atoms: C8_12  and  C9_15
REMARK    9  A    between atoms: C13_19  and  O4_20
REMARK   10  A    between atoms: C14_22  and  O5_23
REMARK   11  A    between atoms: C25_34  and  N2_35
ROOT
HETATM    1  N1  UNL     1      27.558   2.787  -0.338  1.00  0.00    -0.273 N
ATOM      2  H1  UNL     1      27.136   2.698  -1.262  1.00  0.00     0.193 HD
HETATM    3  C3  UNL     1      28.288   3.772  -0.341  1.00  0.00     0.030 C
HETATM    4  C4  UNL     1      28.424   4.592  -1.571  1.00  0.00     0.103 C
HETATM    5  C17 UNL     1      29.807   4.427  -2.179  1.00  0.00     0.018 C
HETATM    6  C18 UNL     1      30.682   3.845  -1.086  1.00  0.00     0.007 C
HETATM    7  C19 UNL     1      30.457   4.576   0.250  1.00  0.00     0.004 C
HETATM    8  C20 UNL     1      31.613   4.407   1.137  1.00  0.00    -0.001 C
HETATM    9  C21 UNL     1      32.219   5.709   1.645  1.00  0.00     0.033 C
HETATM   10  C22 UNL     1      33.258   5.438   2.661  1.00  0.00    -0.023 C
HETATM   11  C23 UNL     1      33.547   4.253   3.183  1.00  0.00    -0.073 C
HETATM   12  C24 UNL     1      34.617   4.120   4.197  1.00  0.00     0.067 C
HETATM   13  C25 UNL     1      34.155   3.358   5.420  1.00  0.00     0.187 C
HETATM   14  C26 UNL     1      32.802   2.741   5.236  1.00  0.00     0.034 C
HETATM   15  C27 UNL     1      32.776   2.058   3.894  1.00  0.00     0.016 C
HETATM   16  C28 UNL     1      32.784   3.032   2.749  1.00  0.00    -0.017 C
HETATM   17  C29 UNL     1      33.576   2.405   1.609  1.00  0.00     0.020 C
HETATM   18  C30 UNL     1      31.452   3.531   2.338  1.00  0.00     0.003 C
HETATM   19  C31 UNL     1      30.371   2.549   2.120  1.00  0.00     0.007 C
HETATM   20  C32 UNL     1      29.099   3.414   2.015  1.00  0.00     0.016 C
HETATM   21  C33 UNL     1      29.092   4.255   0.806  1.00  0.00     0.001 C
HETATM   22  C34 UNL     1      28.410   5.578   1.219  1.00  0.00     0.022 C
ENDROOT
BRANCH   4  23
HETATM   23  C5  UNL     1      27.359   4.421  -2.572  1.00  0.00     0.136 C
HETATM   24  O2  UNL     1      26.200   4.806  -2.297  1.00  0.00    -0.297 OA
BRANCH  23  25
HETATM   25  C6  UNL     1      27.518   3.822  -3.921  1.00  0.00     0.082 C
BRANCH  25  26
HETATM   26  C7  UNL     1      27.059   2.361  -3.826  1.00  0.00     0.044 C
BRANCH  26  27
HETATM   27  C8  UNL     1      27.861   1.442  -4.693  1.00  0.00     0.151 C
BRANCH  27  28
HETATM   28  O3  UNL     1      27.248   0.202  -4.829  1.00  0.00    -0.391 OA
ATOM     29  H3  UNL     1      26.586   0.214  -5.510  1.00  0.00     0.210 HD
ENDBRANCH  27  28
BRANCH  27  30
HETATM   30  C9  UNL     1      29.281   1.372  -4.293  1.00  0.00    -0.026 A
HETATM   31  C10 UNL     1      30.270   2.056  -4.953  1.00  0.00     0.019 A
HETATM   32  C11 UNL     1      31.589   1.984  -4.564  1.00  0.00    -0.025 A
HETATM   33  C12 UNL     1      32.620   2.746  -5.313  1.00  0.00     0.051 C
HETATM   34  C13 UNL     1      31.911   1.209  -3.493  1.00  0.00     0.104 A
HETATM   35  C14 UNL     1      30.950   0.513  -2.811  1.00  0.00     0.102 A
HETATM   36  C16 UNL     1      29.646   0.583  -3.195  1.00  0.00     0.049 A
BRANCH  34  37
HETATM   37  O4  UNL     1      33.248   1.132  -3.093  1.00  0.00    -0.357 OA
ATOM     38  H4  UNL     1      33.554   0.341  -2.665  1.00  0.00     0.217 HD
ENDBRANCH  34  37
BRANCH  35  39
HETATM   39  O5  UNL     1      31.373  -0.256  -1.726  1.00  0.00    -0.353 OA
HETATM   40  C15 UNL     1      31.794   0.304  -0.508  1.00  0.00     0.210 C
ENDBRANCH  35  39
ENDBRANCH  27  30
ENDBRANCH  26  27
ENDBRANCH  25  26
ENDBRANCH  23  25
ENDBRANCH   4  23
BRANCH   1  41
HETATM   41  O1  UNL     1      27.121   1.813   0.408  1.00  0.00    -0.281 OA
BRANCH  41  42
HETATM   42  C2  UNL     1      25.861   1.250   0.562  1.00  0.00     0.196 C
HETATM   43  C1  UNL     1      24.873   2.140  -0.204  1.00  0.00     0.036 C
ENDBRANCH  41  42
ENDBRANCH   1  41
BRANCH  13  44
HETATM   44  N2  UNL     1      34.128   4.200   6.600  1.00  0.00    -0.075 N
ATOM     45  H23 UNL     1      33.537   3.799   7.329  1.00  0.00     0.274 HD
ATOM     46  H22 UNL     1      35.022   4.181   7.090  1.00  0.00     0.274 HD
ATOM     47  H21 UNL     1      33.846   5.155   6.378  1.00  0.00     0.274 HD
ENDBRANCH  13  44
TORSDOF 11
ENDMDL