MODEL 5
REMARK VINA RESULT: -5.586633052      2.171      2.782
REMARK  9 active torsions:
REMARK  status: ('A' for Active; 'I' for Inactive)
REMARK    1  A    between atoms: N1_1  and  N2_4
REMARK    2  A    between atoms: N2_4  and  C1_6
REMARK    3  A    between atoms: C1_6  and  O1_7
REMARK    4  A    between atoms: C1_6  and  C2_9
REMARK    5  A    between atoms: C2_9  and  N3_10
REMARK    6  A    between atoms: C2_9  and  N6_25
REMARK    7  A    between atoms: C7_20  and  N5_21
REMARK    8  A    between atoms: N5_21  and  O4_23
REMARK    9  A    between atoms: N6_25  and  N7_26
ROOT
HETATM    1  N3  UNL     1      -0.596   3.822   3.199  1.00  0.00    -0.360 N
ATOM      2  H3  UNL     1       0.122   3.144   3.456  1.00  0.00     0.161 HD
HETATM    3  C3  UNL     1      -1.187   4.319   4.196  1.00  0.00     0.127 A
HETATM    4  C4  UNL     1      -0.790   3.884   5.565  1.00  0.00     0.277 A
HETATM    5  O2  UNL     1       0.132   3.026   5.688  1.00  0.00    -0.266 OA
HETATM    6  N4  UNL     1      -1.459   4.448   6.667  1.00  0.00    -0.288 N
ATOM      7  H4  UNL     1      -1.186   4.149   7.603  1.00  0.00     0.172 HD
HETATM    8  C5  UNL     1      -2.490   5.408   6.543  1.00  0.00     0.250 A
HETATM    9  O3  UNL     1      -3.052   5.878   7.573  1.00  0.00    -0.268 OA
HETATM   10  C6  UNL     1      -2.848   5.807   5.191  1.00  0.00     0.108 A
HETATM   11  C7  UNL     1      -2.247   5.305   4.113  1.00  0.00     0.091 A
ENDROOT
BRANCH   1  12
HETATM   12  C2  UNL     1      -0.713   4.000   1.802  1.00  0.00     0.246 C
BRANCH  12  13
HETATM   13  C1  UNL     1       0.645   3.824   1.099  1.00  0.00     0.272 C
BRANCH  13  14
HETATM   14  N2  UNL     1       0.513   3.172  -0.162  1.00  0.00    -0.311 N
ATOM     15  H2  UNL     1       0.087   3.627  -0.970  1.00  0.00     0.182 HD
BRANCH  14  16
HETATM   16  N1  UNL     1       0.999   1.885  -0.214  1.00  0.00    -0.347 N
ATOM     17  H12 UNL     1       1.938   1.685  -0.561  1.00  0.00     0.176 HD
ATOM     18  H11 UNL     1       0.359   1.162   0.114  1.00  0.00     0.176 HD
ENDBRANCH  14  16
ENDBRANCH  13  14
BRANCH  13  19
HETATM   19  O1  UNL     1       1.291   5.033   1.080  1.00  0.00    -0.372 OA
ATOM     20  H1  UNL     1       1.678   5.308   1.903  1.00  0.00     0.212 HD
ENDBRANCH  13  19
ENDBRANCH  12  13
BRANCH  12  21
HETATM   21  N6  UNL     1      -1.691   3.131   1.176  1.00  0.00    -0.118 NA
BRANCH  21  22
HETATM   22  N7  UNL     1      -1.873   1.935   1.832  1.00  0.00    -0.346 N
ATOM     23  H72 UNL     1      -2.790   1.622   2.148  1.00  0.00     0.172 HD
ATOM     24  H71 UNL     1      -1.012   1.404   1.968  1.00  0.00     0.172 HD
ENDBRANCH  21  22
ENDBRANCH  12  21
ENDBRANCH   1  12
BRANCH  11  25
HETATM   25  N5  UNL     1      -2.751   5.831   2.877  1.00  0.00    -0.267 N
ATOM     26  H5  UNL     1      -3.499   5.372   2.359  1.00  0.00     0.194 HD
BRANCH  25  27
HETATM   27  O4  UNL     1      -2.209   6.897   2.470  1.00  0.00    -0.289 OA
ATOM     28  H4  UNL     1      -1.888   6.884   1.575  1.00  0.00     0.244 HD
ENDBRANCH  25  27
ENDBRANCH  11  25
TORSDOF 9
ENDMDL