MODEL 2
REMARK VINA RESULT: -6.968220099      1.102      1.345
REMARK  7 active torsions:
REMARK  status: ('A' for Active; 'I' for Inactive)
REMARK    1  A    between atoms: N1_1  and  C1_4
REMARK    2  A    between atoms: N5_15  and  N6_16
REMARK    3  A    between atoms: N6_16  and  C5_18
REMARK    4  A    between atoms: C5_18  and  C6_19
REMARK    5  A    between atoms: C6_19  and  O1_20
REMARK    6  A    between atoms: C6_19  and  C7_22
REMARK       I    between atoms: C7_22  and  N7_24
REMARK    7  A    between atoms: N7_24  and  N8_26
ROOT
HETATM    1  C1  UNL     1      -4.006   3.185   7.257  1.00  0.00     0.679 A
HETATM    2  N2  UNL     1      -4.007   4.241   8.088  1.00  0.00    -0.175 N
ATOM      3  H2  UNL     1      -4.538   4.188   8.956  1.00  0.00     0.186 HD
HETATM    4  C2  UNL     1      -3.321   5.374   7.807  1.00  0.00     0.145 A
HETATM    5  N3  UNL     1      -3.321   6.380   8.599  1.00  0.00    -0.383 N
ATOM      6  H31 UNL     1      -2.805   7.234   8.387  1.00  0.00     0.157 HD
ATOM      7  H32 UNL     1      -3.854   6.325   9.467  1.00  0.00     0.157 HD
HETATM    8  C3  UNL     1      -2.597   5.449   6.627  1.00  0.00     0.124 A
HETATM    9  N4  UNL     1      -1.829   6.394   6.057  1.00  0.00    -0.345 N
ATOM     10  H4  UNL     1      -1.629   7.317   6.441  1.00  0.00     0.167 HD
HETATM   11  C4  UNL     1      -1.372   5.903   4.888  1.00  0.00     0.209 A
HETATM   12  N5  UNL     1      -1.827   4.660   4.689  1.00  0.00    -0.237 N
HETATM   13  C8  UNL     1      -2.600   4.366   5.779  1.00  0.00     0.173 A
HETATM   14  N9  UNL     1      -3.308   3.273   6.131  1.00  0.00    -0.173 N
ATOM     15  H9  UNL     1      -3.308   2.473   5.499  1.00  0.00     0.186 HD
ENDROOT
BRANCH  12  16
HETATM   16  N6  UNL     1      -1.650   3.758   3.653  1.00  0.00    -0.324 N
ATOM     17  H6  UNL     1      -2.367   3.050   3.493  1.00  0.00     0.180 HD
BRANCH  16  18
HETATM   18  C5  UNL     1      -0.509   3.778   2.803  1.00  0.00     0.181 C
BRANCH  18  19
HETATM   19  C6  UNL     1      -0.795   3.643   1.338  1.00  0.00     0.230 C
BRANCH  19  20
HETATM   20  O1  UNL     1      -1.839   4.477   0.928  1.00  0.00    -0.384 OA
ATOM     21  H1  UNL     1      -1.785   4.686   0.003  1.00  0.00     0.210 HD
ENDBRANCH  19  20
BRANCH  19  22
HETATM   22  C7  UNL     1      -1.164   2.239   1.067  1.00  0.00     0.266 C
HETATM   23  O2  UNL     1      -2.314   1.843   1.331  1.00  0.00    -0.269 OA
HETATM   24  N7  UNL     1      -0.229   1.347   0.511  1.00  0.00    -0.274 N
ATOM     25  H7  UNL     1       0.716   1.660   0.289  1.00  0.00     0.189 HD
BRANCH  24  26
HETATM   26  N8  UNL     1      -0.611   0.028   0.267  1.00  0.00    -0.343 N
ATOM     27  H82 UNL     1      -1.512  -0.305   0.610  1.00  0.00     0.176 HD
ATOM     28  H81 UNL     1       0.020  -0.584  -0.251  1.00  0.00     0.176 HD
ENDBRANCH  24  26
ENDBRANCH  19  22
ENDBRANCH  18  19
ENDBRANCH  16  18
ENDBRANCH  12  16
BRANCH   1  29
HETATM   29  N1  UNL     1      -4.689   2.119   7.585  1.00  0.00    -0.234 N
ATOM     30  H12 UNL     1      -4.384   1.469   8.308  1.00  0.00     0.174 HD
ATOM     31  H11 UNL     1      -5.564   1.924   7.099  1.00  0.00     0.174 HD
ENDBRANCH   1  29
TORSDOF 7
ENDMDL