MODEL 1
REMARK VINA RESULT: -8.388817388      0.000      0.000
REMARK  6 active torsions:
REMARK  status: ('A' for Active; 'I' for Inactive)
REMARK       I    between atoms: C1_4  and  N2_5
REMARK       I    between atoms: C1_4  and  N9_23
REMARK    1  A    between atoms: N2_5  and  N3_7
REMARK    2  A    between atoms: C2_9  and  C3_10
REMARK    3  A    between atoms: C3_10  and  C4_12
REMARK    4  A    between atoms: C5_15  and  N5_16
REMARK    5  A    between atoms: N5_16  and  N6_17
REMARK    6  A    between atoms: N9_23  and  N10_25
ROOT
HETATM    1  N3  UNL     1      -0.866   3.369   4.161  1.00  0.00    -0.294 N
ATOM      2  H3  UNL     1      -0.292   2.580   3.864  1.00  0.00     0.186 HD
HETATM    3  C2  UNL     1      -1.482   4.086   3.266  1.00  0.00     0.166 C
ENDROOT
BRANCH   3   4
HETATM    4  C3  UNL     1      -1.365   3.781   1.842  1.00  0.00     0.233 C
HETATM    5  O1  UNL     1      -1.448   4.733   1.029  1.00  0.00    -0.283 OA
BRANCH   4   6
HETATM    6  C4  UNL     1      -1.158   2.411   1.369  1.00  0.00     0.168 C
HETATM    7  N4  UNL     1      -0.104   1.903   0.828  1.00  0.00    -0.338 N
HETATM    8  C5  UNL     1      -0.293   0.508   0.497  1.00  0.00     0.312 C
ATOM      9  H4  UNL     1       0.757   2.421   0.655  1.00  0.00     0.164 HD
HETATM   10  N7  UNL     1      -1.733   0.313   0.573  1.00  0.00    -0.095 NA
HETATM   11  N8  UNL     1      -2.114   1.358   1.425  1.00  0.00    -0.283 N
ATOM     12  H8  UNL     1      -2.955   1.364   2.001  1.00  0.00     0.184 HD
BRANCH   8  13
HETATM   13  N5  UNL     1       0.160   0.170  -0.825  1.00  0.00    -0.103 NA
BRANCH  13  14
HETATM   14  N6  UNL     1       0.954   1.197  -1.302  1.00  0.00    -0.345 N
ATOM     15  H62 UNL     1       0.703   2.185  -1.279  1.00  0.00     0.172 HD
ATOM     16  H61 UNL     1       1.818   0.801  -1.675  1.00  0.00     0.172 HD
ENDBRANCH  13  14
ENDBRANCH   8  13
ENDBRANCH   4   6
ENDBRANCH   3   4
BRANCH   1  17
HETATM   17  N2  UNL     1      -0.980   3.662   5.519  1.00  0.00    -0.131 N
HETATM   18  C1  UNL     1      -1.459   4.914   5.996  1.00  0.00     0.709 C
HETATM   19  N1  UNL     1      -1.030   6.025   5.523  1.00  0.00    -0.232 N
HETATM   20  N9  UNL     1      -2.441   4.939   7.026  1.00  0.00    -0.071 N
ATOM     21  H12 UNL     1      -0.326   6.007   4.785  1.00  0.00     0.174 HD
ATOM     22  H11 UNL     1      -1.373   6.922   5.866  1.00  0.00     0.174 HD
ATOM     23  H9  UNL     1      -2.423   5.681   7.725  1.00  0.00     0.212 HD
ATOM     24  H2  UNL     1      -0.709   2.951   6.197  1.00  0.00     0.205 HD
BRANCH  20  25
HETATM   25  N10 UNL     1      -3.423   3.958   7.085  1.00  0.00    -0.024 N
HETATM   26  O2  UNL     1      -3.945   3.689   8.177  1.00  0.00    -0.516 OA
HETATM   27  O3  UNL     1      -3.803   3.306   5.956  1.00  0.00    -0.516 OA
ENDBRANCH  20  25
ENDBRANCH   1  17
TORSDOF 6
ENDMDL