MODEL 3
REMARK VINA RESULT: -5.422153270      2.347      4.780
REMARK  4 active torsions:
REMARK  status: ('A' for Active; 'I' for Inactive)
REMARK    1  A    between atoms: N1_1  and  C1_4
REMARK    2  A    between atoms: C3_10  and  C4_11
REMARK    3  A    between atoms: C4_11  and  N4_12
REMARK       I    between atoms: N4_12  and  C5_15
REMARK       I    between atoms: C5_15  and  N5_16
REMARK       I    between atoms: C5_15  and  N6_20
REMARK    4  A    between atoms: C6_26  and  N8_27
ROOT
HETATM    1  C1  UNL     1       5.837   2.487  -2.853  1.00  0.00     0.681 A
HETATM    2  N2  UNL     1       4.948   3.418  -2.482  1.00  0.00    -0.141 N
ATOM      3  H2  UNL     1       5.084   4.398  -2.732  1.00  0.00     0.189 HD
HETATM    4  C2  UNL     1       3.874   3.031  -1.773  1.00  0.00     0.348 A
HETATM    5  O1  UNL     1       3.024   3.905  -1.415  1.00  0.00    -0.245 OA
HETATM    6  N3  UNL     1       3.677   1.735  -1.435  1.00  0.00    -0.232 N
HETATM    7  C3  UNL     1       2.699   1.144  -0.751  1.00  0.00     0.121 A
HETATM    8  N7  UNL     1       2.988  -0.183  -0.696  1.00  0.00    -0.322 N
ATOM      9  H7  UNL     1       2.417  -0.890  -0.234  1.00  0.00     0.169 HD
HETATM   10  C6  UNL     1       4.138  -0.422  -1.342  1.00  0.00     0.221 A
HETATM   11  C7  UNL     1       4.575   0.784  -1.809  1.00  0.00     0.183 A
HETATM   12  N9  UNL     1       5.639   1.215  -2.519  1.00  0.00    -0.172 N
ATOM     13  H9  UNL     1       6.331   0.527  -2.815  1.00  0.00     0.186 HD
ENDROOT
BRANCH   7  14
HETATM   14  C4  UNL     1       1.508   1.800  -0.153  1.00  0.00     0.313 C
BRANCH  14  15
HETATM   15  N4  UNL     1       0.602   0.780   0.263  1.00  0.00    -0.015 N
HETATM   16  C5  UNL     1      -0.711   1.272   0.519  1.00  0.00     0.576 C
HETATM   17  N5  UNL     1      -1.538   0.151   0.928  1.00  0.00    -0.026 N
HETATM   18  N6  UNL     1      -0.657   2.299   1.526  1.00  0.00    -0.026 N
ATOM     19  H53 UNL     1      -1.527  -0.614   0.254  1.00  0.00     0.278 HD
ATOM     20  H52 UNL     1      -1.146  -0.359   1.720  1.00  0.00     0.278 HD
ATOM     21  H51 UNL     1      -2.477   0.503   1.111  1.00  0.00     0.278 HD
ATOM     22  H63 UNL     1      -0.195   1.978   2.376  1.00  0.00     0.278 HD
ATOM     23  H62 UNL     1      -0.008   3.046   1.278  1.00  0.00     0.278 HD
ATOM     24  H61 UNL     1      -1.596   2.651   1.709  1.00  0.00     0.278 HD
ATOM     25  H42 UNL     1       0.579   0.016  -0.412  1.00  0.00     0.282 HD
ATOM     26  H41 UNL     1       0.966   0.278   1.072  1.00  0.00     0.282 HD
ENDBRANCH  14  15
ENDBRANCH   7  14
BRANCH  10  27
HETATM   27  N8  UNL     1       4.809  -1.657  -1.533  1.00  0.00    -0.094 N
HETATM   28  O2  UNL     1       4.195  -2.738  -1.751  1.00  0.00    -0.530 OA
HETATM   29  O3  UNL     1       6.180  -1.754  -1.492  1.00  0.00    -0.530 OA
ENDBRANCH  10  27
BRANCH   1  30
HETATM   30  N1  UNL     1       6.864   2.862  -3.530  1.00  0.00    -0.234 N
ATOM     31  H12 UNL     1       6.961   3.814  -3.882  1.00  0.00     0.174 HD
ATOM     32  H11 UNL     1       7.597   2.178  -3.713  1.00  0.00     0.174 HD
ENDBRANCH   1  30
TORSDOF 4
ENDMDL