MODEL 2
REMARK VINA RESULT: -6.178364463      6.637     10.368
REMARK  6 active torsions:
REMARK  status: ('A' for Active; 'I' for Inactive)
REMARK    1  A    between atoms: N5_15  and  C6_16
REMARK    2  A    between atoms: C6_16  and  C7_17
REMARK    3  A    between atoms: C7_17  and  C8_25
REMARK    4  A    between atoms: N6_18  and  N7_20
REMARK    5  A    between atoms: N7_20  and  N8_22
REMARK       I    between atoms: C8_25  and  N9_27
REMARK    6  A    between atoms: N9_27  and  N10_29
ROOT
HETATM    1  C6  UNL     1       2.636   1.940  -1.233  1.00  0.00     0.195 C
ENDROOT
BRANCH   1   2
HETATM    2  N5  UNL     1       3.545   0.919  -0.869  1.00  0.00    -0.321 N
HETATM    3  C3  UNL     1       4.327   0.297  -1.807  1.00  0.00     0.140 A
HETATM    4  N3  UNL     1       4.475   0.415  -3.133  1.00  0.00    -0.336 N
HETATM    5  C4  UNL     1       5.094  -0.635  -1.154  1.00  0.00     0.122 A
HETATM    6  C2  UNL     1       5.344  -0.356  -3.796  1.00  0.00     0.183 A
ATOM      7  H3  UNL     1       3.918   1.101  -3.643  1.00  0.00     0.168 HD
HETATM    8  N2  UNL     1       6.099  -1.274  -3.147  1.00  0.00    -0.337 N
HETATM    9  C1  UNL     1       5.993  -1.436  -1.818  1.00  0.00     0.131 A
ATOM     10  H2  UNL     1       6.756  -1.849  -3.673  1.00  0.00     0.168 HD
HETATM   11  N1  UNL     1       6.716  -2.312  -1.216  1.00  0.00    -0.383 N
ATOM     12  H12 UNL     1       7.383  -2.905  -1.709  1.00  0.00     0.157 HD
ATOM     13  H11 UNL     1       6.635  -2.434  -0.207  1.00  0.00     0.157 HD
HETATM   14  N4  UNL     1       4.757  -0.550   0.146  1.00  0.00    -0.346 N
HETATM   15  C5  UNL     1       3.824   0.383   0.333  1.00  0.00     0.185 A
ATOM     16  H4  UNL     1       5.160  -1.122   0.888  1.00  0.00     0.167 HD
ENDBRANCH   1   2
BRANCH   1  17
HETATM   17  C7  UNL     1       1.266   1.774  -0.623  1.00  0.00     0.114 C
HETATM   18  N6  UNL     1       0.714   2.686   0.006  1.00  0.00    -0.284 N
ATOM     19  H6  UNL     1       1.315   3.510   0.033  1.00  0.00     0.188 HD
BRANCH  18  20
HETATM   20  N7  UNL     1      -0.436   2.926   0.667  1.00  0.00    -0.249 N
ATOM     21  H7  UNL     1      -1.035   3.660   0.288  1.00  0.00     0.207 HD
BRANCH  20  22
HETATM   22  N8  UNL     1      -0.894   2.277   1.816  1.00  0.00    -0.331 N
ATOM     23  H82 UNL     1      -0.331   2.419   2.654  1.00  0.00     0.178 HD
ATOM     24  H81 UNL     1      -1.722   1.685   1.895  1.00  0.00     0.178 HD
ENDBRANCH  20  22
ENDBRANCH  18  20
BRANCH  17  25
HETATM   25  C8  UNL     1       0.672   0.488  -0.834  1.00  0.00     0.285 C
HETATM   26  O1  UNL     1      -0.055  -0.017   0.096  1.00  0.00    -0.265 OA
HETATM   27  N9  UNL     1       0.811  -0.282  -1.973  1.00  0.00    -0.271 N
ATOM     28  H9  UNL     1       1.376   0.062  -2.749  1.00  0.00     0.189 HD
BRANCH  27  29
HETATM   29  N10 UNL     1       0.174  -1.548  -2.074  1.00  0.00    -0.342 N
ATOM     30 2H10 UNL     1       0.473  -2.298  -1.451  1.00  0.00     0.176 HD
ATOM     31 1H10 UNL     1      -0.569  -1.704  -2.756  1.00  0.00     0.176 HD
ENDBRANCH  27  29
ENDBRANCH  17  25
ENDBRANCH   1  17
TORSDOF 6
ENDMDL