MODEL 2
REMARK VINA RESULT: -5.133446112      1.432      2.067
REMARK  7 active torsions:
REMARK  status: ('A' for Active; 'I' for Inactive)
REMARK       I    between atoms: C2_2  and  N1_4
REMARK    1  A    between atoms: N1_4  and  N2_6
REMARK    2  A    between atoms: N2_6  and  C3_8
REMARK    3  A    between atoms: C6_18  and  N6_19
REMARK    4  A    between atoms: N6_19  and  C7_21
REMARK    5  A    between atoms: C7_21  and  C8_27
REMARK    6  A    between atoms: N7_22  and  N8_24
REMARK    7  A    between atoms: C8_27  and  N9_29
ROOT
HETATM    1  C3  UNL     1       4.139   1.846  -1.366  1.00  0.00     0.368 C
HETATM    2  N3  UNL     1       4.202   2.754  -2.501  1.00  0.00    -0.044 N
ATOM      3  H31 UNL     1       3.328   3.264  -2.629  1.00  0.00     0.280 HD
ATOM      4  H32 UNL     1       4.217   2.253  -3.389  1.00  0.00     0.280 HD
HETATM    5  C4  UNL     1       5.351   3.662  -2.365  1.00  0.00     0.256 C
HETATM    6  C5  UNL     1       6.621   3.004  -2.824  1.00  0.00     0.166 C
HETATM    7  N4  UNL     1       6.450   1.634  -3.270  1.00  0.00    -0.333 N
ATOM      8  H4  UNL     1       6.788   1.428  -4.211  1.00  0.00     0.180 HD
HETATM    9  N5  UNL     1       5.882   0.556  -2.578  1.00  0.00    -0.290 N
ATOM     10  H5  UNL     1       6.299  -0.359  -2.748  1.00  0.00     0.188 HD
HETATM   11  C6  UNL     1       4.885   0.588  -1.743  1.00  0.00     0.149 C
ENDROOT
BRANCH  11  12
HETATM   12  N6  UNL     1       4.467  -0.612  -1.117  1.00  0.00    -0.329 N
ATOM     13  H6  UNL     1       4.070  -0.596  -0.177  1.00  0.00     0.168 HD
BRANCH  12  14
HETATM   14  C7  UNL     1       4.612  -1.836  -1.817  1.00  0.00     0.127 C
HETATM   15  N7  UNL     1       3.978  -1.952  -2.931  1.00  0.00    -0.294 N
ATOM     16  H7  UNL     1       3.415  -1.157  -3.234  1.00  0.00     0.187 HD
BRANCH  15  17
HETATM   17  N8  UNL     1       3.996  -3.055  -3.742  1.00  0.00    -0.344 N
ATOM     18  H82 UNL     1       3.595  -2.936  -4.673  1.00  0.00     0.176 HD
ATOM     19  H81 UNL     1       4.374  -3.968  -3.489  1.00  0.00     0.176 HD
ENDBRANCH  15  17
BRANCH  14  20
HETATM   20  C8  UNL     1       5.458  -2.928  -1.280  1.00  0.00     0.247 C
HETATM   21  C9  UNL     1       5.367  -3.031   0.223  1.00  0.00     0.048 C
BRANCH  20  22
HETATM   22  N9  UNL     1       6.862  -2.734  -1.609  1.00  0.00    -0.069 N
ATOM     23  H93 UNL     1       7.311  -3.616  -1.857  1.00  0.00     0.275 HD
ATOM     24  H92 UNL     1       6.972  -2.244  -2.497  1.00  0.00     0.275 HD
ATOM     25  H91 UNL     1       7.365  -2.259  -0.858  1.00  0.00     0.275 HD
ENDBRANCH  20  22
ENDBRANCH  14  20
ENDBRANCH  12  14
ENDBRANCH  11  12
BRANCH   1  26
HETATM   26  N2  UNL     1       2.890   1.710  -0.837  1.00  0.00    -0.297 N
ATOM     27  H2  UNL     1       2.688   2.335  -0.057  1.00  0.00     0.183 HD
BRANCH  26  28
HETATM   28  N1  UNL     1       1.886   0.893  -1.170  1.00  0.00    -0.273 N
HETATM   29  C2  UNL     1       0.836   0.347  -0.404  1.00  0.00     0.231 C
HETATM   30  C1  UNL     1      -0.143  -0.554  -1.131  1.00  0.00     0.119 C
HETATM   31  O1  UNL     1       0.640   0.537   0.813  1.00  0.00    -0.272 OA
ATOM     32  H1  UNL     1       1.879   0.616  -2.152  1.00  0.00     0.189 HD
ENDBRANCH  26  28
ENDBRANCH   1  26
TORSDOF 7
ENDMDL