MODEL 3
REMARK VINA RESULT: -6.606384933      1.208      1.694
REMARK  7 active torsions:
REMARK  status: ('A' for Active; 'I' for Inactive)
REMARK    1  A    between atoms: N1_1  and  C1_4
REMARK    2  A    between atoms: N4_14  and  C6_15
REMARK    3  A    between atoms: C6_15  and  N5_16
REMARK       I    between atoms: N5_16  and  C7_18
REMARK    4  A    between atoms: C7_18  and  C8_20
REMARK    5  A    between atoms: C8_20  and  N6_21
REMARK    6  A    between atoms: C8_20  and  N7_25
REMARK    7  A    between atoms: N7_25  and  N8_26
ROOT
HETATM    1  C1  UNL     1       3.156   0.629  -1.645  1.00  0.00     0.680 A
HETATM    2  N2  UNL     1       3.115   1.902  -1.216  1.00  0.00    -0.154 N
ATOM      3  H2  UNL     1       3.925   2.498  -1.382  1.00  0.00     0.187 HD
HETATM    4  C2  UNL     1       2.049   2.427  -0.575  1.00  0.00     0.290 A
HETATM    5  O1  UNL     1       2.016   3.615  -0.179  1.00  0.00    -0.265 OA
HETATM    6  C3  UNL     1       0.961   1.610  -0.355  1.00  0.00     0.155 A
HETATM    7  C4  UNL     1       1.025   0.294  -0.808  1.00  0.00     0.155 A
HETATM    8  N3  UNL     1      -0.152  -0.254  -0.463  1.00  0.00    -0.336 N
ATOM      9  H3  UNL     1      -0.425  -1.219  -0.652  1.00  0.00     0.168 HD
HETATM   10  C5  UNL     1      -0.926   0.664   0.173  1.00  0.00     0.191 A
HETATM   11  N4  UNL     1      -0.239   1.816   0.241  1.00  0.00    -0.296 N
HETATM   12  N9  UNL     1       2.111  -0.190  -1.445  1.00  0.00    -0.174 N
ATOM     13  H9  UNL     1       2.138  -1.157  -1.768  1.00  0.00     0.186 HD
ENDROOT
BRANCH  11  14
HETATM   14  C6  UNL     1      -0.619   3.059   0.834  1.00  0.00     0.192 C
BRANCH  14  15
HETATM   15  N5  UNL     1      -0.986   2.983   2.213  1.00  0.00    -0.320 N
HETATM   16  C7  UNL     1      -0.925   4.029   3.160  1.00  0.00     0.270 C
HETATM   17  O2  UNL     1      -0.526   5.155   2.835  1.00  0.00    -0.269 OA
ATOM     18  H5  UNL     1      -1.325   2.081   2.548  1.00  0.00     0.169 HD
BRANCH  16  19
HETATM   19  C8  UNL     1      -1.340   3.804   4.567  1.00  0.00     0.386 C
BRANCH  19  20
HETATM   20  N6  UNL     1      -2.727   4.190   4.672  1.00  0.00    -0.051 N
ATOM     21  H63 UNL     1      -2.902   5.140   4.344  1.00  0.00     0.276 HD
ATOM     22  H62 UNL     1      -3.328   3.707   4.003  1.00  0.00     0.276 HD
ATOM     23  H61 UNL     1      -3.009   4.044   5.640  1.00  0.00     0.276 HD
ENDBRANCH  19  20
BRANCH  19  24
HETATM   24  N7  UNL     1      -0.484   4.579   5.435  1.00  0.00    -0.105 NA
BRANCH  24  25
HETATM   25  N8  UNL     1      -1.136   5.732   5.841  1.00  0.00    -0.346 N
ATOM     26  H82 UNL     1      -2.054   6.020   5.502  1.00  0.00     0.172 HD
ATOM     27  H81 UNL     1      -0.565   6.238   6.518  1.00  0.00     0.172 HD
ENDBRANCH  24  25
ENDBRANCH  19  24
ENDBRANCH  16  19
ENDBRANCH  14  15
ENDBRANCH  11  14
BRANCH   1  28
HETATM   28  N1  UNL     1       4.229   0.212  -2.254  1.00  0.00    -0.234 N
ATOM     29  H12 UNL     1       5.089   0.028  -1.739  1.00  0.00     0.174 HD
ATOM     30  H11 UNL     1       4.194   0.075  -3.264  1.00  0.00     0.174 HD
ENDBRANCH   1  28
TORSDOF 7
ENDMDL