MODEL 5
REMARK VINA RESULT: -4.687281064      1.988      4.322
REMARK  8 active torsions:
REMARK  status: ('A' for Active; 'I' for Inactive)
REMARK    1  A    between atoms: C4_5  and  N2_6
REMARK    2  A    between atoms: C5_11  and  N4_12
REMARK    3  A    between atoms: N5_15  and  C6_16
REMARK    4  A    between atoms: C6_16  and  N6_17
REMARK    5  A    between atoms: N7_21  and  N8_22
REMARK    6  A    between atoms: N9_25  and  C7_26
REMARK    7  A    between atoms: C7_26  and  C8_27
REMARK    8  A    between atoms: C8_27  and  C9_28
ROOT
HETATM    1  C1  UNL     1       6.864  -0.083  -4.653  1.00  0.00     0.177 C
HETATM    2  N1  UNL     1       6.012   0.754  -3.856  1.00  0.00    -0.169 N
HETATM    3  C2  UNL     1       5.565   0.326  -2.690  1.00  0.00     0.174 A
HETATM    4  C3  UNL     1       4.760   1.135  -1.897  1.00  0.00     0.141 A
HETATM    5  C4  UNL     1       4.412   2.385  -2.306  1.00  0.00     0.146 A
HETATM    6  N3  UNL     1       4.900   2.788  -3.530  1.00  0.00    -0.175 N
ATOM      7  H3  UNL     1       4.662   3.718  -3.875  1.00  0.00     0.186 HD
HETATM    8  C5  UNL     1       5.669   2.004  -4.272  1.00  0.00     0.681 A
HETATM    9  N5  UNL     1       4.498   0.400  -0.706  1.00  0.00    -0.241 N
HETATM   10  N7  UNL     1       5.395  -0.650  -0.663  1.00  0.00    -0.035 NA
HETATM   11  N9  UNL     1       5.726  -0.910  -2.036  1.00  0.00    -0.234 N
ENDROOT
BRANCH   9  12
HETATM   12  C6  UNL     1       3.519   0.689   0.288  1.00  0.00     0.376 C
BRANCH  12  13
HETATM   13  N6  UNL     1       2.152   0.717  -0.196  1.00  0.00    -0.062 N
ATOM     14  H63 UNL     1       1.907   1.658  -0.505  1.00  0.00     0.276 HD
ATOM     15  H62 UNL     1       2.081   0.217  -1.082  1.00  0.00     0.276 HD
ATOM     16  H61 UNL     1       1.458   0.369   0.464  1.00  0.00     0.276 HD
ENDBRANCH  12  13
ENDBRANCH   9  12
BRANCH  10  17
HETATM   17  N8  UNL     1       4.850  -1.734  -0.069  1.00  0.00    -0.327 NA
ATOM     18  H82 UNL     1       5.439  -2.082   0.689  1.00  0.00     0.174 HD
ATOM     19  H81 UNL     1       4.774  -2.514  -0.722  1.00  0.00     0.174 HD
ENDBRANCH  10  17
BRANCH   5  20
HETATM   20  N2  UNL     1       3.675   3.169  -1.649  1.00  0.00    -0.383 N
ATOM     21  H22 UNL     1       3.302   2.865  -0.749  1.00  0.00     0.157 HD
ATOM     22  H21 UNL     1       3.424   4.110  -1.950  1.00  0.00     0.157 HD
ENDBRANCH   5  20
BRANCH  11  23
HETATM   23  C7  UNL     1       6.075  -2.177  -2.492  1.00  0.00     0.098 C
BRANCH  23  24
HETATM   24  C8  UNL     1       4.862  -3.056  -2.800  1.00  0.00     0.145 C
BRANCH  24  25
HETATM   25  C9  UNL     1       3.986  -2.368  -3.813  1.00  0.00     0.235 C
HETATM   26  N10 UNL     1       4.250  -2.521  -5.201  1.00  0.00    -0.062 NA
HETATM   27  O1  UNL     1       3.023  -1.661  -3.422  1.00  0.00    -0.277 OA
ENDBRANCH  24  25
ENDBRANCH  23  24
ENDBRANCH  11  23
BRANCH   8  28
HETATM   28  N4  UNL     1       6.136   2.389  -5.440  1.00  0.00    -0.234 N
ATOM     29  H42 UNL     1       6.969   2.972  -5.523  1.00  0.00     0.174 HD
ATOM     30  H41 UNL     1       5.623   2.079  -6.266  1.00  0.00     0.174 HD
ENDBRANCH   8  28
TORSDOF 8
ENDMDL