MODEL 2
REMARK VINA RESULT: -7.520127344      2.863      7.746
REMARK  8 active torsions:
REMARK  status: ('A' for Active; 'I' for Inactive)
REMARK    1  A    between atoms: N1_1  and  C1_4
REMARK    2  A    between atoms: C2_7  and  N3_8
REMARK    3  A    between atoms: N3_8  and  N4_10
REMARK    4  A    between atoms: N4_10  and  C3_11
REMARK    5  A    between atoms: C3_11  and  N5_12
REMARK    6  A    between atoms: C3_11  and  C4_16
REMARK    7  A    between atoms: C4_16  and  N6_17
REMARK    8  A    between atoms: C6_23  and  O1_24
ROOT
HETATM    1  N4  UNL     1      -1.870   3.222   3.349  1.00  0.00    -0.105 NA
ENDROOT
BRANCH   1   2
HETATM    2  N3  UNL     1      -1.528   3.437   2.009  1.00  0.00    -0.287 N
ATOM      3  H3  UNL     1      -1.634   4.374   1.619  1.00  0.00     0.184 HD
BRANCH   2   4
HETATM    4  C2  UNL     1      -1.037   2.398   1.172  1.00  0.00     0.137 A
HETATM    5  N2  UNL     1       0.128   2.488   0.508  1.00  0.00    -0.176 N
HETATM    6  C1  UNL     1       0.590   1.505  -0.283  1.00  0.00     0.680 A
ATOM      7  H2  UNL     1       0.684   3.337   0.609  1.00  0.00     0.186 HD
HETATM    8  N9  UNL     1      -0.119   0.376  -0.435  1.00  0.00    -0.156 N
HETATM    9  C8  UNL     1      -1.303   0.200   0.197  1.00  0.00     0.263 A
ATOM     10  H9  UNL     1       0.241  -0.363  -1.038  1.00  0.00     0.187 HD
HETATM   11  C7  UNL     1      -1.754   1.233   1.006  1.00  0.00     0.124 A
HETATM   12  O2  UNL     1      -1.983  -0.861   0.061  1.00  0.00    -0.268 OA
BRANCH   6  13
HETATM   13  N1  UNL     1       1.708   1.607  -0.912  1.00  0.00    -0.234 N
ATOM     14  H12 UNL     1       2.143   2.527  -0.972  1.00  0.00     0.174 HD
ATOM     15  H11 UNL     1       2.160   0.800  -1.343  1.00  0.00     0.174 HD
ENDBRANCH   6  13
ENDBRANCH   2   4
ENDBRANCH   1   2
BRANCH   1  16
HETATM   16  C3  UNL     1      -1.153   4.168   4.152  1.00  0.00     0.315 C
BRANCH  16  17
HETATM   17  N5  UNL     1      -0.530   3.527   5.267  1.00  0.00    -0.058 N
ATOM     18  H53 UNL     1      -0.306   2.553   5.063  1.00  0.00     0.276 HD
ATOM     19  H52 UNL     1       0.416   3.876   5.421  1.00  0.00     0.276 HD
ATOM     20  H51 UNL     1      -1.103   3.613   6.106  1.00  0.00     0.276 HD
ENDBRANCH  16  17
BRANCH  16  21
HETATM   21  C4  UNL     1      -1.983   5.365   4.542  1.00  0.00     0.204 C
BRANCH  21  22
HETATM   22  N6  UNL     1      -2.590   5.261   5.824  1.00  0.00    -0.252 N
HETATM   23  N7  UNL     1      -2.279   5.969   6.893  1.00  0.00    -0.239 N
HETATM   24  N8  UNL     1      -3.032   5.628   7.926  1.00  0.00    -0.293 N
ATOM     25  H7  UNL     1      -1.553   6.686   6.919  1.00  0.00     0.208 HD
HETATM   26  C5  UNL     1      -3.857   4.658   7.489  1.00  0.00     0.166 A
ATOM     27  H8  UNL     1      -2.995   6.022   8.866  1.00  0.00     0.187 HD
HETATM   28  C6  UNL     1      -3.582   4.420   6.156  1.00  0.00     0.175 A
BRANCH  28  29
HETATM   29  O1  UNL     1      -4.256   3.476   5.397  1.00  0.00    -0.344 OA
ATOM     30  H1  UNL     1      -4.284   2.529   5.470  1.00  0.00     0.219 HD
ENDBRANCH  28  29
ENDBRANCH  21  22
ENDBRANCH  16  21
ENDBRANCH   1  16
TORSDOF 8
ENDMDL