MODEL 5
REMARK VINA RESULT: -6.266356943      3.544      5.673
REMARK  9 active torsions:
REMARK  status: ('A' for Active; 'I' for Inactive)
REMARK    1  A    between atoms: O1_2  and  C2_3
REMARK    2  A    between atoms: C2_3  and  C3_5
REMARK    3  A    between atoms: C3_5  and  N1_6
REMARK    4  A    between atoms: C3_5  and  C4_10
REMARK    5  A    between atoms: C5_13  and  C6_14
REMARK       I    between atoms: C6_14  and  N3_16
REMARK    6  A    between atoms: N3_16  and  N4_18
REMARK    7  A    between atoms: C7_21  and  N5_22
REMARK    8  A    between atoms: N5_22  and  N6_24
REMARK    9  A    between atoms: C8_29  and  N8_30
ROOT
HETATM    1  C4  UNL     1      -1.903   4.209   4.547  1.00  0.00     0.094 A
HETATM    2  N2  UNL     1      -1.921   3.170   3.657  1.00  0.00    -0.347 N
ATOM      3  H2  UNL     1      -2.459   2.338   3.900  1.00  0.00     0.166 HD
HETATM    4  C5  UNL     1      -1.268   3.184   2.477  1.00  0.00     0.148 A
HETATM    5  C7  UNL     1      -0.535   4.287   2.117  1.00  0.00     0.154 A
HETATM    6  N7  UNL     1      -0.507   5.307   2.968  1.00  0.00    -0.324 N
ATOM      7  H7  UNL     1       0.033   6.134   2.716  1.00  0.00     0.169 HD
HETATM    8  C8  UNL     1      -1.169   5.301   4.171  1.00  0.00     0.126 A
ENDROOT
BRANCH   1   9
HETATM    9  C3  UNL     1      -2.655   4.099   5.834  1.00  0.00     0.335 C
BRANCH   9  10
HETATM   10  C2  UNL     1      -3.813   4.967   5.978  1.00  0.00     0.295 C
HETATM   11  O2  UNL     1      -4.260   5.570   4.974  1.00  0.00    -0.262 OA
BRANCH  10  12
HETATM   12  O1  UNL     1      -4.436   5.159   7.185  1.00  0.00    -0.325 OA
HETATM   13  C1  UNL     1      -4.253   6.320   7.990  1.00  0.00     0.213 C
ENDBRANCH  10  12
ENDBRANCH   9  10
BRANCH   9  14
HETATM   14  N1  UNL     1      -1.628   4.508   6.850  1.00  0.00    -0.060 N
ATOM     15  H13 UNL     1      -1.980   5.207   7.504  1.00  0.00     0.275 HD
ATOM     16  H12 UNL     1      -1.432   3.772   7.527  1.00  0.00     0.275 HD
ATOM     17  H11 UNL     1      -0.793   4.819   6.354  1.00  0.00     0.275 HD
ENDBRANCH   9  14
ENDBRANCH   1   9
BRANCH   8  18
HETATM   18  N8  UNL     1      -1.092   6.337   4.923  1.00  0.00    -0.384 N
ATOM     19  H82 UNL     1      -0.175   6.746   5.103  1.00  0.00     0.157 HD
ATOM     20  H81 UNL     1      -1.929   6.754   5.330  1.00  0.00     0.157 HD
ENDBRANCH   8  18
BRANCH   4  21
HETATM   21  C6  UNL     1      -1.325   2.050   1.559  1.00  0.00     0.290 C
HETATM   22  O3  UNL     1      -2.488   1.655   1.205  1.00  0.00    -0.264 OA
HETATM   23  N3  UNL     1      -0.196   1.395   1.061  1.00  0.00    -0.271 N
ATOM     24  H3  UNL     1       0.733   1.711   1.341  1.00  0.00     0.189 HD
BRANCH  23  25
HETATM   25  N4  UNL     1      -0.316   0.322   0.192  1.00  0.00    -0.342 N
ATOM     26  H42 UNL     1      -0.215  -0.622   0.568  1.00  0.00     0.176 HD
ATOM     27  H41 UNL     1      -0.500   0.466  -0.800  1.00  0.00     0.176 HD
ENDBRANCH  23  25
ENDBRANCH   4  21
BRANCH   5  28
HETATM   28  N5  UNL     1       0.203   4.394   0.898  1.00  0.00    -0.290 N
ATOM     29  H5  UNL     1      -0.269   4.157   0.026  1.00  0.00     0.188 HD
BRANCH  28  30
HETATM   30  N6  UNL     1       1.530   4.803   0.838  1.00  0.00    -0.344 N
ATOM     31  H62 UNL     1       2.235   4.081   0.691  1.00  0.00     0.176 HD
ATOM     32  H61 UNL     1       1.824   5.776   0.932  1.00  0.00     0.176 HD
ENDBRANCH  28  30
ENDBRANCH   5  28
TORSDOF 9
ENDMDL