MODEL 5
REMARK VINA RESULT: -1.108702775      1.725      3.022
REMARK  1 active torsions:
REMARK  status: ('A' for Active; 'I' for Inactive)
REMARK    1  A    between atoms: C6_7  and  O1_8
ROOT
HETATM    1  C1  UNL     1     -69.623  19.246 -15.638  1.00  0.00     0.277 C
HETATM    2  N1  UNL     1     -68.396  18.900 -16.300  1.00  0.00    -0.021 N
HETATM    3  C2  UNL     1     -68.615  18.798 -17.745  1.00  0.00     0.244 C
HETATM    4  C3  UNL     1     -67.262  18.934 -18.448  1.00  0.00     0.061 C
HETATM    5  C4  UNL     1     -66.260  18.276 -17.491  1.00  0.00     0.193 C
HETATM    6  C5  UNL     1     -66.034  19.295 -16.378  1.00  0.00     0.094 C
HETATM    7  C6  UNL     1     -67.387  19.927 -16.087  1.00  0.00     0.326 C
HETATM    8  N2  UNL     1     -66.990  17.148 -16.923  1.00  0.00    -0.046 N
ATOM      9  H21 UNL     1     -66.364  16.410 -16.602  1.00  0.00     0.279 HD
ATOM     10  H22 UNL     1     -67.491  16.618 -17.636  1.00  0.00     0.279 HD
HETATM   11  C7  UNL     1     -67.871  17.608 -15.873  1.00  0.00     0.471 C
ENDROOT
BRANCH   7  12
HETATM   12  O1  UNL     1     -67.445  20.426 -14.777  1.00  0.00    -0.369 OA
ATOM     13  H1  UNL     1     -68.055  21.152 -14.716  1.00  0.00     0.212 HD
ENDBRANCH   7  12
TORSDOF 1
ENDMDL