MODEL 3
REMARK VINA RESULT: -2.751649340      1.378      2.027
REMARK  2 active torsions:
REMARK  status: ('A' for Active; 'I' for Inactive)
REMARK    1  A    between atoms: O1_1  and  C1_3
REMARK    2  A    between atoms: C8_10  and  O2_11
ROOT
HETATM    1  C1  UNL     1     -66.629  17.526 -16.828  1.00  0.00     0.151 C
HETATM    2  C2  UNL     1     -66.617  18.579 -15.738  1.00  0.00     0.017 C
HETATM    3  C3  UNL     1     -67.824  18.328 -14.855  1.00  0.00     0.007 C
HETATM    4  C4  UNL     1     -69.037  19.084 -15.279  1.00  0.00     0.001 C
HETATM    5  C5  UNL     1     -69.193  19.254 -16.749  1.00  0.00     0.007 C
HETATM    6  C6  UNL     1     -67.884  19.480 -17.478  1.00  0.00     0.017 C
HETATM    7  C7  UNL     1     -66.877  19.906 -16.427  1.00  0.00     0.014 C
HETATM    8  C8  UNL     1     -67.423  18.107 -17.960  1.00  0.00     0.151 C
ENDROOT
BRANCH   1   9
HETATM    9  O1  UNL     1     -67.132  16.311 -16.387  1.00  0.00    -0.393 OA
ATOM     10  H1  UNL     1     -66.493  15.611 -16.441  1.00  0.00     0.210 HD
ENDBRANCH   1   9
BRANCH   8  11
HETATM   11  O2  UNL     1     -66.658  18.189 -19.111  1.00  0.00    -0.393 OA
ATOM     12  H2  UNL     1     -66.198  17.374 -19.273  1.00  0.00     0.210 HD
ENDBRANCH   8  11
TORSDOF 2
ENDMDL