MODEL 4
REMARK VINA RESULT: -3.620563752      1.213      1.798
REMARK  2 active torsions:
REMARK  status: ('A' for Active; 'I' for Inactive)
REMARK    1  A    between atoms: C2_2  and  O1_3
REMARK    2  A    between atoms: C3_5  and  O2_6
ROOT
HETATM    1  C1  UNL     1     -66.704  17.216 -17.122  1.00  0.00     0.049 C
HETATM    2  C2  UNL     1     -66.815  18.599 -16.561  1.00  0.00     0.084 C
HETATM    3  C3  UNL     1     -67.692  19.444 -17.442  1.00  0.00     0.152 C
HETATM    4  C4  UNL     1     -69.114  19.355 -16.965  1.00  0.00     0.039 C
HETATM    5  C5  UNL     1     -69.156  19.453 -15.464  1.00  0.00    -0.011 C
HETATM    6  C6  UNL     1     -68.672  18.087 -14.952  1.00  0.00     0.012 C
HETATM    7  C7  UNL     1     -67.267  18.621 -15.118  1.00  0.00     0.023 C
HETATM    8  C8  UNL     1     -67.864  20.015 -14.887  1.00  0.00     0.012 C
ENDROOT
BRANCH   2   9
HETATM    9  O1  UNL     1     -65.536  19.183 -16.581  1.00  0.00    -0.387 OA
ATOM     10  H1  UNL     1     -65.552  19.909 -17.195  1.00  0.00     0.210 HD
ENDBRANCH   2   9
BRANCH   3  11
HETATM   11  O2  UNL     1     -67.547  18.978 -18.759  1.00  0.00    -0.393 OA
ATOM     12  H2  UNL     1     -68.163  19.455 -19.302  1.00  0.00     0.210 HD
ENDBRANCH   3  11
TORSDOF 2
ENDMDL