MODEL 5
REMARK VINA RESULT: -2.914135572      1.797      3.279
REMARK  3 active torsions:
REMARK  status: ('A' for Active; 'I' for Inactive)
REMARK    1  A    between atoms: O1_1  and  C1_3
REMARK    2  A    between atoms: C1_3  and  C2_4
REMARK    3  A    between atoms: C5_7  and  O2_8
ROOT
HETATM    1  C2  UNL     1     -67.729  18.193 -15.701  1.00  0.00    -0.005 A
HETATM    2  C3  UNL     1     -66.747  19.077 -16.357  1.00  0.00    -0.000 C
HETATM    3  C4  UNL     1     -66.970  20.459 -15.733  1.00  0.00     0.037 C
HETATM    4  C5  UNL     1     -68.221  20.350 -14.919  1.00  0.00     0.123 C
HETATM    5  C6  UNL     1     -68.854  19.035 -15.325  1.00  0.00     0.031 A
HETATM    6  C7  UNL     1     -68.773  18.683 -16.742  1.00  0.00     0.005 A
HETATM    7  C8  UNL     1     -67.601  18.987 -17.614  1.00  0.00     0.011 C
ENDROOT
BRANCH   1   8
HETATM    8  C1  UNL     1     -67.634  16.737 -15.612  1.00  0.00     0.175 C
BRANCH   8   9
HETATM    9  O1  UNL     1     -67.947  16.233 -14.360  1.00  0.00    -0.400 OA
ATOM     10  H1  UNL     1     -67.578  16.734 -13.642  1.00  0.00     0.209 HD
ENDBRANCH   8   9
ENDBRANCH   1   8
BRANCH   4  11
HETATM   11  O2  UNL     1     -69.104  21.411 -15.120  1.00  0.00    -0.395 OA
ATOM     12  H2  UNL     1     -69.288  21.580 -16.036  1.00  0.00     0.210 HD
ENDBRANCH   4  11
TORSDOF 3
ENDMDL