MODEL 5
REMARK VINA RESULT: -1.176647277      3.573      4.958
REMARK  2 active torsions:
REMARK  status: ('A' for Active; 'I' for Inactive)
REMARK       I    between atoms: N1_2  and  C2_4
REMARK    1  A    between atoms: N3_6  and  O1_8
REMARK    2  A    between atoms: O1_8  and  C3_9
ROOT
HETATM    1  C1  UNL     1     -68.913  14.201 -12.186  1.00  0.00     0.148 C
HETATM    2  N1  UNL     1     -68.519  15.507 -12.690  1.00  0.00    -0.367 N
ATOM      3  H1  UNL     1     -68.538  16.309 -12.060  1.00  0.00     0.161 HD
HETATM    4  C2  UNL     1     -68.107  15.699 -14.046  1.00  0.00     0.207 C
HETATM    5  N2  UNL     1     -67.661  14.570 -14.786  1.00  0.00    -0.062 NA
HETATM    6  N3  UNL     1     -68.163  16.877 -14.515  1.00  0.00    -0.238 N
ATOM      7  H3  UNL     1     -68.500  17.617 -13.900  1.00  0.00     0.197 HD
ENDROOT
BRANCH   6   8
HETATM    8  O1  UNL     1     -67.804  17.223 -15.794  1.00  0.00    -0.268 OA
BRANCH   8   9
HETATM    9  C3  UNL     1     -67.910  18.562 -16.243  1.00  0.00     0.078 C
HETATM   10  C4  UNL     1     -69.213  19.156 -15.778  1.00  0.00     0.048 C
HETATM   11  C5  UNL     1     -66.715  19.328 -15.722  1.00  0.00     0.048 C
HETATM   12  C6  UNL     1     -67.831  18.578 -17.763  1.00  0.00     0.048 C
ENDBRANCH   8   9
ENDBRANCH   6   8
TORSDOF 2
ENDMDL