MODEL 4
REMARK VINA RESULT: -2.141895179      1.352      2.288
REMARK  2 active torsions:
REMARK  status: ('A' for Active; 'I' for Inactive)
REMARK    1  A    between atoms: N1_1  and  C1_5
REMARK    2  A    between atoms: C7_11  and  O1_12
ROOT
HETATM    1  C1  UNL     1     -67.366  18.110 -17.019  1.00  0.00     0.149 C
HETATM    2  C2  UNL     1     -67.495  17.037 -15.951  1.00  0.00     0.042 C
HETATM    3  C3  UNL     1     -68.480  17.625 -14.953  1.00  0.00     0.007 C
HETATM    4  C4  UNL     1     -68.979  18.911 -15.529  1.00  0.00    -0.012 C
HETATM    5  C5  UNL     1     -68.086  20.096 -15.173  1.00  0.00     0.007 C
HETATM    6  C6  UNL     1     -66.642  19.679 -15.210  1.00  0.00     0.034 C
HETATM    7  C7  UNL     1     -66.344  19.122 -16.573  1.00  0.00     0.153 C
HETATM    8  C8  UNL     1     -68.765  18.679 -17.030  1.00  0.00     0.046 C
ENDROOT
BRANCH   1   9
HETATM    9  N1  UNL     1     -67.017  17.587 -18.303  1.00  0.00    -0.068 N
ATOM     10  H13 UNL     1     -66.220  16.955 -18.233  1.00  0.00     0.275 HD
ATOM     11  H12 UNL     1     -67.724  16.928 -18.631  1.00  0.00     0.275 HD
ATOM     12  H11 UNL     1     -66.846  18.313 -18.999  1.00  0.00     0.275 HD
ENDBRANCH   1   9
BRANCH   7  13
HETATM   13  O1  UNL     1     -66.150  20.094 -17.537  1.00  0.00    -0.393 OA
ATOM     14  H1  UNL     1     -66.266  20.965 -17.175  1.00  0.00     0.210 HD
ENDBRANCH   7  13
TORSDOF 2
ENDMDL