MODEL 5
REMARK VINA RESULT: -2.900965404      1.582      1.823
REMARK  2 active torsions:
REMARK  status: ('A' for Active; 'I' for Inactive)
REMARK    1  A    between atoms: O1_1  and  C1_3
REMARK    2  A    between atoms: C5_7  and  O2_8
ROOT
HETATM    1  C1  UNL     1     -66.633  18.971 -17.169  1.00  0.00     0.122 C
HETATM    2  C2  UNL     1     -67.813  18.003 -17.144  1.00  0.00     0.065 C
HETATM    3  C3  UNL     1     -68.456  18.065 -15.790  1.00  0.00     0.191 C
HETATM    4  C4  UNL     1     -69.479  19.162 -15.661  1.00  0.00     0.067 C
HETATM    5  C5  UNL     1     -68.829  20.185 -14.743  1.00  0.00     0.150 C
HETATM    6  C6  UNL     1     -67.351  19.867 -15.016  1.00  0.00     0.217 C
HETATM    7  C7  UNL     1     -67.097  20.229 -16.453  1.00  0.00     0.067 C
HETATM    8  N1  UNL     1     -67.404  18.405 -14.832  1.00  0.00    -0.064 N
ATOM      9  H11 UNL     1     -66.519  17.911 -14.950  1.00  0.00     0.278 HD
ATOM     10  H12 UNL     1     -67.551  18.082 -13.876  1.00  0.00     0.278 HD
ENDROOT
BRANCH   1  11
HETATM   11  O1  UNL     1     -65.542  18.485 -16.477  1.00  0.00    -0.395 OA
ATOM     12  H1  UNL     1     -64.836  19.118 -16.426  1.00  0.00     0.210 HD
ENDBRANCH   1  11
BRANCH   5  13
HETATM   13  O2  UNL     1     -69.126  21.485 -15.109  1.00  0.00    -0.393 OA
ATOM     14  H2  UNL     1     -69.212  21.584 -16.050  1.00  0.00     0.210 HD
ENDBRANCH   5  13
TORSDOF 2
ENDMDL