MODEL 3
REMARK VINA RESULT: 0.186943830      1.904      3.346
REMARK  1 active torsions:
REMARK  status: ('A' for Active; 'I' for Inactive)
REMARK    1  A    between atoms: C8_12  and  O1_13
ROOT
HETATM    1  C1  UNL     1     -69.043  21.943 -14.681  1.00  0.00     0.012 C
HETATM    2  C2  UNL     1     -68.634  20.852 -14.978  1.00  0.00    -0.106 C
HETATM    3  C3  UNL     1     -68.125  19.558 -15.336  1.00  0.00     0.149 C
HETATM    4  C4  UNL     1     -68.748  18.419 -14.556  1.00  0.00     0.256 C
HETATM    5  N1  UNL     1     -67.930  17.250 -14.833  1.00  0.00    -0.042 N
ATOM      6  H11 UNL     1     -68.282  16.438 -14.326  1.00  0.00     0.279 HD
ATOM      7  H12 UNL     1     -67.014  17.343 -14.395  1.00  0.00     0.279 HD
HETATM    8  C5  UNL     1     -67.794  16.953 -16.214  1.00  0.00     0.418 C
HETATM    9  C6  UNL     1     -66.694  15.935 -16.395  1.00  0.00     0.074 C
HETATM   10  N2  UNL     1     -67.547  18.051 -17.074  1.00  0.00     0.144 N
HETATM   11  C7  UNL     1     -66.167  18.479 -17.123  1.00  0.00     0.316 C
HETATM   12  C8  UNL     1     -68.381  19.214 -16.808  1.00  0.00     0.376 C
ENDROOT
BRANCH  12  13
HETATM   13  O1  UNL     1     -68.033  20.248 -17.642  1.00  0.00    -0.367 OA
ATOM     14  H1  UNL     1     -67.101  20.252 -17.829  1.00  0.00     0.212 HD
ENDBRANCH  12  13
TORSDOF 1
ENDMDL