MODEL 4
REMARK VINA RESULT: -2.473474236      2.307      3.462
REMARK  1 active torsions:
REMARK  status: ('A' for Active; 'I' for Inactive)
REMARK    1  A    between atoms: O1_1  and  C1_3
ROOT
HETATM    1  C1  UNL     1     -67.822  17.075 -15.990  1.00  0.00     0.124 C
HETATM    2  C2  UNL     1     -68.085  17.782 -14.704  1.00  0.00     0.032 C
HETATM    3  C3  UNL     1     -68.374  19.217 -14.760  1.00  0.00     0.003 C
HETATM    4  C4  UNL     1     -67.892  19.977 -15.940  1.00  0.00     0.007 C
HETATM    5  C5  UNL     1     -68.005  19.150 -17.162  1.00  0.00     0.019 C
HETATM    6  C6  UNL     1     -67.440  19.702 -18.406  1.00  0.00     0.237 C
HETATM    7  N1  UNL     1     -66.529  18.718 -18.973  1.00  0.00    -0.074 N
ATOM      8  H11 UNL     1     -65.545  18.977 -18.906  1.00  0.00     0.277 HD
ATOM      9  H12 UNL     1     -66.565  18.659 -19.991  1.00  0.00     0.277 HD
HETATM   10  C7  UNL     1     -66.862  17.454 -18.289  1.00  0.00     0.239 C
HETATM   11  C8  UNL     1     -67.069  17.953 -16.904  1.00  0.00     0.046 C
ENDROOT
BRANCH   1  12
HETATM   12  O1  UNL     1     -67.029  15.935 -15.731  1.00  0.00    -0.395 OA
ATOM     13  H1  UNL     1     -66.157  16.082 -16.080  1.00  0.00     0.210 HD
ENDBRANCH   1  12
TORSDOF 1
ENDMDL