MODEL 3
REMARK VINA RESULT: -2.011403729      0.915      4.847
REMARK  4 active torsions:
REMARK  status: ('A' for Active; 'I' for Inactive)
REMARK    1  A    between atoms: C2_2  and  O1_4
REMARK    2  A    between atoms: C2_2  and  C4_6
REMARK    3  A    between atoms: C5_7  and  C6_8
REMARK    4  A    between atoms: C6_8  and  O2_9
ROOT
HETATM    1  C4  UNL     1     -68.166  20.430 -15.409  1.00  0.00    -0.066 C
HETATM    2  C5  UNL     1     -67.476  19.669 -16.064  1.00  0.00    -0.065 C
ENDROOT
BRANCH   1   3
HETATM    3  C2  UNL     1     -68.976  21.360 -14.622  1.00  0.00     0.114 C
HETATM    4  C1  UNL     1     -70.422  21.287 -15.007  1.00  0.00     0.060 C
HETATM    5  C3  UNL     1     -68.390  22.749 -14.785  1.00  0.00     0.060 C
BRANCH   3   6
HETATM    6  O1  UNL     1     -68.882  21.063 -13.246  1.00  0.00    -0.378 OA
ATOM      7  H1  UNL     1     -68.369  20.268 -13.156  1.00  0.00     0.211 HD
ENDBRANCH   3   6
ENDBRANCH   1   3
BRANCH   2   8
HETATM    8  C6  UNL     1     -66.630  18.773 -16.859  1.00  0.00     0.121 A
HETATM    9  C7  UNL     1     -67.255  18.215 -18.078  1.00  0.00     0.055 A
HETATM   10  C8  UNL     1     -67.052  17.293 -16.929  1.00  0.00     0.055 A
BRANCH   8  11
HETATM   11  O2  UNL     1     -65.256  18.999 -16.827  1.00  0.00    -0.378 OA
ATOM     12  H2  UNL     1     -64.694  18.310 -17.162  1.00  0.00     0.211 HD
ENDBRANCH   8  11
ENDBRANCH   2   8
TORSDOF 4
ENDMDL