MODEL 4
REMARK VINA RESULT: -5.960570893      1.749      2.284
REMARK  4 active torsions:
REMARK  status: ('A' for Active; 'I' for Inactive)
REMARK    1  A    between atoms: S1_2  and  C2_3
REMARK    2  A    between atoms: C3_4  and  N1_5
REMARK    3  A    between atoms: N1_5  and  C4_7
REMARK    4  A    between atoms: C4_7  and  C6_9
REMARK       I    between atoms: C6_9  and  N2_11
ROOT
HETATM    1  N1  UNL     1     -21.620  -6.491  13.131  1.00  0.00    -0.370 N
ATOM      2  H1  UNL     1     -21.123  -7.370  12.981  1.00  0.00     0.161 HD
ENDROOT
BRANCH   1   3
HETATM    3  C3  UNL     1     -23.042  -6.511  13.345  1.00  0.00     0.088 A
HETATM    4  C2  UNL     1     -24.044  -6.505  12.406  1.00  0.00     0.040 A
HETATM    5  C13 UNL     1     -25.304  -6.526  12.853  1.00  0.00    -0.030 A
HETATM    6  C11 UNL     1     -25.496  -6.551  14.208  1.00  0.00    -0.012 A
HETATM    7  C14 UNL     1     -26.538  -6.527  11.966  1.00  0.00     0.050 C
HETATM    8  S3  UNL     1     -23.911  -6.545  14.818  1.00  0.00    -0.076 SA
HETATM    9  C12 UNL     1     -26.772  -6.577  15.005  1.00  0.00     0.057 C
BRANCH   4  10
HETATM   10  S1  UNL     1     -23.647  -6.471  10.622  1.00  0.00    -0.131 SA
HETATM   11  C1  UNL     1     -23.750  -8.117   9.916  1.00  0.00     0.095 C
ENDBRANCH   4  10
ENDBRANCH   1   3
BRANCH   1  12
HETATM   12  C4  UNL     1     -20.878  -5.241  13.125  1.00  0.00     0.170 C
HETATM   13  C5  UNL     1     -19.610  -5.364  13.926  1.00  0.00     0.042 C
BRANCH  12  14
HETATM   14  C6  UNL     1     -20.663  -4.763  11.727  1.00  0.00     0.242 C
HETATM   15  O1  UNL     1     -21.151  -3.623  11.378  1.00  0.00    -0.271 OA
HETATM   16  N2  UNL     1     -19.954  -5.457  10.724  1.00  0.00    -0.349 N
HETATM   17  C7  UNL     1     -19.851  -4.799   9.412  1.00  0.00     0.136 C
HETATM   18  C10 UNL     1     -19.308  -6.714  10.891  1.00  0.00     0.136 C
HETATM   19  C8  UNL     1     -20.448  -5.568   8.292  1.00  0.00     0.093 C
HETATM   20  S2  UNL     1     -20.044  -7.339   8.385  1.00  0.00    -0.166 SA
HETATM   21  C9  UNL     1     -20.034  -7.800  10.169  1.00  0.00     0.093 C
ENDBRANCH  12  14
ENDBRANCH   1  12
TORSDOF 4
ENDMDL