MODEL 2
REMARK VINA RESULT: -7.526917800      1.460      2.225
REMARK  4 active torsions:
REMARK  status: ('A' for Active; 'I' for Inactive)
REMARK    1  A    between atoms: C5_8  and  C6_9
REMARK       I    between atoms: C6_9  and  N2_11
REMARK    2  A    between atoms: N2_11  and  C7_13
REMARK    3  A    between atoms: C7_13  and  C8_14
REMARK    4  A    between atoms: C8_14  and  N3_15
ROOT
HETATM    1  C8  UNL     1     -20.665  -4.329  11.348  1.00  0.00     0.044 C
HETATM    2  C14 UNL     1     -21.340  -3.060  10.913  1.00  0.00     0.032 C
HETATM    3  C15 UNL     1     -20.578  -1.821  11.222  1.00  0.00     0.002 C
HETATM    4  C16 UNL     1     -19.816  -1.820  12.497  1.00  0.00     0.000 C
HETATM    5  C17 UNL     1     -19.163  -3.139  12.843  1.00  0.00     0.002 C
HETATM    6  C18 UNL     1     -20.268  -4.185  12.782  1.00  0.00     0.032 C
ENDROOT
BRANCH   1   7
HETATM    7  C7  UNL     1     -21.662  -5.454  11.232  1.00  0.00     0.153 C
BRANCH   7   8
HETATM    8  N2  UNL     1     -22.681  -5.412  12.287  1.00  0.00    -0.354 N
HETATM    9  C6  UNL     1     -23.648  -6.435  12.302  1.00  0.00     0.256 C
HETATM   10  O2  UNL     1     -23.589  -7.360  11.392  1.00  0.00    -0.268 OA
ATOM     11  H2  UNL     1     -22.688  -4.668  12.985  1.00  0.00     0.162 HD
BRANCH   9  12
HETATM   12  C5  UNL     1     -24.721  -6.571  13.242  1.00  0.00     0.087 A
HETATM   13  C2  UNL     1     -24.540  -6.772  14.629  1.00  0.00     0.047 A
HETATM   14  C1  UNL     1     -23.255  -6.865  15.354  1.00  0.00     0.071 C
HETATM   15  N1  UNL     1     -25.787  -6.855  15.108  1.00  0.00    -0.265 N
HETATM   16  O1  UNL     1     -26.652  -6.727  14.182  1.00  0.00    -0.242 OA
ATOM     17  H1  UNL     1     -26.015  -7.001  16.091  1.00  0.00     0.194 HD
HETATM   18  C3  UNL     1     -26.070  -6.548  12.992  1.00  0.00     0.090 A
HETATM   19  C4  UNL     1     -26.835  -6.372  11.731  1.00  0.00     0.080 C
ENDBRANCH   9  12
ENDBRANCH   7   8
ENDBRANCH   1   7
BRANCH   1  20
HETATM   20  N3  UNL     1     -19.513  -4.577  10.506  1.00  0.00    -0.395 N
HETATM   21  C9  UNL     1     -18.971  -5.888  10.605  1.00  0.00     0.118 C
HETATM   22  C10 UNL     1     -19.274  -6.731   9.357  1.00  0.00     0.027 C
HETATM   23  C11 UNL     1     -18.385  -6.152   8.258  1.00  0.00     0.081 C
HETATM   24  C12 UNL     1     -18.491  -4.671   8.381  1.00  0.00     0.144 C
HETATM   25  O3  UNL     1     -17.647  -4.010   7.808  1.00  0.00    -0.296 OA
HETATM   26  C13 UNL     1     -19.603  -4.068   9.182  1.00  0.00     0.196 C
ENDBRANCH   1  20
TORSDOF 4
ENDMDL