MODEL 1
REMARK VINA RESULT: -6.565471579      0.000      0.000
REMARK  4 active torsions:
REMARK  status: ('A' for Active; 'I' for Inactive)
REMARK    1  A    between atoms: S1_2  and  C2_3
REMARK    2  A    between atoms: C3_6  and  C4_7
REMARK       I    between atoms: C4_7  and  N2_9
REMARK    3  A    between atoms: N2_9  and  C5_11
REMARK    4  A    between atoms: N3_21  and  C15_22
ROOT
HETATM    1  C4  UNL     1     -21.331  -5.557  12.325  1.00  0.00     0.287 C
HETATM    2  O1  UNL     1     -21.292  -5.779  13.559  1.00  0.00    -0.264 OA
HETATM    3  N2  UNL     1     -20.800  -4.333  11.860  1.00  0.00    -0.349 N
ATOM      4  H2  UNL     1     -20.814  -4.115  10.863  1.00  0.00     0.163 HD
ENDROOT
BRANCH   1   5
HETATM    5  C3  UNL     1     -21.912  -6.541  11.398  1.00  0.00     0.194 A
HETATM    6  N1  UNL     1     -21.253  -7.484  10.693  1.00  0.00    -0.316 N
HETATM    7  C2  UNL     1     -22.128  -8.188   9.963  1.00  0.00     0.160 A
ATOM      8  H1  UNL     1     -20.245  -7.636  10.713  1.00  0.00     0.169 HD
HETATM    9  N4  UNL     1     -23.321  -7.658  10.237  1.00  0.00    -0.276 N
HETATM   10  N3  UNL     1     -23.201  -6.655  11.109  1.00  0.00    -0.266 N
ATOM     11  H4  UNL     1     -24.203  -7.975   9.835  1.00  0.00     0.189 HD
BRANCH   7  12
HETATM   12  S1  UNL     1     -21.861  -9.542   8.850  1.00  0.00    -0.097 SA
HETATM   13  C1  UNL     1     -21.935 -11.137   9.708  1.00  0.00     0.099 C
ENDBRANCH   7  12
BRANCH  10  14
HETATM   14  C15 UNL     1     -24.341  -5.899  11.584  1.00  0.00     0.102 C
HETATM   15  C16 UNL     1     -25.571  -6.759  11.451  1.00  0.00     0.034 C
HETATM   16  C17 UNL     1     -24.466  -4.650  10.733  1.00  0.00     0.034 C
ENDBRANCH  10  14
ENDBRANCH   1   5
BRANCH   3  17
HETATM   17  C5  UNL     1     -20.241  -3.396  12.797  1.00  0.00     0.093 C
HETATM   18  C6  UNL     1     -20.730  -2.005  12.466  1.00  0.00     0.009 C
HETATM   19  C7  UNL     1     -20.132  -0.971  13.361  1.00  0.00     0.011 C
HETATM   20  C11 UNL     1     -20.404  -1.692  11.043  1.00  0.00     0.011 C
HETATM   21  C8  UNL     1     -18.617  -1.019  13.192  1.00  0.00    -0.013 C
HETATM   22  C9  UNL     1     -18.311  -0.680  11.763  1.00  0.00     0.009 C
HETATM   23  C14 UNL     1     -18.157  -2.391  13.583  1.00  0.00     0.011 C
HETATM   24  C10 UNL     1     -18.903  -1.745  10.840  1.00  0.00    -0.013 C
HETATM   25  C12 UNL     1     -18.323  -3.064  11.237  1.00  0.00     0.011 C
HETATM   26  C13 UNL     1     -18.741  -3.423  12.650  1.00  0.00     0.009 C
ENDBRANCH   3  17
TORSDOF 4
ENDMDL