MODEL 5
REMARK VINA RESULT: -6.141714078      2.624      4.100
REMARK  6 active torsions:
REMARK  status: ('A' for Active; 'I' for Inactive)
REMARK    1  A    between atoms: C2_2  and  O1_3
REMARK    2  A    between atoms: O1_3  and  C3_4
REMARK       I    between atoms: C3_4  and  N1_6
REMARK    3  A    between atoms: N1_6  and  C4_8
REMARK    4  A    between atoms: C7_12  and  C8_13
REMARK    5  A    between atoms: C8_13  and  O4_15
REMARK    6  A    between atoms: O4_15  and  C9_16
ROOT
HETATM    1  C4  UNL     1     -22.366  -6.321  12.698  1.00  0.00     0.095 A
HETATM    2  S1  UNL     1     -22.852  -6.903  11.104  1.00  0.00    -0.073 SA
HETATM    3  C5  UNL     1     -21.344  -6.900  10.350  1.00  0.00     0.026 A
HETATM    4  C6  UNL     1     -20.487  -6.446  11.333  1.00  0.00    -0.021 A
HETATM    5  C7  UNL     1     -21.038  -6.146  12.535  1.00  0.00     0.080 A
HETATM    6  C11 UNL     1     -19.090  -6.421  10.792  1.00  0.00     0.077 C
HETATM    7  C12 UNL     1     -18.864  -7.865  10.288  1.00  0.00     0.316 C
HETATM    8  N2  UNL     1     -19.608  -8.031   9.063  1.00  0.00     0.014 N
HETATM    9  C13 UNL     1     -20.016  -9.441   8.998  1.00  0.00     0.356 C
HETATM   10  O5  UNL     1     -18.786  -7.808   8.012  1.00  0.00    -0.065 OA
HETATM   11  C14 UNL     1     -20.783  -7.240   8.986  1.00  0.00     0.358 C
ENDROOT
BRANCH   1  12
HETATM   12  N1  UNL     1     -23.349  -6.151  13.695  1.00  0.00    -0.296 N
HETATM   13  C3  UNL     1     -23.388  -6.540  15.020  1.00  0.00     0.365 C
HETATM   14  O2  UNL     1     -22.533  -7.191  15.609  1.00  0.00    -0.238 OA
ATOM     15  H1  UNL     1     -24.180  -5.650  13.382  1.00  0.00     0.171 HD
BRANCH  13  16
HETATM   16  O1  UNL     1     -24.501  -6.175  15.808  1.00  0.00    -0.304 OA
BRANCH  16  17
HETATM   17  C2  UNL     1     -25.690  -6.918  15.719  1.00  0.00     0.176 C
HETATM   18  C1  UNL     1     -26.632  -6.416  14.675  1.00  0.00     0.034 C
ENDBRANCH  16  17
ENDBRANCH  13  16
ENDBRANCH   1  12
BRANCH   5  19
HETATM   19  C8  UNL     1     -20.236  -5.373  13.515  1.00  0.00     0.296 C
HETATM   20  O3  UNL     1     -19.758  -5.933  14.560  1.00  0.00    -0.259 OA
BRANCH  19  21
HETATM   21  O4  UNL     1     -19.933  -4.059  13.389  1.00  0.00    -0.318 OA
BRANCH  21  22
HETATM   22  C9  UNL     1     -18.614  -3.553  13.420  1.00  0.00     0.174 C
HETATM   23  C10 UNL     1     -18.305  -2.952  12.065  1.00  0.00     0.034 C
ENDBRANCH  21  22
ENDBRANCH  19  21
ENDBRANCH   5  19
TORSDOF 6
ENDMDL