MODEL 2
REMARK VINA RESULT: -7.024975576      1.726      8.810
REMARK  4 active torsions:
REMARK  status: ('A' for Active; 'I' for Inactive)
REMARK    1  A    between atoms: C2_2  and  C4_4
REMARK    2  A    between atoms: C8_8  and  C9_9
REMARK       I    between atoms: C9_9  and  N1_11
REMARK    3  A    between atoms: C11_13  and  C12_14
REMARK       I    between atoms: C12_14  and  N2_16
REMARK    4  A    between atoms: N2_16  and  C13_18
ROOT
HETATM    1  C9  UNL     1     -23.740  -6.852  11.425  1.00  0.00     0.248 C
HETATM    2  O1  UNL     1     -23.971  -8.060  11.586  1.00  0.00    -0.271 OA
HETATM    3  N1  UNL     1     -22.847  -6.487  10.361  1.00  0.00    -0.218 N
HETATM    4  C10 UNL     1     -22.437  -5.269   9.987  1.00  0.00     0.158 A
HETATM    5  C11 UNL     1     -21.585  -5.377   8.912  1.00  0.00     0.134 A
HETATM    6  N3  UNL     1     -21.500  -6.692   8.658  1.00  0.00    -0.279 N
ATOM      7  H3  UNL     1     -20.946  -7.122   7.917  1.00  0.00     0.189 HD
HETATM    8  N4  UNL     1     -22.256  -7.332   9.527  1.00  0.00    -0.233 N
ATOM      9  H4  UNL     1     -22.371  -8.345   9.555  1.00  0.00     0.209 HD
ENDROOT
BRANCH   1  10
HETATM   10  C8  UNL     1     -24.294  -5.751  12.223  1.00  0.00     0.084 C
HETATM   11  C4  UNL     1     -25.200  -6.179  13.346  1.00  0.00     0.002 C
HETATM   12  C5  UNL     1     -26.338  -6.821  12.656  1.00  0.00     0.006 C
HETATM   13  C6  UNL     1     -26.399  -6.150  11.294  1.00  0.00     0.001 C
HETATM   14  C7  UNL     1     -25.340  -5.068  11.320  1.00  0.00     0.014 C
BRANCH  11  15
HETATM   15  C2  UNL     1     -24.528  -6.988  14.412  1.00  0.00    -0.018 C
HETATM   16  C1  UNL     1     -25.173  -6.887  15.747  1.00  0.00     0.010 C
HETATM   17  C3  UNL     1     -23.101  -6.482  14.515  1.00  0.00     0.010 C
ENDBRANCH  11  15
ENDBRANCH   1  10
BRANCH   5  18
HETATM   18  C12 UNL     1     -20.903  -4.319   8.176  1.00  0.00     0.271 C
HETATM   19  O2  UNL     1     -19.661  -4.378   7.960  1.00  0.00    -0.266 OA
HETATM   20  N2  UNL     1     -21.593  -3.189   7.674  1.00  0.00    -0.351 N
ATOM     21  H2  UNL     1     -22.598  -3.121   7.836  1.00  0.00     0.163 HD
BRANCH  20  22
HETATM   22  C13 UNL     1     -20.934  -2.128   6.941  1.00  0.00     0.084 C
HETATM   23  C14 UNL     1     -21.037  -2.310   5.456  1.00  0.00     0.025 C
HETATM   24  C15 UNL     1     -20.495  -1.088   4.768  1.00  0.00     0.002 C
HETATM   25  C16 UNL     1     -19.618  -0.329   5.703  1.00  0.00     0.000 C
HETATM   26  C17 UNL     1     -20.393   0.230   6.891  1.00  0.00     0.002 C
HETATM   27  C18 UNL     1     -21.483  -0.771   7.302  1.00  0.00     0.025 C
ENDBRANCH  20  22
ENDBRANCH   5  18
TORSDOF 4
ENDMDL