MODEL 1
REMARK VINA RESULT: -7.700397001      0.000      0.000
REMARK  5 active torsions:
REMARK  status: ('A' for Active; 'I' for Inactive)
REMARK    1  A    between atoms: O1_2  and  C2_3
REMARK    2  A    between atoms: C2_3  and  C3_5
REMARK    3  A    between atoms: C4_6  and  N1_7
REMARK       I    between atoms: N1_7  and  C5_9
REMARK    4  A    between atoms: C5_9  and  C6_11
REMARK    5  A    between atoms: C6_11  and  C7_12
ROOT
HETATM    1  C7  UNL     1     -24.932  -6.827  13.246  1.00  0.00     0.033 C
HETATM    2  C8  UNL     1     -24.215  -6.855  14.504  1.00  0.00     0.096 C
HETATM    3  N2  UNL     1     -23.658  -6.878  15.518  1.00  0.00    -0.192 NA
HETATM    4  C9  UNL     1     -26.232  -6.552  13.236  1.00  0.00    -0.070 C
HETATM    5  C10 UNL     1     -26.954  -6.527  11.940  1.00  0.00     0.044 C
HETATM    6  C11 UNL     1     -26.938  -6.274  14.512  1.00  0.00     0.044 C
ENDROOT
BRANCH   1   7
HETATM    7  C6  UNL     1     -24.207  -7.106  11.986  1.00  0.00     0.153 C
BRANCH   7   8
HETATM    8  C5  UNL     1     -23.192  -6.011  11.719  1.00  0.00     0.227 C
HETATM    9  N1  UNL     1     -22.167  -5.797  12.622  1.00  0.00    -0.320 N
ATOM     10  H1  UNL     1     -22.158  -6.447  13.407  1.00  0.00     0.169 HD
HETATM   11  O3  UNL     1     -23.374  -5.375  10.675  1.00  0.00    -0.273 OA
BRANCH   9  12
HETATM   12  C4  UNL     1     -21.114  -4.825  12.653  1.00  0.00     0.094 A
HETATM   13  C3  UNL     1     -20.052  -4.546  13.430  1.00  0.00     0.080 A
HETATM   14  C13 UNL     1     -19.436  -3.329  13.284  1.00  0.00    -0.026 A
HETATM   15  C12 UNL     1     -19.970  -2.494  12.327  1.00  0.00    -0.008 A
HETATM   16  C14 UNL     1     -18.250  -2.690  14.003  1.00  0.00     0.041 C
HETATM   17  S1  UNL     1     -21.247  -3.357  11.680  1.00  0.00    -0.075 SA
HETATM   18  C17 UNL     1     -19.382  -1.135  12.067  1.00  0.00     0.047 C
HETATM   19  C16 UNL     1     -17.895  -1.128  12.171  1.00  0.00     0.005 C
HETATM   20  C15 UNL     1     -17.303  -2.319  12.884  1.00  0.00     0.005 C
BRANCH  13  21
HETATM   21  C2  UNL     1     -19.379  -5.643  14.224  1.00  0.00     0.296 C
HETATM   22  O2  UNL     1     -18.656  -5.380  15.207  1.00  0.00    -0.259 OA
BRANCH  21  23
HETATM   23  O1  UNL     1     -19.499  -6.976  13.920  1.00  0.00    -0.322 OA
HETATM   24  C1  UNL     1     -18.967  -8.022  14.667  1.00  0.00     0.213 C
ENDBRANCH  21  23
ENDBRANCH  13  21
ENDBRANCH   9  12
ENDBRANCH   7   8
ENDBRANCH   1   7
TORSDOF 5
ENDMDL