MODEL 3
REMARK VINA RESULT: -6.775547833      1.226      1.673
REMARK  7 active torsions:
REMARK  status: ('A' for Active; 'I' for Inactive)
REMARK    1  A    between atoms: C2_2  and  O2_4
REMARK    2  A    between atoms: O2_4  and  C3_5
REMARK    3  A    between atoms: C3_5  and  C4_6
REMARK    4  A    between atoms: C4_6  and  C5_7
REMARK    5  A    between atoms: C5_7  and  C6_8
REMARK    6  A    between atoms: C17_21  and  C18_22
REMARK    7  A    between atoms: C18_22  and  O5_23
ROOT
HETATM    1  C6  UNL     1     -21.610  -5.526  11.707  1.00  0.00    -0.014 C
HETATM    2  C7  UNL     1     -22.401  -5.273  10.463  1.00  0.00     0.005 C
HETATM    3  C8  UNL     1     -22.265  -4.038   9.704  1.00  0.00     0.005 C
HETATM    4  C9  UNL     1     -21.045  -3.798   8.860  1.00  0.00    -0.009 C
HETATM    5  C10 UNL     1     -20.636  -2.346   8.881  1.00  0.00     0.031 C
HETATM    6  C11 UNL     1     -20.630  -1.675  10.167  1.00  0.00    -0.028 C
HETATM    7  C12 UNL     1     -19.980  -1.858  11.284  1.00  0.00     0.005 C
HETATM    8  C13 UNL     1     -18.982  -2.803  11.735  1.00  0.00     0.193 C
HETATM    9  O3  UNL     1     -17.853  -2.945  10.892  1.00  0.00    -0.230 OA
HETATM   10  O4  UNL     1     -18.258  -3.257   9.724  1.00  0.00    -0.235 OA
HETATM   11  C14 UNL     1     -18.730  -4.537   9.686  1.00  0.00     0.161 C
HETATM   12  C15 UNL     1     -19.954  -4.790   8.913  1.00  0.00     0.040 C
HETATM   13  C16 UNL     1     -18.752  -5.109  11.114  1.00  0.00     0.050 C
HETATM   14  C17 UNL     1     -19.456  -4.202  12.076  1.00  0.00     0.016 C
HETATM   15  C19 UNL     1     -20.903  -4.364  12.279  1.00  0.00     0.019 C
ENDROOT
BRANCH   1  16
HETATM   16  C5  UNL     1     -22.549  -6.153  12.722  1.00  0.00     0.007 C
BRANCH  16  17
HETATM   17  C4  UNL     1     -22.056  -6.207  14.120  1.00  0.00     0.027 C
BRANCH  17  18
HETATM   18  C3  UNL     1     -23.126  -6.981  14.906  1.00  0.00     0.178 C
BRANCH  18  19
HETATM   19  O2  UNL     1     -24.240  -6.217  15.230  1.00  0.00    -0.322 OA
BRANCH  19  20
HETATM   20  C2  UNL     1     -25.518  -6.648  15.481  1.00  0.00     0.254 C
HETATM   21  C1  UNL     1     -26.649  -6.488  14.531  1.00  0.00     0.126 C
HETATM   22  O1  UNL     1     -25.747  -7.213  16.578  1.00  0.00    -0.266 OA
ENDBRANCH  19  20
ENDBRANCH  18  19
ENDBRANCH  17  18
ENDBRANCH  16  17
ENDBRANCH   1  16
BRANCH  14  23
HETATM   23  C18 UNL     1     -18.773  -4.522  13.435  1.00  0.00     0.176 C
BRANCH  23  24
HETATM   24  O5  UNL     1     -17.706  -3.634  13.530  1.00  0.00    -0.400 OA
ATOM     25  H5  UNL     1     -17.911  -2.928  12.929  1.00  0.00     0.209 HD
ENDBRANCH  23  24
ENDBRANCH  14  23
TORSDOF 7
ENDMDL