MODEL 5
REMARK VINA RESULT: -6.515593943      3.392      7.023
REMARK  5 active torsions:
REMARK  status: ('A' for Active; 'I' for Inactive)
REMARK    1  A    between atoms: C2_2  and  C5_5
REMARK    2  A    between atoms: C6_6  and  C7_7
REMARK    3  A    between atoms: C7_7  and  C8_8
REMARK    4  A    between atoms: C8_8  and  C9_9
REMARK    5  A    between atoms: C10_12  and  N2_13
ROOT
HETATM    1  C9  UNL     1     -20.096  -4.940  12.234  1.00  0.00     0.053 A
HETATM    2  N1  UNL     1     -20.460  -4.468  11.027  1.00  0.00    -0.194 N
ATOM      3  H1  UNL     1     -21.102  -5.019  10.458  1.00  0.00     0.184 HD
HETATM    4  C10 UNL     1     -20.008  -3.296  10.544  1.00  0.00     0.683 A
HETATM    5  N3  UNL     1     -19.155  -2.565  11.302  1.00  0.00    -0.155 N
ATOM      6  H3  UNL     1     -18.817  -1.679  10.928  1.00  0.00     0.187 HD
HETATM    7  C15 UNL     1     -18.729  -2.943  12.517  1.00  0.00     0.282 A
HETATM    8  O1  UNL     1     -17.935  -2.270  13.231  1.00  0.00    -0.266 OA
HETATM    9  C16 UNL     1     -19.219  -4.164  12.983  1.00  0.00     0.136 A
HETATM   10  C17 UNL     1     -18.799  -4.641  14.270  1.00  0.00     0.107 C
HETATM   11  N4  UNL     1     -18.440  -5.014  15.308  1.00  0.00    -0.191 NA
ENDROOT
BRANCH   1  12
HETATM   12  C8  UNL     1     -20.543  -6.222  12.813  1.00  0.00     0.063 C
BRANCH  12  13
HETATM   13  C7  UNL     1     -21.857  -6.185  13.511  1.00  0.00     0.033 C
BRANCH  13  14
HETATM   14  C6  UNL     1     -22.914  -6.183  12.422  1.00  0.00    -0.029 C
HETATM   15  C5  UNL     1     -24.179  -6.317  12.721  1.00  0.00    -0.022 C
BRANCH  15  16
HETATM   16  C2  UNL     1     -25.346  -6.341  11.816  1.00  0.00    -0.034 C
HETATM   17  C1  UNL     1     -25.177  -7.508  10.831  1.00  0.00     0.018 C
HETATM   18  C3  UNL     1     -25.367  -5.072  10.950  1.00  0.00     0.018 C
HETATM   19  C4  UNL     1     -26.668  -6.428  12.504  1.00  0.00     0.018 C
ENDBRANCH  15  16
ENDBRANCH  13  14
ENDBRANCH  12  13
ENDBRANCH   1  12
BRANCH   4  20
HETATM   20  N2  UNL     1     -20.385  -2.796   9.269  1.00  0.00    -0.216 N
HETATM   21  C11 UNL     1     -21.472  -3.368   8.510  1.00  0.00     0.151 C
HETATM   22  C12 UNL     1     -20.902  -4.135   7.343  1.00  0.00     0.094 C
HETATM   23  S1  UNL     1     -19.998  -2.910   6.322  1.00  0.00    -0.166 SA
HETATM   24  C13 UNL     1     -19.855  -1.406   7.310  1.00  0.00     0.094 C
HETATM   25  C14 UNL     1     -19.620  -1.675   8.756  1.00  0.00     0.151 C
ENDBRANCH   4  20
TORSDOF 5
ENDMDL