MODEL 2
REMARK VINA RESULT: -7.304550127      1.773      2.371
REMARK  3 active torsions:
REMARK  status: ('A' for Active; 'I' for Inactive)
REMARK    1  A    between atoms: C6_10  and  C8_12
REMARK    2  A    between atoms: C8_12  and  N3_13
REMARK    3  A    between atoms: N3_13  and  C9_16
ROOT
HETATM    1  C1  UNL     1     -26.242  -6.545  11.550  1.00  0.00     0.070 C
HETATM    2  C2  UNL     1     -24.744  -6.480  11.370  1.00  0.00     0.022 A
HETATM    3  C3  UNL     1     -24.086  -7.369  10.562  1.00  0.00     0.036 A
HETATM    4  C4  UNL     1     -22.687  -7.263  10.429  1.00  0.00    -0.019 A
HETATM    5  C5  UNL     1     -22.026  -6.280  11.107  1.00  0.00     0.069 A
HETATM    6  N1  UNL     1     -22.705  -5.436  11.880  1.00  0.00    -0.301 N
ATOM      7  H1  UNL     1     -22.208  -4.701  12.384  1.00  0.00     0.186 HD
HETATM    8  N2  UNL     1     -24.019  -5.541  12.001  1.00  0.00    -0.305 N
ATOM      9  H2  UNL     1     -24.505  -4.877  12.604  1.00  0.00     0.186 HD
HETATM   10  C6  UNL     1     -20.559  -6.150  10.974  1.00  0.00     0.125 C
HETATM   11  C7  UNL     1     -19.939  -7.030  12.042  1.00  0.00     0.055 C
HETATM   12  O2  UNL     1     -20.124  -6.634   9.746  1.00  0.00    -0.371 OA
HETATM   13  C16 UNL     1     -20.526  -7.924   9.512  1.00  0.00     0.183 C
HETATM   14  C17 UNL     1     -21.977  -8.206   9.574  1.00  0.00     0.003 C
HETATM   15  C18 UNL     1     -22.261  -9.655   9.942  1.00  0.00     0.022 C
HETATM   16  C19 UNL     1     -22.518  -8.047   8.142  1.00  0.00     0.022 C
ENDROOT
BRANCH  10  17
HETATM   17  C8  UNL     1     -20.167  -4.724  11.208  1.00  0.00     0.276 C
BRANCH  17  18
HETATM   18  N3  UNL     1     -19.273  -4.642  12.334  1.00  0.00    -0.068 N
ATOM     19  H32 UNL     1     -19.780  -4.698  13.218  1.00  0.00     0.277 HD
ATOM     20  H31 UNL     1     -18.706  -5.484  12.423  1.00  0.00     0.277 HD
BRANCH  18  21
HETATM   21  C9  UNL     1     -18.442  -3.438  12.268  1.00  0.00     0.191 C
HETATM   22  C10 UNL     1     -19.180  -2.412  11.445  1.00  0.00     0.059 C
HETATM   23  C11 UNL     1     -18.703  -1.026  11.683  1.00  0.00     0.170 C
HETATM   24  O1  UNL     1     -17.517  -0.941  12.389  1.00  0.00    -0.381 OA
HETATM   25  C12 UNL     1     -17.585  -1.524  13.648  1.00  0.00     0.055 C
HETATM   26  C13 UNL     1     -16.161  -1.607  14.157  1.00  0.00     0.045 C
HETATM   27  C14 UNL     1     -18.322  -0.610  14.630  1.00  0.00     0.045 C
HETATM   28  C15 UNL     1     -18.173  -2.897  13.647  1.00  0.00     0.070 C
ENDBRANCH  18  21
ENDBRANCH  17  18
ENDBRANCH  10  17
TORSDOF 3
ENDMDL