MODEL 1
REMARK VINA RESULT: -7.970510524      0.000      0.000
REMARK  2 active torsions:
REMARK  status: ('A' for Active; 'I' for Inactive)
REMARK    1  A    between atoms: C4_4  and  N1_5
REMARK    2  A    between atoms: N1_5  and  C5_7
ROOT
HETATM    1  C5  UNL     1      -2.856   1.056 -21.537  1.00  0.00     0.090 C
HETATM    2  C6  UNL     1      -3.810   1.699 -22.527  1.00  0.00     0.019 C
HETATM    3  C7  UNL     1      -3.760   1.058 -23.883  1.00  0.00     0.087 C
HETATM    4  S1  UNL     1      -2.028   1.031 -24.442  1.00  0.00    -0.116 SA
HETATM    5  C8  UNL     1      -1.278   2.519 -23.807  1.00  0.00     0.045 C
HETATM    6  N2  UNL     1      -0.327   3.131 -24.357  1.00  0.00    -0.397 N
ATOM      7  H21 UNL     1       0.102   3.982 -23.994  1.00  0.00     0.156 HD
ATOM      8  H22 UNL     1       0.070   2.774 -25.226  1.00  0.00     0.156 HD
HETATM    9  C9  UNL     1      -1.863   3.044 -22.526  1.00  0.00     0.052 C
HETATM   10  C10 UNL     1      -3.368   3.132 -22.679  1.00  0.00     0.019 C
HETATM   11  C11 UNL     1      -1.684   1.960 -21.485  1.00  0.00    -0.018 C
HETATM   12  C12 UNL     1      -1.668   2.683 -20.135  1.00  0.00     0.018 C
HETATM   13  C13 UNL     1      -0.352   1.325 -21.671  1.00  0.00     0.018 C
ENDROOT
BRANCH   1  14
HETATM   14  N1  UNL     1      -2.616  -0.307 -21.856  1.00  0.00    -0.412 N
ATOM     15  H1  UNL     1      -2.251  -0.592 -22.765  1.00  0.00     0.154 HD
BRANCH  14  16
HETATM   16  C4  UNL     1      -2.915  -1.255 -20.832  1.00  0.00     0.080 C
HETATM   17  C3  UNL     1      -2.087  -1.036 -19.572  1.00  0.00     0.029 C
HETATM   18  C2  UNL     1      -2.750  -1.671 -18.388  1.00  0.00    -0.014 C
HETATM   19  C1  UNL     1      -1.809  -1.588 -17.189  1.00  0.00     0.010 C
HETATM   20  C17 UNL     1      -4.090  -1.070 -18.070  1.00  0.00     0.047 C
HETATM   21  C15 UNL     1      -4.640  -0.313 -19.273  1.00  0.00     0.102 C
HETATM   22  C14 UNL     1      -4.410  -1.110 -20.514  1.00  0.00     0.067 C
HETATM   23  C16 UNL     1      -6.137  -0.139 -19.111  1.00  0.00     0.051 C
HETATM   24  F1  UNL     1      -4.093   0.959 -19.359  1.00  0.00    -0.243 F
ENDBRANCH  14  16
ENDBRANCH   1  14
TORSDOF 2
ENDMDL