MODEL 2
REMARK VINA RESULT: -7.383097186      1.135      1.321
REMARK  3 active torsions:
REMARK  status: ('A' for Active; 'I' for Inactive)
REMARK    1  A    between atoms: C7_7  and  C8_8
REMARK    2  A    between atoms: N1_9  and  C9_11
REMARK    3  A    between atoms: C12_14  and  O1_15
ROOT
HETATM    1  C1  UNL     1      -5.612   0.016 -15.065  1.00  0.00     0.032 C
HETATM    2  C2  UNL     1      -6.077  -0.714 -16.332  1.00  0.00     0.078 C
HETATM    3  C3  UNL     1      -6.828   0.200 -17.225  1.00  0.00     0.029 C
HETATM    4  C4  UNL     1      -6.570   0.043 -18.678  1.00  0.00     0.043 C
HETATM    5  C5  UNL     1      -5.162  -0.242 -19.009  1.00  0.00    -0.029 A
HETATM    6  C6  UNL     1      -4.598   0.157 -20.207  1.00  0.00     0.025 A
HETATM    7  C7  UNL     1      -3.289  -0.099 -20.536  1.00  0.00     0.014 A
HETATM    8  C12 UNL     1      -2.471  -0.791 -19.639  1.00  0.00     0.097 A
HETATM    9  C13 UNL     1      -3.039  -1.184 -18.452  1.00  0.00     0.071 A
HETATM   10 BR1  UNL     1      -1.960  -2.130 -17.201  1.00  0.00    -0.046 Br
HETATM   11  C14 UNL     1      -4.354  -0.925 -18.127  1.00  0.00     0.055 A
HETATM   12  N2  UNL     1      -4.927  -1.335 -16.899  1.00  0.00    -0.384 N
ATOM     13  H2  UNL     1      -4.497  -2.112 -16.397  1.00  0.00     0.160 HD
ENDROOT
BRANCH   7  14
HETATM   14  C8  UNL     1      -2.732   0.336 -21.802  1.00  0.00     0.097 C
HETATM   15  N1  UNL     1      -3.465   0.482 -22.835  1.00  0.00    -0.393 N
ATOM     16  H1  UNL     1      -4.460   0.284 -22.738  1.00  0.00     0.159 HD
BRANCH  15  17
HETATM   17  C9  UNL     1      -2.996   0.904 -24.115  1.00  0.00     0.081 A
HETATM   18  C10 UNL     1      -2.393   2.228 -24.341  1.00  0.00     0.027 A
HETATM   19  C11 UNL     1      -3.754   1.990 -24.848  1.00  0.00     0.027 A
ENDBRANCH  15  17
ENDBRANCH   7  14
BRANCH   8  20
HETATM   20  O1  UNL     1      -1.158  -1.041 -19.983  1.00  0.00    -0.358 OA
ATOM     21  H1  UNL     1      -0.848  -1.939 -20.003  1.00  0.00     0.217 HD
ENDBRANCH   8  20
TORSDOF 3
ENDMDL