MODEL 3
REMARK VINA RESULT: -6.199504566      8.657     10.942
REMARK  4 active torsions:
REMARK  status: ('A' for Active; 'I' for Inactive)
REMARK    1  A    between atoms: O1_2  and  C2_3
REMARK    2  A    between atoms: C3_4  and  O2_5
REMARK    3  A    between atoms: C6_10  and  O3_11
REMARK    4  A    between atoms: C7_13  and  C8_14
ROOT
HETATM    1  C2  UNL     1       1.553  -4.636 -11.771  1.00  0.00     0.111 A
HETATM    2  C3  UNL     1       1.269  -5.953 -11.902  1.00  0.00     0.101 A
HETATM    3  C4  UNL     1       2.256  -6.913 -11.787  1.00  0.00     0.061 A
HETATM    4  C5  UNL     1       3.556  -6.534 -11.533  1.00  0.00     0.047 A
HETATM    5 BR1  UNL     1       4.923  -7.846 -11.300  1.00  0.00    -0.048 Br
HETATM    6  C6  UNL     1       3.859  -5.152 -11.400  1.00  0.00     0.092 A
HETATM    7  C7  UNL     1       2.873  -4.211 -11.519  1.00  0.00     0.020 A
ENDROOT
BRANCH   7   8
HETATM    8  C8  UNL     1       3.114  -2.779 -11.381  1.00  0.00     0.047 C
HETATM    9  C9  UNL     1       3.579  -2.422  -9.987  1.00  0.00    -0.015 C
HETATM   10  C10 UNL     1       4.051  -1.174  -9.851  1.00  0.00    -0.087 C
HETATM   11  C11 UNL     1       4.521  -0.849  -8.458  1.00  0.00     0.043 C
HETATM   12  C12 UNL     1       4.144  -0.155 -10.897  1.00  0.00     0.033 C
HETATM   13  C13 UNL     1       3.936  -0.704 -12.288  1.00  0.00     0.005 C
HETATM   14  C14 UNL     1       4.293  -2.233 -12.205  1.00  0.00     0.014 C
ENDBRANCH   7   8
BRANCH   1  15
HETATM   15  O1  UNL     1       0.586  -3.678 -11.890  1.00  0.00    -0.352 OA
HETATM   16  C1  UNL     1       0.047  -3.097 -13.029  1.00  0.00     0.210 C
ENDBRANCH   1  15
BRANCH   6  17
HETATM   17  O3  UNL     1       5.166  -4.914 -11.146  1.00  0.00    -0.359 OA
ATOM     18  H3  UNL     1       5.484  -5.355 -10.367  1.00  0.00     0.217 HD
ENDBRANCH   6  17
BRANCH   2  19
HETATM   19  O2  UNL     1      -0.029  -6.450 -12.160  1.00  0.00    -0.358 OA
ATOM     20  H2  UNL     1      -0.199  -7.310 -12.527  1.00  0.00     0.217 HD
ENDBRANCH   2  19
TORSDOF 4
ENDMDL