MODEL 4
REMARK VINA RESULT: -7.434513242      1.660      2.612
REMARK  2 active torsions:
REMARK  status: ('A' for Active; 'I' for Inactive)
REMARK    1  A    between atoms: C3_4  and  C4_5
REMARK    2  A    between atoms: C8_14  and  C9_15
ROOT
HETATM    1  N1  UNL     1       0.127  -4.596 -13.423  1.00  0.00    -0.191 NA
HETATM    2  C1  UNL     1       1.103  -4.653 -12.749  1.00  0.00     0.101 C
HETATM    3  C2  UNL     1       2.295  -4.687 -11.887  1.00  0.00     0.070 A
HETATM    4  C3  UNL     1       2.910  -5.858 -11.562  1.00  0.00     0.038 A
HETATM    5  S1  UNL     1       4.166  -5.300 -10.489  1.00  0.00    -0.092 SA
HETATM    6  C10 UNL     1       3.849  -3.639 -10.516  1.00  0.00    -0.009 A
HETATM    7  C11 UNL     1       2.775  -3.549 -11.354  1.00  0.00    -0.023 A
HETATM    8  C12 UNL     1       2.074  -2.265 -11.737  1.00  0.00     0.041 C
HETATM    9  C13 UNL     1       2.117  -1.235 -10.662  1.00  0.00     0.005 C
HETATM   10  C14 UNL     1       3.275  -0.298 -10.744  1.00  0.00     0.000 C
HETATM   11  C15 UNL     1       4.507  -0.868 -11.369  1.00  0.00     0.000 C
HETATM   12  C16 UNL     1       5.368  -1.648 -10.440  1.00  0.00     0.005 C
HETATM   13  C17 UNL     1       4.722  -2.759  -9.702  1.00  0.00     0.046 C
ENDROOT
BRANCH   4  14
HETATM   14  C4  UNL     1       2.660  -7.270 -11.888  1.00  0.00     0.007 A
HETATM   15  C5  UNL     1       1.725  -8.031 -11.231  1.00  0.00     0.103 A
HETATM   16  N2  UNL     1       1.521  -9.364 -11.466  1.00  0.00    -0.352 N
HETATM   17  C6  UNL     1       2.245  -9.990 -12.372  1.00  0.00     0.099 A
ATOM     18  H2  UNL     1       0.809  -9.872 -10.941  1.00  0.00     0.166 HD
HETATM   19  N3  UNL     1       2.028 -11.261 -12.575  1.00  0.00    -0.385 N
HETATM   20  C7  UNL     1       3.189  -9.317 -13.071  1.00  0.00     0.058 A
ATOM     21  H32 UNL     1       1.317 -11.768 -12.049  1.00  0.00     0.157 HD
ATOM     22  H31 UNL     1       2.589 -11.746 -13.276  1.00  0.00     0.157 HD
HETATM   23  C8  UNL     1       3.405  -7.946 -12.833  1.00  0.00    -0.013 A
BRANCH  23  24
HETATM   24  C9  UNL     1       4.452  -7.272 -13.616  1.00  0.00     0.262 C
HETATM   25  F1  UNL     1       4.714  -8.047 -14.783  1.00  0.00    -0.251 F
ENDBRANCH  23  24
ENDBRANCH   4  14
TORSDOF 2
ENDMDL