MODEL 5
REMARK VINA RESULT: -7.055731818      1.678      2.021
REMARK  4 active torsions:
REMARK  status: ('A' for Active; 'I' for Inactive)
REMARK    1  A    between atoms: O1_1  and  C1_3
REMARK    2  A    between atoms: C3_5  and  O2_6
REMARK    3  A    between atoms: C4_8  and  C5_9
REMARK    4  A    between atoms: N1_10  and  C6_12
ROOT
HETATM    1  C1  UNL     1      -4.019  -1.697 -16.468  1.00  0.00     0.085 A
HETATM    2  C2  UNL     1      -4.873  -1.148 -17.393  1.00  0.00     0.075 A
HETATM    3  C3  UNL     1      -4.470  -0.828 -18.683  1.00  0.00     0.080 A
HETATM    4  C4  UNL     1      -3.171  -1.066 -19.056  1.00  0.00     0.013 A
HETATM    5  C13 UNL     1      -2.322  -1.626 -18.094  1.00  0.00     0.037 A
HETATM    6  C14 UNL     1      -2.725  -1.940 -16.824  1.00  0.00     0.045 A
HETATM    7 BR1  UNL     1      -1.501  -2.701 -15.574  1.00  0.00    -0.048 Br
ENDROOT
BRANCH   4   8
HETATM    8  C5  UNL     1      -2.649  -0.767 -20.385  1.00  0.00     0.097 C
HETATM    9  N1  UNL     1      -2.484   0.458 -20.710  1.00  0.00    -0.393 N
ATOM     10  H1  UNL     1      -2.732   1.155 -20.008  1.00  0.00     0.159 HD
BRANCH   9  11
HETATM   11  C6  UNL     1      -1.989   0.947 -21.950  1.00  0.00     0.089 C
HETATM   12  C7  UNL     1      -2.887   2.046 -22.545  1.00  0.00     0.009 C
HETATM   13  C8  UNL     1      -1.936   2.690 -23.514  1.00  0.00     0.007 C
HETATM   14  C12 UNL     1      -3.000   2.934 -21.341  1.00  0.00     0.007 C
HETATM   15  C9  UNL     1      -0.526   2.470 -22.957  1.00  0.00     0.007 C
HETATM   16  C10 UNL     1      -0.823   1.891 -21.614  1.00  0.00     0.009 C
HETATM   17  C11 UNL     1      -1.574   2.951 -20.818  1.00  0.00     0.007 C
ENDBRANCH   9  11
ENDBRANCH   4   8
BRANCH   3  18
HETATM   18  O2  UNL     1      -5.354  -0.279 -19.582  1.00  0.00    -0.360 OA
ATOM     19  H2  UNL     1      -5.802  -0.823 -20.218  1.00  0.00     0.217 HD
ENDBRANCH   3  18
BRANCH   1  20
HETATM   20  O1  UNL     1      -4.422  -2.015 -15.179  1.00  0.00    -0.359 OA
ATOM     21  H1  UNL     1      -4.259  -2.866 -14.789  1.00  0.00     0.217 HD
ENDBRANCH   1  20
TORSDOF 4
ENDMDL