MODEL 5
REMARK VINA RESULT: -7.331276796      4.355      6.377
REMARK  2 active torsions:
REMARK  status: ('A' for Active; 'I' for Inactive)
REMARK    1  A    between atoms: C4_6  and  C5_7
REMARK    2  A    between atoms: C10_12  and  C11_13
ROOT
HETATM    1  C11 UNL     1       4.276  -9.302 -14.816  1.00  0.00     0.078 A
HETATM    2  N1  UNL     1       4.716  -8.252 -15.584  1.00  0.00    -0.297 N
ATOM      3  H1  UNL     1       5.183  -7.412 -15.241  1.00  0.00     0.187 HD
HETATM    4  N2  UNL     1       4.421  -8.526 -16.864  1.00  0.00    -0.284 N
ATOM      5  H2  UNL     1       4.629  -7.926 -17.663  1.00  0.00     0.188 HD
HETATM    6  C12 UNL     1       3.809  -9.721 -16.920  1.00  0.00     0.136 A
HETATM    7  N3  UNL     1       3.333 -10.410 -17.990  1.00  0.00    -0.337 N
ATOM      8  H3  UNL     1       3.411 -10.032 -18.934  1.00  0.00     0.168 HD
HETATM    9  C13 UNL     1       2.754 -11.611 -17.767  1.00  0.00     0.183 A
HETATM   10  N4  UNL     1       2.667 -12.081 -16.520  1.00  0.00    -0.343 N
ATOM     11  H4  UNL     1       2.225 -12.990 -16.381  1.00  0.00     0.167 HD
HETATM   12  C14 UNL     1       3.126 -11.429 -15.435  1.00  0.00     0.117 A
HETATM   13  S1  UNL     1       2.982 -12.082 -13.924  1.00  0.00    -0.059 SA
HETATM   14  C15 UNL     1       3.710 -10.220 -15.646  1.00  0.00     0.076 A
ENDROOT
BRANCH   1  15
HETATM   15  C10 UNL     1       4.531  -9.293 -13.379  1.00  0.00     0.053 A
HETATM   16  C1  UNL     1       5.825  -9.853 -12.831  1.00  0.00     0.292 A
HETATM   17  F1  UNL     1       6.085 -11.118 -13.253  1.00  0.00    -0.196 F
HETATM   18  F2  UNL     1       6.805  -8.973 -13.342  1.00  0.00    -0.196 F
HETATM   19  C2  UNL     1       5.670  -9.686 -11.404  1.00  0.00     0.057 A
HETATM   20  C3  UNL     1       4.522  -9.134 -11.148  1.00  0.00     0.010 A
HETATM   21  C4  UNL     1       3.770  -8.870 -12.421  1.00  0.00    -0.039 A
BRANCH  21  22
HETATM   22  C5  UNL     1       2.477  -8.199 -12.323  1.00  0.00     0.019 C
HETATM   23  C6  UNL     1       2.474  -6.825 -12.913  1.00  0.00     0.009 C
HETATM   24  C7  UNL     1       1.669  -5.988 -11.980  1.00  0.00     0.001 C
HETATM   25  C8  UNL     1       0.702  -6.976 -11.364  1.00  0.00     0.001 C
HETATM   26  C9  UNL     1       1.799  -8.077 -11.024  1.00  0.00     0.009 C
ENDBRANCH  21  22
ENDBRANCH   1  15
TORSDOF 2
ENDMDL