MODEL 5
REMARK VINA RESULT: -7.391187171      4.409      4.935
REMARK  4 active torsions:
REMARK  status: ('A' for Active; 'I' for Inactive)
REMARK    1  A    between atoms: C2_2  and  N1_3
REMARK    2  A    between atoms: N1_3  and  C3_5
REMARK    3  A    between atoms: C8_11  and  O1_12
REMARK    4  A    between atoms: C10_15  and  C11_16
ROOT
HETATM    1  C3  UNL     1       4.102  -9.229  -6.933  1.00  0.00     0.065 A
HETATM    2  C4  UNL     1       4.086  -9.332  -8.332  1.00  0.00     0.040 A
HETATM    3  C5  UNL     1       4.100  -8.194  -9.107  1.00  0.00    -0.045 A
HETATM    4  C6  UNL     1       4.130  -6.925  -8.574  1.00  0.00    -0.005 A
HETATM    5  C7  UNL     1       4.146  -6.829  -7.205  1.00  0.00     0.158 A
HETATM    6  F1  UNL     1       4.175  -5.619  -6.585  1.00  0.00    -0.203 F
HETATM    7  C8  UNL     1       4.131  -7.976  -6.382  1.00  0.00     0.131 A
HETATM    8  C9  UNL     1       4.148  -5.605  -9.194  1.00  0.00     0.095 C
HETATM    9  C10 UNL     1       4.639  -5.522 -10.564  1.00  0.00    -0.010 C
HETATM   10  N2  UNL     1       5.066  -6.391 -11.368  1.00  0.00    -0.395 N
ATOM     11  H2  UNL     1       5.342  -6.014 -12.275  1.00  0.00     0.159 HD
HETATM   12  C17 UNL     1       5.237  -7.794 -11.252  1.00  0.00     0.124 C
HETATM   13  C18 UNL     1       4.082  -8.483 -10.565  1.00  0.00     0.059 C
ENDROOT
BRANCH   9  14
HETATM   14  C11 UNL     1       4.622  -4.110 -11.099  1.00  0.00     0.031 C
HETATM   15  C12 UNL     1       5.519  -3.227 -10.297  1.00  0.00     0.010 C
HETATM   16  C13 UNL     1       5.261  -1.785 -10.637  1.00  0.00     0.001 C
HETATM   17  C14 UNL     1       4.461  -1.621 -11.914  1.00  0.00     0.000 C
HETATM   18  C15 UNL     1       3.097  -2.273 -11.766  1.00  0.00     0.001 C
HETATM   19  C16 UNL     1       3.215  -3.555 -10.998  1.00  0.00     0.010 C
ENDBRANCH   9  14
BRANCH   7  20
HETATM   20  O1  UNL     1       4.148  -7.810  -5.010  1.00  0.00    -0.356 OA
ATOM     21  H1  UNL     1       4.141  -6.940  -4.627  1.00  0.00     0.218 HD
ENDBRANCH   7  20
BRANCH   1  22
HETATM   22  N1  UNL     1       4.071 -10.410  -6.174  1.00  0.00    -0.388 N
ATOM     23  H1  UNL     1       3.161 -10.770  -5.887  1.00  0.00     0.159 HD
BRANCH  22  24
HETATM   24  C2  UNL     1       5.247 -11.146  -5.774  1.00  0.00     0.115 C
HETATM   25  C1  UNL     1       5.598 -10.963  -4.309  1.00  0.00     0.026 C
ENDBRANCH  22  24
ENDBRANCH   1  22
TORSDOF 4
ENDMDL