MODEL 2
REMARK VINA RESULT: -8.342579158      1.152      2.063
REMARK  3 active torsions:
REMARK  status: ('A' for Active; 'I' for Inactive)
REMARK    1  A    between atoms: C2_5  and  N2_6
REMARK    2  A    between atoms: N2_6  and  N3_8
REMARK    3  A    between atoms: C11_21  and  C12_22
ROOT
HETATM    1  S1  UNL     1      -2.557  -2.489 -16.759  1.00  0.00    -0.059 SA
HETATM    2  C1  UNL     1      -3.195  -1.757 -18.066  1.00  0.00     0.126 A
HETATM    3  N1  UNL     1      -2.504  -1.682 -19.212  1.00  0.00    -0.180 N
ATOM      4  H1  UNL     1      -1.571  -2.091 -19.263  1.00  0.00     0.185 HD
HETATM    5  C2  UNL     1      -3.020  -1.074 -20.300  1.00  0.00     0.699 A
HETATM    6  N4  UNL     1      -4.243  -0.543 -20.217  1.00  0.00    -0.179 N
ATOM      7  H4  UNL     1      -4.645  -0.081 -21.033  1.00  0.00     0.185 HD
HETATM    8  C10 UNL     1      -4.971  -0.607 -19.052  1.00  0.00     0.129 A
HETATM    9 CL1  UNL     1      -6.538   0.147 -19.067  1.00  0.00    -0.063 Cl
HETATM   10  C11 UNL     1      -4.481  -1.212 -17.942  1.00  0.00     0.024 A
ENDROOT
BRANCH   5  11
HETATM   11  N2  UNL     1      -2.324  -1.009 -21.412  1.00  0.00    -0.132 N
ATOM     12  H2  UNL     1      -2.422  -1.719 -22.138  1.00  0.00     0.205 HD
BRANCH  11  13
HETATM   13  N3  UNL     1      -1.449   0.057 -21.566  1.00  0.00    -0.295 N
HETATM   14  C3  UNL     1      -1.581   0.988 -22.418  1.00  0.00     0.004 C
HETATM   15  C4  UNL     1      -0.513   2.015 -22.388  1.00  0.00     0.054 C
HETATM   16  C9  UNL     1      -2.756   0.892 -23.278  1.00  0.00     0.054 C
HETATM   17  C5  UNL     1       0.458   1.718 -23.521  1.00  0.00     0.006 C
HETATM   18  C6  UNL     1      -0.203   2.097 -24.814  1.00  0.00     0.000 C
HETATM   19  C7  UNL     1      -1.124   0.944 -25.202  1.00  0.00     0.000 C
HETATM   20  C8  UNL     1      -2.511   1.274 -24.716  1.00  0.00     0.006 C
ATOM     21  H3  UNL     1      -0.639   0.094 -20.948  1.00  0.00     0.186 HD
ENDBRANCH  11  13
ENDBRANCH   5  11
BRANCH  10  22
HETATM   22  C12 UNL     1      -5.190  -1.294 -16.663  1.00  0.00     0.025 A
HETATM   23  C13 UNL     1      -4.959  -0.471 -15.488  1.00  0.00     0.010 A
HETATM   24  C14 UNL     1      -6.321  -0.464 -16.261  1.00  0.00     0.010 A
ENDBRANCH  10  22
TORSDOF 3
ENDMDL