MODEL 3
REMARK VINA RESULT: -6.810726049     11.604     12.782
REMARK  4 active torsions:
REMARK  status: ('A' for Active; 'I' for Inactive)
REMARK    1  A    between atoms: O1_2  and  C2_3
REMARK    2  A    between atoms: C3_4  and  O2_5
REMARK    3  A    between atoms: C5_8  and  C6_9
REMARK    4  A    between atoms: C6_9  and  O3_10
ROOT
HETATM    1  C2  UNL     1      -3.606  -2.194 -18.344  1.00  0.00     0.118 A
HETATM    2  C3  UNL     1      -2.936  -2.586 -19.503  1.00  0.00     0.101 A
HETATM    3  C4  UNL     1      -2.829  -1.666 -20.514  1.00  0.00     0.049 A
HETATM    4  C5  UNL     1      -3.334  -0.384 -20.470  1.00  0.00    -0.020 A
HETATM    5  C12 UNL     1      -3.998  -0.001 -19.322  1.00  0.00     0.032 A
HETATM    6  C13 UNL     1      -4.119  -0.922 -18.275  1.00  0.00     0.047 A
HETATM    7 BR1  UNL     1      -5.037  -0.396 -16.704  1.00  0.00    -0.048 Br
ENDROOT
BRANCH   4   8
HETATM    8  C6  UNL     1      -3.161   0.557 -21.618  1.00  0.00     0.085 C
HETATM    9  C7  UNL     1      -3.854   1.850 -21.333  1.00  0.00     0.043 C
HETATM   10  C8  UNL     1      -3.179   2.905 -22.195  1.00  0.00     0.003 C
HETATM   11  C9  UNL     1      -1.843   3.148 -21.513  1.00  0.00     0.000 C
HETATM   12  C10 UNL     1      -1.025   1.924 -21.653  1.00  0.00     0.003 C
HETATM   13  C11 UNL     1      -1.742   0.691 -22.030  1.00  0.00     0.043 C
BRANCH   8  14
HETATM   14  O3  UNL     1      -3.857  -0.035 -22.701  1.00  0.00    -0.385 OA
ATOM     15  H3  UNL     1      -4.772   0.181 -22.563  1.00  0.00     0.211 HD
ENDBRANCH   8  14
ENDBRANCH   4   8
BRANCH   2  16
HETATM   16  O2  UNL     1      -2.403  -3.870 -19.618  1.00  0.00    -0.358 OA
ATOM     17  H2  UNL     1      -2.520  -4.375 -20.415  1.00  0.00     0.217 HD
ENDBRANCH   2  16
BRANCH   1  18
HETATM   18  O1  UNL     1      -3.719  -3.111 -17.335  1.00  0.00    -0.352 OA
HETATM   19  C1  UNL     1      -2.853  -3.265 -16.236  1.00  0.00     0.210 C
ENDBRANCH   1  18
TORSDOF 4
ENDMDL