MODEL 4
REMARK VINA RESULT: -7.244829723      9.307     11.985
REMARK  3 active torsions:
REMARK  status: ('A' for Active; 'I' for Inactive)
REMARK    1  A    between atoms: N1_1  and  C1_4
REMARK    2  A    between atoms: C2_7  and  C3_8
REMARK    3  A    between atoms: C10_18  and  C11_20
ROOT
HETATM    1  C1  UNL     1      -5.895  -0.348 -17.795  1.00  0.00     0.676 A
HETATM    2  N2  UNL     1      -4.880  -0.944 -17.173  1.00  0.00    -0.190 N
ATOM      3  H2  UNL     1      -5.014  -1.237 -16.206  1.00  0.00     0.184 HD
HETATM    4  C2  UNL     1      -3.654  -1.188 -17.765  1.00  0.00     0.074 A
HETATM    5  C7  UNL     1      -3.530  -0.790 -19.034  1.00  0.00    -0.006 A
HETATM    6  C8  UNL     1      -4.595  -0.146 -19.724  1.00  0.00     0.038 A
HETATM    7  N3  UNL     1      -5.725   0.051 -19.095  1.00  0.00    -0.195 N
ATOM      8  H3  UNL     1      -6.494   0.511 -19.582  1.00  0.00     0.184 HD
HETATM    9  C9  UNL     1      -4.279   0.257 -21.096  1.00  0.00     0.102 C
HETATM   10  C10 UNL     1      -2.990   1.053 -21.029  1.00  0.00     0.112 C
HETATM   11  F1  UNL     1      -3.199   2.068 -20.117  1.00  0.00    -0.242 F
HETATM   12  C15 UNL     1      -1.871   0.166 -20.596  1.00  0.00     0.049 C
HETATM   13  C16 UNL     1      -2.343  -1.074 -19.866  1.00  0.00     0.046 C
ENDROOT
BRANCH   4  14
HETATM   14  C3  UNL     1      -2.618  -1.729 -16.893  1.00  0.00     0.032 A
HETATM   15  C4  UNL     1      -1.262  -1.793 -16.958  1.00  0.00     0.021 A
HETATM   16  C5  UNL     1      -0.593  -2.305 -15.900  1.00  0.00     0.008 A
HETATM   17  C6  UNL     1      -1.327  -2.723 -14.833  1.00  0.00     0.050 A
HETATM   18  S1  UNL     1      -2.919  -2.402 -15.310  1.00  0.00    -0.100 SA
ENDBRANCH   4  14
BRANCH   1  19
HETATM   19  N1  UNL     1      -7.025  -0.134 -17.214  1.00  0.00    -0.234 N
ATOM     20  H12 UNL     1      -7.888  -0.380 -17.699  1.00  0.00     0.174 HD
ATOM     21  H11 UNL     1      -7.088   0.274 -16.282  1.00  0.00     0.174 HD
ENDBRANCH   1  19
BRANCH  10  22
HETATM   22  C11 UNL     1      -2.748   1.622 -22.405  1.00  0.00     0.026 C
HETATM   23  C12 UNL     1      -3.457   2.896 -22.719  1.00  0.00     0.008 C
HETATM   24  C13 UNL     1      -4.048   2.269 -23.959  1.00  0.00     0.001 C
HETATM   25  C14 UNL     1      -3.611   0.916 -23.430  1.00  0.00     0.008 C
ENDBRANCH  10  22
TORSDOF 3
ENDMDL