MODEL 3
REMARK VINA RESULT: -8.038098140      1.080      1.539
REMARK  21 active torsions:
REMARK  status: ('A' for Active; 'I' for Inactive)
REMARK    1  A    between atoms: O1_2  and  C2_3
REMARK    2  A    between atoms: C2_3  and  C3_5
REMARK    3  A    between atoms: C3_5  and  C4_6
REMARK    4  A    between atoms: C4_6  and  C5_7
REMARK    5  A    between atoms: C5_7  and  C6_8
REMARK    6  A    between atoms: C6_8  and  C7_9
REMARK    7  A    between atoms: C7_9  and  C8_10
REMARK    8  A    between atoms: C8_10  and  C9_11
REMARK    9  A    between atoms: C9_11  and  O4_13
REMARK   10  A    between atoms: C13_17  and  C14_18
REMARK   11  A    between atoms: C14_18  and  O5_19
REMARK   12  A    between atoms: C14_18  and  N1_21
REMARK   13  A    between atoms: N1_21  and  C15_23
REMARK   14  A    between atoms: C15_23  and  C16_24
REMARK   15  A    between atoms: C16_24  and  O6_25
REMARK   16  A    between atoms: N2_27  and  C17_28
REMARK   17  A    between atoms: C17_28  and  O7_29
REMARK   18  A    between atoms: C18_31  and  N3_32
REMARK   19  A    between atoms: C18_31  and  C24_41
REMARK       I    between atoms: N3_32  and  C19_34
REMARK   20  A    between atoms: C19_34  and  O9_36
REMARK   21  A    between atoms: O9_36  and  C20_37
ROOT
HETATM    1  C8  UNL     1      18.838  30.838  13.883  1.00  0.00     0.064 C
HETATM    2  C11 UNL     1      19.232  29.634  14.633  1.00  0.00     0.024 C
HETATM    3  C12 UNL     1      19.449  29.839  16.076  1.00  0.00     0.035 C
HETATM    4  C13 UNL     1      19.902  31.214  16.482  1.00  0.00     0.160 C
HETATM    5  N2  UNL     1      19.044  32.249  15.928  1.00  0.00    -0.347 N
HETATM    6  C28 UNL     1      18.452  32.065  14.640  1.00  0.00     0.145 C
ENDROOT
BRANCH   5   7
HETATM    7  C17 UNL     1      18.868  33.418  16.651  1.00  0.00     0.163 C
HETATM    8  C18 UNL     1      17.911  34.423  16.942  1.00  0.00     0.072 C
BRANCH   7   9
HETATM    9  O7  UNL     1      20.003  33.704  17.316  1.00  0.00    -0.345 OA
ATOM     10  H7  UNL     1      19.785  34.015  18.187  1.00  0.00     0.219 HD
ENDBRANCH   7   9
BRANCH   8  11
HETATM   11  N3  UNL     1      18.508  35.753  16.811  1.00  0.00    -0.301 N
HETATM   12  C19 UNL     1      19.087  36.508  17.848  1.00  0.00     0.365 C
HETATM   13  O8  UNL     1      19.179  36.124  19.057  1.00  0.00    -0.238 OA
ATOM     14  H3  UNL     1      18.505  36.172  15.882  1.00  0.00     0.171 HD
BRANCH  12  15
HETATM   15  O9  UNL     1      19.620  37.764  17.650  1.00  0.00    -0.294 OA
BRANCH  15  16
HETATM   16  C20 UNL     1      19.064  38.977  17.415  1.00  0.00     0.061 C
HETATM   17  C21 UNL     1      19.713  39.702  16.267  1.00  0.00     0.046 C
HETATM   18  C22 UNL     1      17.570  38.993  17.202  1.00  0.00     0.046 C
HETATM   19  C23 UNL     1      19.337  39.845  18.657  1.00  0.00     0.046 C
ENDBRANCH  15  16
ENDBRANCH  12  15
ENDBRANCH   8  11
BRANCH   8  20
HETATM   20  C24 UNL     1      16.499  34.481  16.647  1.00  0.00    -0.004 C
HETATM   21  C25 UNL     1      15.696  35.526  17.376  1.00  0.00     0.021 C
HETATM   22  C26 UNL     1      15.705  33.211  16.603  1.00  0.00     0.021 C
HETATM   23  C27 UNL     1      16.419  34.976  15.160  1.00  0.00     0.021 C
ENDBRANCH   8  20
ENDBRANCH   5   7
BRANCH   4  24
HETATM   24  C14 UNL     1      21.350  31.425  16.392  1.00  0.00     0.135 C
BRANCH  24  25
HETATM   25  O5  UNL     1      21.897  31.761  17.536  1.00  0.00    -0.348 OA
ATOM     26  H5  UNL     1      22.204  32.659  17.555  1.00  0.00     0.219 HD
ENDBRANCH  24  25
BRANCH  24  27
HETATM   27  N1  UNL     1      22.216  31.329  15.320  1.00  0.00    -0.371 N
ATOM     28  H1  UNL     1      22.263  30.432  14.836  1.00  0.00     0.161 HD
BRANCH  27  29
HETATM   29  C15 UNL     1      23.055  32.382  14.830  1.00  0.00     0.147 C
BRANCH  29  30
HETATM   30  C16 UNL     1      22.508  33.757  14.840  1.00  0.00     0.183 C
BRANCH  30  31
HETATM   31  O6  UNL     1      22.533  34.465  16.009  1.00  0.00    -0.399 OA
ATOM     32  H6  UNL     1      23.369  34.777  16.336  1.00  0.00     0.209 HD
ENDBRANCH  30  31
ENDBRANCH  29  30
ENDBRANCH  27  29
ENDBRANCH  24  27
ENDBRANCH   4  24
BRANCH   1  33
HETATM   33  C7  UNL     1      17.706  30.387  12.906  1.00  0.00     0.021 C
BRANCH  33  34
HETATM   34  C6  UNL     1      17.884  28.995  12.469  1.00  0.00     0.001 C
BRANCH  34  35
HETATM   35  C5  UNL     1      17.257  28.609  11.194  1.00  0.00     0.001 C
BRANCH  35  36
HETATM   36  C4  UNL     1      17.995  27.920  10.118  1.00  0.00     0.010 C
BRANCH  36  37
HETATM   37  C3  UNL     1      17.531  26.561   9.723  1.00  0.00     0.111 C
BRANCH  37  38
HETATM   38  C2  UNL     1      18.278  25.532  10.519  1.00  0.00     0.258 C
HETATM   39  O2  UNL     1      17.731  25.027  11.521  1.00  0.00    -0.265 OA
BRANCH  38  40
HETATM   40  O1  UNL     1      19.548  25.145  10.158  1.00  0.00    -0.326 OA
HETATM   41  C1  UNL     1      20.640  25.062  11.046  1.00  0.00     0.213 C
ENDBRANCH  38  40
ENDBRANCH  37  38
ENDBRANCH  36  37
ENDBRANCH  35  36
ENDBRANCH  34  35
ENDBRANCH  33  34
ENDBRANCH   1  33
BRANCH   1  42
HETATM   42  C9  UNL     1      19.967  31.179  12.981  1.00  0.00     0.269 C
HETATM   43  O3  UNL     1      20.061  32.151  12.233  1.00  0.00    -0.264 OA
BRANCH  42  44
HETATM   44  O4  UNL     1      21.032  30.261  13.017  1.00  0.00    -0.326 OA
HETATM   45  C10 UNL     1      21.564  29.767  11.821  1.00  0.00     0.213 C
ENDBRANCH  42  44
ENDBRANCH   1  42
TORSDOF 21
ENDMDL