MODEL 3
REMARK VINA RESULT: -8.586090205      1.256      1.518
REMARK  16 active torsions:
REMARK  status: ('A' for Active; 'I' for Inactive)
REMARK    1  A    between atoms: O1_2  and  C2_3
REMARK    2  A    between atoms: C2_3  and  C3_4
REMARK    3  A    between atoms: C3_4  and  O2_5
REMARK    4  A    between atoms: O2_5  and  C4_6
REMARK    5  A    between atoms: C6_8  and  C7_9
REMARK       I    between atoms: C7_9  and  N1_11
REMARK    6  A    between atoms: N1_11  and  C8_13
REMARK    7  A    between atoms: C8_13  and  O4_14
REMARK    8  A    between atoms: C8_13  and  C9_16
REMARK    9  A    between atoms: C9_16  and  N2_17
REMARK       I    between atoms: N2_17  and  C10_19
REMARK   10  A    between atoms: C10_19  and  C11_21
REMARK   11  A    between atoms: C11_21  and  N3_22
REMARK   12  A    between atoms: C11_21  and  C17_31
REMARK       I    between atoms: N3_22  and  C12_24
REMARK   13  A    between atoms: C12_24  and  O7_26
REMARK   14  A    between atoms: O7_26  and  C13_27
REMARK   15  A    between atoms: C24_38  and  O8_39
REMARK   16  A    between atoms: C27_42  and  O9_43
ROOT
HETATM    1  C9  UNL     1      21.078  32.159  15.723  1.00  0.00     0.098 C
HETATM    2  C20 UNL     1      22.313  32.312  16.548  1.00  0.00     0.040 C
HETATM    3  C21 UNL     1      23.375  33.005  15.771  1.00  0.00     0.003 C
HETATM    4  C22 UNL     1      22.812  33.316  14.427  1.00  0.00     0.003 C
HETATM    5  C23 UNL     1      21.458  32.678  14.365  1.00  0.00     0.040 C
ENDROOT
BRANCH   1   6
HETATM    6  C8  UNL     1      20.551  30.798  15.710  1.00  0.00     0.147 C
BRANCH   6   7
HETATM    7  N1  UNL     1      20.188  29.850  14.776  1.00  0.00    -0.305 N
HETATM    8  C7  UNL     1      20.875  29.143  13.823  1.00  0.00     0.260 C
HETATM    9  O3  UNL     1      22.123  29.343  13.632  1.00  0.00    -0.267 OA
ATOM     10  H1  UNL     1      19.194  29.626  14.798  1.00  0.00     0.171 HD
BRANCH   8  11
HETATM   11  C6  UNL     1      20.331  28.102  12.928  1.00  0.00     0.068 A
HETATM   12  C5  UNL     1      21.244  27.253  12.298  1.00  0.00     0.059 A
HETATM   13  C4  UNL     1      20.877  26.271  11.421  1.00  0.00     0.103 A
HETATM   14  C27 UNL     1      19.516  26.142  11.173  1.00  0.00     0.104 A
HETATM   15  C26 UNL     1      18.601  26.953  11.770  1.00  0.00     0.077 A
HETATM   16  C24 UNL     1      19.000  27.954  12.663  1.00  0.00     0.086 A
BRANCH  13  17
HETATM   17  O2  UNL     1      21.753  25.420  10.782  1.00  0.00    -0.346 OA
BRANCH  17  18
HETATM   18  C3  UNL     1      22.909  25.864  10.110  1.00  0.00     0.201 C
BRANCH  18  19
HETATM   19  C2  UNL     1      24.077  25.023  10.584  1.00  0.00     0.193 C
BRANCH  19  20
HETATM   20  O1  UNL     1      24.578  25.473  11.797  1.00  0.00    -0.394 OA
HETATM   21  C1  UNL     1      24.929  26.820  11.768  1.00  0.00     0.201 C
ENDBRANCH  19  20
ENDBRANCH  18  19
ENDBRANCH  17  18
ENDBRANCH  13  17
BRANCH  14  22
HETATM   22  O9  UNL     1      19.068  25.159  10.293  1.00  0.00    -0.353 OA
HETATM   23  C28 UNL     1      18.093  25.488   9.346  1.00  0.00     0.210 C
ENDBRANCH  14  22
BRANCH  16  24
HETATM   24  O8  UNL     1      18.025  28.747  13.243  1.00  0.00    -0.355 OA
HETATM   25  C25 UNL     1      17.511  29.862  12.562  1.00  0.00     0.210 C
ENDBRANCH  16  24
ENDBRANCH   8  11
ENDBRANCH   6   7
BRANCH   6  26
HETATM   26  O4  UNL     1      20.364  30.316  16.952  1.00  0.00    -0.347 OA
ATOM     27  H4  UNL     1      20.265  31.033  17.567  1.00  0.00     0.219 HD
ENDBRANCH   6  26
ENDBRANCH   1   6
BRANCH   1  28
HETATM   28  N2  UNL     1      20.008  33.037  16.277  1.00  0.00    -0.342 N
HETATM   29  C10 UNL     1      18.642  32.910  16.087  1.00  0.00     0.241 C
HETATM   30  O5  UNL     1      18.145  32.003  15.379  1.00  0.00    -0.271 OA
ATOM     31  H2  UNL     1      20.316  33.816  16.859  1.00  0.00     0.163 HD
BRANCH  29  32
HETATM   32  C11 UNL     1      17.642  33.840  16.704  1.00  0.00     0.182 C
BRANCH  32  33
HETATM   33  N3  UNL     1      18.202  35.182  16.788  1.00  0.00    -0.323 N
HETATM   34  C12 UNL     1      18.288  35.819  18.045  1.00  0.00     0.362 C
HETATM   35  O6  UNL     1      17.873  35.219  19.071  1.00  0.00    -0.238 OA
ATOM     36  H3  UNL     1      18.528  35.657  15.947  1.00  0.00     0.165 HD
BRANCH  34  37
HETATM   37  O7  UNL     1      18.813  37.091  18.222  1.00  0.00    -0.294 OA
BRANCH  37  38
HETATM   38  C13 UNL     1      18.103  38.258  17.806  1.00  0.00     0.061 C
HETATM   39  C14 UNL     1      16.808  37.928  17.140  1.00  0.00     0.046 C
HETATM   40  C15 UNL     1      18.961  39.060  16.880  1.00  0.00     0.046 C
HETATM   41  C16 UNL     1      17.801  39.100  19.046  1.00  0.00     0.046 C
ENDBRANCH  37  38
ENDBRANCH  34  37
ENDBRANCH  32  33
BRANCH  32  42
HETATM   42  C17 UNL     1      16.422  33.982  15.825  1.00  0.00     0.009 C
HETATM   43  C18 UNL     1      15.184  34.216  16.663  1.00  0.00     0.012 C
HETATM   44  C19 UNL     1      16.513  35.001  14.750  1.00  0.00     0.012 C
ENDBRANCH  32  42
ENDBRANCH  29  32
ENDBRANCH   1  28
TORSDOF 16
ENDMDL