MODEL 5
REMARK VINA RESULT: -7.512835978      2.196      5.063
REMARK  14 active torsions:
REMARK  status: ('A' for Active; 'I' for Inactive)
REMARK    1  A    between atoms: C2_2  and  O1_3
REMARK    2  A    between atoms: O1_3  and  C3_4
REMARK    3  A    between atoms: C5_6  and  N1_7
REMARK    4  A    between atoms: N1_7  and  C6_8
REMARK    5  A    between atoms: C7_11  and  C8_12
REMARK    6  A    between atoms: C12_16  and  O2_17
REMARK    7  A    between atoms: C14_19  and  O3_20
REMARK    8  A    between atoms: C17_25  and  N4_26
REMARK    9  A    between atoms: N4_26  and  C18_28
REMARK   10  A    between atoms: C18_28  and  C19_29
REMARK   11  A    between atoms: C19_29  and  N5_30
REMARK   12  A    between atoms: N5_30  and  C20_31
REMARK   13  A    between atoms: N5_30  and  C22_33
REMARK   14  A    between atoms: C26_39  and  N7_40
ROOT
HETATM    1  C6  UNL     1      17.589  31.297  14.361  1.00  0.00     0.275 A
HETATM    2  N2  UNL     1      18.638  32.023  14.878  1.00  0.00    -0.301 N
ATOM      3  H2  UNL     1      19.557  31.921  14.447  1.00  0.00     0.171 HD
HETATM    4  C7  UNL     1      18.511  32.853  15.919  1.00  0.00     0.135 A
HETATM    5  N3  UNL     1      17.296  32.955  16.450  1.00  0.00    -0.176 N
ATOM      6  H3  UNL     1      17.175  33.580  17.247  1.00  0.00     0.186 HD
HETATM    7  C17 UNL     1      16.209  32.283  16.002  1.00  0.00     0.683 A
HETATM    8  N6  UNL     1      16.359  31.465  14.968  1.00  0.00    -0.149 N
ATOM      9  H6  UNL     1      15.551  30.951  14.616  1.00  0.00     0.188 HD
ENDROOT
BRANCH   1  10
HETATM   10  N1  UNL     1      17.730  30.536  13.476  1.00  0.00    -0.371 NA
BRANCH  10  11
HETATM   11  C5  UNL     1      17.875  29.688  12.465  1.00  0.00     0.114 A
HETATM   12  C4  UNL     1      19.105  29.107  12.134  1.00  0.00     0.084 A
HETATM   13  C3  UNL     1      19.245  28.239  11.088  1.00  0.00     0.099 A
HETATM   14  C26 UNL     1      18.172  27.879  10.296  1.00  0.00     0.072 A
HETATM   15  C25 UNL     1      16.949  28.438  10.600  1.00  0.00     0.036 A
HETATM   16  C24 UNL     1      16.794  29.305  11.635  1.00  0.00     0.047 A
BRANCH  13  17
HETATM   17  O1  UNL     1      20.465  27.665  10.758  1.00  0.00    -0.349 OA
BRANCH  17  18
HETATM   18  C2  UNL     1      21.218  27.013  11.757  1.00  0.00     0.171 C
HETATM   19  C1  UNL     1      21.581  25.596  11.317  1.00  0.00     0.034 C
ENDBRANCH  17  18
ENDBRANCH  13  17
BRANCH  14  20
HETATM   20  N7  UNL     1      18.308  26.959   9.227  1.00  0.00    -0.296 N
HETATM   21  C27 UNL     1      18.599  27.199   7.847  1.00  0.00     0.154 C
HETATM   22  C28 UNL     1      18.577  25.876   7.163  1.00  0.00     0.144 C
HETATM   23  N8  UNL     1      18.042  24.942   8.112  1.00  0.00    -0.341 N
HETATM   24  C29 UNL     1      18.197  25.542   9.390  1.00  0.00     0.323 C
ATOM     25  H8  UNL     1      17.632  24.031   7.909  1.00  0.00     0.164 HD
HETATM   26  O4  UNL     1      18.231  24.926  10.486  1.00  0.00    -0.247 OA
ENDBRANCH  14  20
ENDBRANCH  10  11
ENDBRANCH   1  10
BRANCH   4  27
HETATM   27  C8  UNL     1      19.651  33.656  16.324  1.00  0.00     0.012 A
HETATM   28  C9  UNL     1      19.437  34.828  17.078  1.00  0.00     0.025 A
HETATM   29  C10 UNL     1      20.432  35.672  17.425  1.00  0.00    -0.025 A
HETATM   30  C11 UNL     1      20.181  36.912  18.250  1.00  0.00     0.051 C
HETATM   31  C12 UNL     1      21.709  35.397  17.037  1.00  0.00     0.107 A
HETATM   32  C14 UNL     1      22.014  34.235  16.276  1.00  0.00     0.102 A
HETATM   33  C16 UNL     1      20.938  33.406  15.954  1.00  0.00     0.055 A
BRANCH  31  34
HETATM   34  O2  UNL     1      22.741  36.220  17.355  1.00  0.00    -0.353 OA
HETATM   35  C13 UNL     1      22.811  37.597  17.409  1.00  0.00     0.210 C
ENDBRANCH  31  34
BRANCH  32  36
HETATM   36  O3  UNL     1      23.287  34.033  15.924  1.00  0.00    -0.353 OA
HETATM   37  C15 UNL     1      23.982  33.278  15.071  1.00  0.00     0.210 C
ENDBRANCH  32  36
ENDBRANCH   4  27
BRANCH   7  38
HETATM   38  N4  UNL     1      15.026  32.452  16.552  1.00  0.00    -0.224 N
ATOM     39  H4  UNL     1      14.514  31.660  16.941  1.00  0.00     0.177 HD
BRANCH  38  40
HETATM   40  C18 UNL     1      14.474  33.773  16.595  1.00  0.00     0.168 C
BRANCH  40  41
HETATM   41  C19 UNL     1      14.700  34.521  17.872  1.00  0.00     0.292 C
BRANCH  41  42
HETATM   42  N5  UNL     1      14.967  35.899  17.671  1.00  0.00     0.089 N
BRANCH  42  43
HETATM   43  C20 UNL     1      16.144  36.038  16.820  1.00  0.00     0.268 C
HETATM   44  C21 UNL     1      16.767  37.387  17.056  1.00  0.00     0.037 C
ENDBRANCH  42  43
BRANCH  42  45
HETATM   45  C22 UNL     1      15.115  36.634  18.896  1.00  0.00     0.268 C
HETATM   46  C23 UNL     1      13.936  37.569  19.130  1.00  0.00     0.037 C
ENDBRANCH  42  45
ENDBRANCH  41  42
ENDBRANCH  40  41
ENDBRANCH  38  40
ENDBRANCH   7  38
TORSDOF 14
ENDMDL