MODEL 3
REMARK VINA RESULT: -8.119586735      2.658      8.732
REMARK  17 active torsions:
REMARK  status: ('A' for Active; 'I' for Inactive)
REMARK    1  A    between atoms: C2_2  and  C4_4
REMARK    2  A    between atoms: C4_4  and  C5_5
REMARK    3  A    between atoms: C5_5  and  N1_6
REMARK    4  A    between atoms: C5_5  and  C25_34
REMARK    5  A    between atoms: N1_6  and  C6_8
REMARK    6  A    between atoms: C6_8  and  O1_9
REMARK    7  A    between atoms: C6_8  and  C7_11
REMARK       I    between atoms: N2_18  and  C14_19
REMARK    8  A    between atoms: C14_19  and  C15_21
REMARK    9  A    between atoms: C15_21  and  C16_22
REMARK   10  A    between atoms: C15_21  and  N3_26
REMARK   11  A    between atoms: C16_22  and  C17_23
REMARK       I    between atoms: N3_26  and  C20_27
REMARK   12  A    between atoms: C20_27  and  O4_29
REMARK   13  A    between atoms: O4_29  and  C21_30
REMARK   14  A    between atoms: C25_34  and  C26_36
REMARK   15  A    between atoms: C26_36  and  O7_38
REMARK   16  A    between atoms: O7_38  and  C27_39
REMARK   17  A    between atoms: C27_39  and  C28_40
ROOT
HETATM    1  C7  UNL     1      20.311  31.552  15.540  1.00  0.00     0.162 C
HETATM    2  C8  UNL     1      21.714  31.568  16.214  1.00  0.00     0.034 C
HETATM    3  C9  UNL     1      22.779  32.075  15.313  1.00  0.00     0.002 C
HETATM    4  C10 UNL     1      23.346  33.358  15.943  1.00  0.00     0.000 C
HETATM    5  C11 UNL     1      22.520  34.506  15.486  1.00  0.00     0.002 C
HETATM    6  C12 UNL     1      21.257  34.632  16.277  1.00  0.00     0.020 C
HETATM    7  C13 UNL     1      20.030  34.128  15.620  1.00  0.00     0.127 C
HETATM    8  N2  UNL     1      19.599  32.754  15.910  1.00  0.00    -0.334 N
HETATM    9  C14 UNL     1      18.336  32.736  16.422  1.00  0.00     0.281 C
HETATM   10  O2  UNL     1      17.707  31.603  16.330  1.00  0.00    -0.265 OA
ENDROOT
BRANCH   1  11
HETATM   11  C6  UNL     1      19.714  30.239  15.696  1.00  0.00     0.135 C
BRANCH  11  12
HETATM   12  N1  UNL     1      19.048  29.405  14.823  1.00  0.00    -0.361 N
ATOM     13  H1  UNL     1      18.288  28.867  15.239  1.00  0.00     0.162 HD
BRANCH  12  14
HETATM   14  C5  UNL     1      19.260  29.171  13.399  1.00  0.00     0.164 C
BRANCH  14  15
HETATM   15  C4  UNL     1      18.079  29.672  12.592  1.00  0.00     0.037 C
BRANCH  15  16
HETATM   16  C2  UNL     1      17.666  28.918  11.386  1.00  0.00    -0.020 C
HETATM   17  C1  UNL     1      17.770  27.413  11.837  1.00  0.00     0.009 C
HETATM   18  C3  UNL     1      16.180  29.023  11.046  1.00  0.00     0.009 C
ENDBRANCH  15  16
ENDBRANCH  14  15
BRANCH  14  19
HETATM   19  C25 UNL     1      20.579  29.464  12.924  1.00  0.00     0.246 C
HETATM   20  O5  UNL     1      20.730  30.531  12.213  1.00  0.00    -0.284 OA
BRANCH  19  21
HETATM   21  C26 UNL     1      21.778  28.689  13.157  1.00  0.00     0.332 C
HETATM   22  O6  UNL     1      22.121  28.433  14.337  1.00  0.00    -0.256 OA
BRANCH  21  23
HETATM   23  O7  UNL     1      22.527  28.236  12.114  1.00  0.00    -0.305 OA
BRANCH  23  24
HETATM   24  C27 UNL     1      22.657  26.904  11.724  1.00  0.00     0.292 C
BRANCH  24  25
HETATM   25  C28 UNL     1      24.036  26.438  11.797  1.00  0.00     0.198 C
HETATM   26  O8  UNL     1      24.321  25.254  11.518  1.00  0.00    -0.646 OA
HETATM   27  O9  UNL     1      25.060  27.291  12.165  1.00  0.00    -0.646 OA
ENDBRANCH  24  25
ENDBRANCH  23  24
ENDBRANCH  21  23
ENDBRANCH  19  21
ENDBRANCH  14  19
ENDBRANCH  12  14
ENDBRANCH  11  12
BRANCH  11  28
HETATM   28  O1  UNL     1      19.851  29.772  16.923  1.00  0.00    -0.348 OA
ATOM     29  H1  UNL     1      20.487  29.073  17.019  1.00  0.00     0.219 HD
ENDBRANCH  11  28
ENDBRANCH   1  11
BRANCH   9  30
HETATM   30  C15 UNL     1      17.431  33.747  17.092  1.00  0.00     0.158 C
BRANCH  30  31
HETATM   31  C16 UNL     1      15.980  33.445  17.071  1.00  0.00     0.082 C
BRANCH  31  32
HETATM   32  C17 UNL     1      15.085  34.702  17.135  1.00  0.00    -0.016 C
HETATM   33  C18 UNL     1      14.973  35.312  18.476  1.00  0.00     0.010 C
HETATM   34  C19 UNL     1      13.688  34.217  16.712  1.00  0.00     0.010 C
ENDBRANCH  31  32
ENDBRANCH  30  31
BRANCH  30  35
HETATM   35  N3  UNL     1      18.012  34.588  17.885  1.00  0.00    -0.345 NA
HETATM   36  C20 UNL     1      18.676  35.523  18.779  1.00  0.00     0.441 C
HETATM   37  O3  UNL     1      19.769  35.264  19.349  1.00  0.00    -0.221 OA
BRANCH  36  38
HETATM   38  O4  UNL     1      18.142  36.774  19.066  1.00  0.00    -0.282 OA
BRANCH  38  39
HETATM   39  C21 UNL     1      18.393  37.840  18.137  1.00  0.00     0.062 C
HETATM   40  C22 UNL     1      19.750  37.778  17.542  1.00  0.00     0.046 C
HETATM   41  C23 UNL     1      17.339  37.752  17.042  1.00  0.00     0.046 C
HETATM   42  C24 UNL     1      18.132  39.180  18.817  1.00  0.00     0.046 C
ENDBRANCH  38  39
ENDBRANCH  36  38
ENDBRANCH  30  35
ENDBRANCH   9  30
TORSDOF 17
ENDMDL