MODEL 2
REMARK VINA RESULT: -7.371628265      2.282      8.324
REMARK  14 active torsions:
REMARK  status: ('A' for Active; 'I' for Inactive)
REMARK    1  A    between atoms: C2_2  and  C3_3
REMARK    2  A    between atoms: C3_3  and  C4_4
REMARK    3  A    between atoms: C4_4  and  N1_5
REMARK    4  A    between atoms: C9_10  and  C10_11
REMARK    5  A    between atoms: C10_11  and  C11_12
REMARK    6  A    between atoms: C12_14  and  C13_15
REMARK    7  A    between atoms: C13_15  and  C14_16
REMARK    8  A    between atoms: C19_21  and  N2_22
REMARK       I    between atoms: N2_22  and  C20_24
REMARK    9  A    between atoms: C20_24  and  C21_26
REMARK   10  A    between atoms: C22_29  and  O5_30
REMARK   11  A    between atoms: C25_33  and  O6_34
REMARK   12  A    between atoms: C26_36  and  O7_37
REMARK   13  A    between atoms: O7_37  and  C27_38
REMARK   14  A    between atoms: C27_38  and  O8_39
ROOT
HETATM    1  C11 UNL     1      20.801  32.901  15.146  1.00  0.00     0.155 C
HETATM    2  O1  UNL     1      19.709  32.980  14.365  1.00  0.00    -0.372 OA
HETATM    3  C12 UNL     1      18.946  31.970  13.993  1.00  0.00     0.069 C
HETATM    4  C18 UNL     1      19.362  31.247  12.731  1.00  0.00     0.066 C
HETATM    5  C19 UNL     1      19.668  29.813  13.156  1.00  0.00     0.125 C
HETATM    6  C22 UNL     1      19.831  29.892  14.625  1.00  0.00     0.112 C
HETATM    7  C24 UNL     1      18.697  30.842  14.944  1.00  0.00     0.081 C
HETATM    8  C25 UNL     1      21.077  30.365  15.214  1.00  0.00     0.186 C
HETATM    9  C26 UNL     1      21.646  31.683  15.037  1.00  0.00     0.184 C
ENDROOT
BRANCH   1  10
HETATM   10  C10 UNL     1      20.452  33.352  16.533  1.00  0.00     0.048 C
BRANCH  10  11
HETATM   11  C9  UNL     1      20.176  34.794  16.730  1.00  0.00     0.081 C
HETATM   12  C8  UNL     1      21.413  35.431  17.424  1.00  0.00     0.020 C
HETATM   13  C6  UNL     1      21.265  36.900  17.228  1.00  0.00     0.000 C
HETATM   14  C5  UNL     1      19.864  37.417  17.391  1.00  0.00     0.130 C
HETATM   15  C7  UNL     1      22.270  37.601  18.133  1.00  0.00     0.011 C
HETATM   16  N1  UNL     1      18.940  36.513  18.000  1.00  0.00    -0.351 N
HETATM   17  C29 UNL     1      19.077  35.109  17.683  1.00  0.00     0.224 C
HETATM   18  O9  UNL     1      18.300  34.318  18.212  1.00  0.00    -0.273 OA
BRANCH  16  19
HETATM   19  C4  UNL     1      17.879  36.925  18.860  1.00  0.00     0.125 C
BRANCH  19  20
HETATM   20  C3  UNL     1      16.595  37.317  18.211  1.00  0.00     0.020 C
BRANCH  20  21
HETATM   21  C2  UNL     1      15.426  36.432  18.398  1.00  0.00    -0.003 C
HETATM   22  C1  UNL     1      14.190  37.099  18.947  1.00  0.00     0.005 C
ENDBRANCH  20  21
ENDBRANCH  19  20
ENDBRANCH  16  19
ENDBRANCH  10  11
ENDBRANCH   1  10
BRANCH   9  23
HETATM   23  O7  UNL     1      22.537  31.793  13.932  1.00  0.00    -0.356 OA
BRANCH  23  24
HETATM   24  C27 UNL     1      23.219  32.974  13.887  1.00  0.00     0.337 C
BRANCH  24  25
HETATM   25  O8  UNL     1      24.331  32.899  14.711  1.00  0.00    -0.372 OA
HETATM   26  C28 UNL     1      24.215  33.872  15.694  1.00  0.00     0.204 C
ENDBRANCH  24  25
ENDBRANCH  23  24
ENDBRANCH   9  23
BRANCH   3  27
HETATM   27  C13 UNL     1      17.554  32.583  13.735  1.00  0.00     0.065 C
BRANCH  27  28
HETATM   28  C14 UNL     1      16.647  32.426  14.875  1.00  0.00    -0.022 C
HETATM   29  C15 UNL     1      16.147  33.479  15.492  1.00  0.00    -0.091 C
HETATM   30  C16 UNL     1      16.468  34.863  15.075  1.00  0.00     0.042 C
HETATM   31  C17 UNL     1      15.221  33.306  16.659  1.00  0.00     0.042 C
ENDBRANCH  27  28
ENDBRANCH   3  27
BRANCH   8  32
HETATM   32  O6  UNL     1      22.098  29.431  14.889  1.00  0.00    -0.390 OA
ATOM     33  H6  UNL     1      21.690  28.582  14.766  1.00  0.00     0.210 HD
ENDBRANCH   8  32
BRANCH   6  34
HETATM   34  O5  UNL     1      19.633  28.621  15.158  1.00  0.00    -0.380 OA
HETATM   35  C23 UNL     1      18.518  27.947  14.823  1.00  0.00     0.202 C
ENDBRANCH   6  34
BRANCH   5  36
HETATM   36  N2  UNL     1      20.635  29.146  12.386  1.00  0.00    -0.344 N
HETATM   37  C20 UNL     1      20.392  27.953  11.657  1.00  0.00     0.318 C
HETATM   38  O2  UNL     1      19.257  27.385  11.644  1.00  0.00    -0.261 OA
ATOM     39  H2  UNL     1      21.572  29.545  12.348  1.00  0.00     0.163 HD
BRANCH  37  40
HETATM   40  C21 UNL     1      21.436  27.296  10.870  1.00  0.00     0.270 C
HETATM   41  O3  UNL     1      22.568  27.884  10.802  1.00  0.00    -0.640 OA
HETATM   42  O4  UNL     1      21.238  26.090  10.215  1.00  0.00    -0.640 OA
ENDBRANCH  37  40
ENDBRANCH   5  36
TORSDOF 14
ENDMDL