MODEL 4
REMARK VINA RESULT: -8.765563788      3.215     11.021
REMARK  13 active torsions:
REMARK  status: ('A' for Active; 'I' for Inactive)
REMARK    1  A    between atoms: C2_2  and  C4_4
REMARK    2  A    between atoms: C7_10  and  C8_11
REMARK    3  A    between atoms: C8_11  and  C9_12
REMARK    4  A    between atoms: C9_12  and  C10_13
REMARK    5  A    between atoms: N2_15  and  C12_16
REMARK    6  A    between atoms: C12_16  and  C13_17
REMARK       I    between atoms: C13_17  and  N3_19
REMARK    7  A    between atoms: N3_19  and  C14_21
REMARK    8  A    between atoms: C14_21  and  C15_22
REMARK    9  A    between atoms: C15_22  and  S2_23
REMARK   10  A    between atoms: C17_27  and  C18_28
REMARK   11  A    between atoms: C18_28  and  C19_29
REMARK       I    between atoms: C19_29  and  N4_31
REMARK   12  A    between atoms: N4_31  and  C20_33
REMARK   13  A    between atoms: C20_33  and  C21_34
ROOT
HETATM    1  C4  UNL     1      21.456  31.744  15.306  1.00  0.00     0.021 A
HETATM    2  S1  UNL     1      22.218  31.420  13.761  1.00  0.00    -0.069 SA
HETATM    3  C5  UNL     1      21.319  30.062  13.298  1.00  0.00     0.106 A
HETATM    4  C6  UNL     1      20.461  29.878  14.317  1.00  0.00     0.076 A
HETATM    5  N1  UNL     1      19.718  28.796  13.973  1.00  0.00    -0.343 N
ATOM      6  H1  UNL     1      18.972  28.399  14.545  1.00  0.00     0.167 HD
HETATM    7  C7  UNL     1      20.105  28.310  12.755  1.00  0.00     0.085 A
HETATM    8  N2  UNL     1      21.097  29.091  12.341  1.00  0.00    -0.320 N
HETATM    9  C17 UNL     1      20.534  30.764  15.373  1.00  0.00    -0.002 A
ENDROOT
BRANCH   9  10
HETATM   10  C18 UNL     1      19.522  30.633  16.524  1.00  0.00     0.145 C
BRANCH  10  11
HETATM   11  C19 UNL     1      18.279  31.279  16.159  1.00  0.00     0.222 C
HETATM   12  O4  UNL     1      17.404  30.712  15.485  1.00  0.00    -0.273 OA
HETATM   13  N4  UNL     1      18.001  32.637  16.574  1.00  0.00    -0.356 N
ATOM     14  H4  UNL     1      18.698  33.125  17.138  1.00  0.00     0.162 HD
BRANCH  13  15
HETATM   15  C20 UNL     1      16.811  33.318  16.237  1.00  0.00     0.167 C
BRANCH  15  16
HETATM   16  C21 UNL     1      16.376  34.460  17.035  1.00  0.00     0.033 A
HETATM   17  C22 UNL     1      14.994  34.529  17.322  1.00  0.00    -0.047 A
HETATM   18  C23 UNL     1      14.066  33.513  16.759  1.00  0.00     0.049 C
HETATM   19  C24 UNL     1      14.579  35.558  18.120  1.00  0.00     0.032 A
HETATM   20  C25 UNL     1      15.486  36.483  18.619  1.00  0.00     0.009 A
HETATM   21  C26 UNL     1      14.985  37.591  19.494  1.00  0.00     0.068 C
HETATM   22  N5  UNL     1      16.764  36.390  18.332  1.00  0.00    -0.327 N
HETATM   23  C27 UNL     1      17.236  35.400  17.552  1.00  0.00     0.254 A
ATOM     24  H5  UNL     1      17.412  37.081  18.709  1.00  0.00     0.169 HD
HETATM   25  O5  UNL     1      18.497  35.398  17.340  1.00  0.00    -0.268 OA
ENDBRANCH  15  16
ENDBRANCH  13  15
ENDBRANCH  10  11
ENDBRANCH   9  10
BRANCH   1  26
HETATM   26  C2  UNL     1      21.837  32.854  16.188  1.00  0.00    -0.054 C
HETATM   27  C1  UNL     1      22.454  32.542  17.308  1.00  0.00     0.020 C
HETATM   28  C3  UNL     1      21.526  34.260  15.925  1.00  0.00     0.049 C
ENDBRANCH   1  26
BRANCH   8  29
HETATM   29  C12 UNL     1      21.905  29.079  11.164  1.00  0.00     0.234 C
BRANCH  29  30
HETATM   30  C13 UNL     1      22.909  27.987  11.296  1.00  0.00     0.235 C
HETATM   31  O1  UNL     1      23.532  27.861  12.405  1.00  0.00    -0.272 OA
HETATM   32  N3  UNL     1      23.156  27.119  10.216  1.00  0.00    -0.359 N
ATOM     33  H3  UNL     1      22.627  27.278   9.360  1.00  0.00     0.162 HD
BRANCH  32  34
HETATM   34  C14 UNL     1      24.090  26.030  10.217  1.00  0.00     0.137 C
BRANCH  34  35
HETATM   35  C15 UNL     1      23.380  24.740   9.909  1.00  0.00     0.159 C
BRANCH  35  36
HETATM   36  S2  UNL     1      23.090  24.560   8.158  1.00  0.00     0.142 S
HETATM   37  C16 UNL     1      23.709  22.994   7.630  1.00  0.00     0.161 C
HETATM   38  O2  UNL     1      21.578  24.517   7.998  1.00  0.00    -0.228 OA
HETATM   39  O3  UNL     1      23.702  25.681   7.404  1.00  0.00    -0.228 OA
ENDBRANCH  35  36
ENDBRANCH  34  35
ENDBRANCH  32  34
ENDBRANCH  29  30
ENDBRANCH   8  29
BRANCH   7  40
HETATM   40  C8  UNL     1      19.453  27.147  12.137  1.00  0.00     0.076 C
BRANCH  40  41
HETATM   41  C9  UNL     1      18.040  27.242  11.795  1.00  0.00     0.007 C
BRANCH  41  42
HETATM   42  C10 UNL     1      17.823  28.510  10.909  1.00  0.00    -0.004 C
HETATM   43  C11 UNL     1      16.394  28.953  10.996  1.00  0.00     0.005 C
ENDBRANCH  41  42
ENDBRANCH  40  41
ENDBRANCH   7  40
TORSDOF 13
ENDMDL