MODEL 4
REMARK VINA RESULT: -8.229362307      1.898      5.854
REMARK  15 active torsions:
REMARK  status: ('A' for Active; 'I' for Inactive)
REMARK    1  A    between atoms: C2_2  and  C3_3
REMARK    2  A    between atoms: C3_3  and  O1_4
REMARK    3  A    between atoms: O1_4  and  C4_5
REMARK    4  A    between atoms: C8_9  and  C9_10
REMARK    5  A    between atoms: C9_10  and  N1_11
REMARK    6  A    between atoms: C9_10  and  N6_40
REMARK    7  A    between atoms: N1_11  and  C10_13
REMARK    8  A    between atoms: C11_16  and  N3_17
REMARK    9  A    between atoms: N3_17  and  C12_19
REMARK   10  A    between atoms: C12_19  and  C13_20
REMARK   11  A    between atoms: C13_20  and  C14_21
REMARK   12  A    between atoms: C14_21  and  N4_22
REMARK   13  A    between atoms: C21_30  and  O3_31
REMARK   14  A    between atoms: C23_33  and  O4_34
REMARK   15  A    between atoms: C29_44  and  O5_45
ROOT
HETATM    1  C10 UNL     1      18.512  30.191  15.148  1.00  0.00     0.682 A
HETATM    2  N2  UNL     1      19.832  30.466  15.331  1.00  0.00    -0.176 N
ATOM      3  H2  UNL     1      20.094  31.165  16.027  1.00  0.00     0.186 HD
HETATM    4  C11 UNL     1      20.799  29.858  14.638  1.00  0.00     0.133 A
HETATM    5  C19 UNL     1      20.433  28.916  13.698  1.00  0.00     0.039 A
HETATM    6  C20 UNL     1      21.381  28.270  12.967  1.00  0.00     0.057 A
HETATM    7  C21 UNL     1      21.057  27.334  12.031  1.00  0.00     0.102 A
HETATM    8  C23 UNL     1      19.708  27.038  11.829  1.00  0.00     0.103 A
HETATM    9  C25 UNL     1      18.723  27.670  12.549  1.00  0.00     0.070 A
HETATM   10  C26 UNL     1      19.084  28.611  13.486  1.00  0.00     0.066 A
HETATM   11  N5  UNL     1      18.166  29.262  14.220  1.00  0.00    -0.191 N
ATOM     12  H5  UNL     1      17.178  29.051  14.076  1.00  0.00     0.184 HD
ENDROOT
BRANCH   1  13
HETATM   13  N1  UNL     1      17.594  30.789  15.830  1.00  0.00    -0.201 N
ATOM     14  H1  UNL     1      17.469  30.531  16.809  1.00  0.00     0.180 HD
BRANCH  13  15
HETATM   15  C9  UNL     1      16.732  31.811  15.267  1.00  0.00     0.228 C
BRANCH  15  16
HETATM   16  C8  UNL     1      16.402  32.841  16.274  1.00  0.00    -0.013 A
HETATM   17  C7  UNL     1      15.132  33.332  16.372  1.00  0.00     0.020 A
HETATM   18  C5  UNL     1      14.792  34.317  17.310  1.00  0.00    -0.025 A
HETATM   19  C4  UNL     1      15.739  34.827  18.173  1.00  0.00     0.108 A
HETATM   20  C6  UNL     1      13.392  34.833  17.387  1.00  0.00     0.051 C
HETATM   21  C29 UNL     1      17.021  34.314  18.059  1.00  0.00     0.102 A
HETATM   22  C28 UNL     1      17.350  33.353  17.142  1.00  0.00     0.050 A
BRANCH  19  23
HETATM   23  O1  UNL     1      15.430  35.799  19.108  1.00  0.00    -0.344 OA
BRANCH  23  24
HETATM   24  C3  UNL     1      15.568  37.166  18.712  1.00  0.00     0.202 C
BRANCH  24  25
HETATM   25  C2  UNL     1      14.500  38.001  19.293  1.00  0.00    -0.011 C
HETATM   26  C1  UNL     1      14.811  38.951  20.157  1.00  0.00     0.009 C
ENDBRANCH  24  25
ENDBRANCH  23  24
ENDBRANCH  19  23
BRANCH  21  27
HETATM   27  O5  UNL     1      17.965  34.837  18.937  1.00  0.00    -0.353 OA
HETATM   28  C30 UNL     1      18.912  35.748  18.432  1.00  0.00     0.210 C
ENDBRANCH  21  27
ENDBRANCH  15  16
BRANCH  15  29
HETATM   29  N6  UNL     1      17.362  32.462  14.138  1.00  0.00    -0.402 N
HETATM   30  C27 UNL     1      17.945  33.731  14.427  1.00  0.00     0.142 C
ATOM     31  H6  UNL     1      17.387  32.045  13.208  1.00  0.00     0.155 HD
ENDBRANCH  15  29
ENDBRANCH  13  15
ENDBRANCH   1  13
BRANCH   4  32
HETATM   32  N3  UNL     1      22.012  30.119  14.815  1.00  0.00    -0.355 N
ATOM     33  H3  UNL     1      22.517  29.366  15.282  1.00  0.00     0.166 HD
BRANCH  32  34
HETATM   34  C12 UNL     1      22.824  31.218  14.513  1.00  0.00     0.064 C
BRANCH  34  35
HETATM   35  C13 UNL     1      22.109  32.429  13.972  1.00  0.00     0.074 C
BRANCH  35  36
HETATM   36  C14 UNL     1      22.468  33.587  14.881  1.00  0.00     0.277 C
BRANCH  36  37
HETATM   37  N4  UNL     1      21.350  34.035  15.664  1.00  0.00     0.092 N
HETATM   38  C15 UNL     1      21.547  35.433  15.968  1.00  0.00     0.298 C
HETATM   39  C16 UNL     1      22.570  35.638  17.072  1.00  0.00     0.198 C
HETATM   40  O2  UNL     1      22.277  34.899  18.204  1.00  0.00    -0.388 OA
HETATM   41  C17 UNL     1      22.317  33.531  17.863  1.00  0.00     0.198 C
HETATM   42  C18 UNL     1      21.176  33.316  16.888  1.00  0.00     0.298 C
ENDBRANCH  36  37
ENDBRANCH  35  36
ENDBRANCH  34  35
ENDBRANCH  32  34
ENDBRANCH   4  32
BRANCH   8  43
HETATM   43  O4  UNL     1      19.457  26.073  10.859  1.00  0.00    -0.353 OA
HETATM   44  C24 UNL     1      18.167  25.533  10.656  1.00  0.00     0.210 C
ENDBRANCH   8  43
BRANCH   7  45
HETATM   45  O3  UNL     1      22.052  26.711  11.319  1.00  0.00    -0.353 OA
HETATM   46  C22 UNL     1      23.384  26.798  11.746  1.00  0.00     0.210 C
ENDBRANCH   7  45
TORSDOF 15
ENDMDL