MODEL 3
REMARK VINA RESULT: -6.777688564      1.303      2.633
REMARK  14 active torsions:
REMARK  status: ('A' for Active; 'I' for Inactive)
REMARK    1  A    between atoms: C2_2  and  N1_3
REMARK    2  A    between atoms: N1_3  and  C3_4
REMARK    3  A    between atoms: N1_3  and  C5_6
REMARK    4  A    between atoms: C5_6  and  C6_7
REMARK       I    between atoms: C6_7  and  N2_9
REMARK    5  A    between atoms: C7_11  and  N3_12
REMARK    6  A    between atoms: C7_11  and  C12_19
REMARK       I    between atoms: N3_12  and  C8_14
REMARK    7  A    between atoms: C8_14  and  C9_16
REMARK    8  A    between atoms: C13_20  and  C14_21
REMARK       I    between atoms: C14_21  and  N4_23
REMARK    9  A    between atoms: N4_23  and  C15_25
REMARK   10  A    between atoms: C19_29  and  C20_30
REMARK   11  A    between atoms: C20_30  and  C21_31
REMARK   12  A    between atoms: C20_30  and  N5_35
REMARK   13  A    between atoms: C21_31  and  C22_32
REMARK   14  A    between atoms: N5_35  and  C25_37
ROOT
HETATM    1  C12 UNL     1      20.171  35.694  18.129  1.00  0.00     0.078 A
HETATM    2  C13 UNL     1      20.318  37.078  17.428  1.00  0.00     0.100 A
HETATM    3  C19 UNL     1      19.184  36.756  18.293  1.00  0.00     0.057 A
ENDROOT
BRANCH   1   4
HETATM    4  C7  UNL     1      20.119  34.590  17.178  1.00  0.00     0.092 C
HETATM    5  N2  UNL     1      20.946  33.567  17.281  1.00  0.00    -0.311 N
HETATM    6  C6  UNL     1      20.927  32.479  16.402  1.00  0.00     0.262 C
ATOM      7  H2  UNL     1      21.630  33.570  18.037  1.00  0.00     0.170 HD
HETATM    8  O1  UNL     1      20.104  31.576  16.561  1.00  0.00    -0.267 OA
BRANCH   6   9
HETATM    9  C5  UNL     1      21.898  32.422  15.289  1.00  0.00     0.164 C
BRANCH   9  10
HETATM   10  N1  UNL     1      21.386  31.655  14.228  1.00  0.00    -0.366 N
BRANCH  10  11
HETATM   11  C2  UNL     1      22.151  30.607  13.699  1.00  0.00     0.059 C
HETATM   12  C1  UNL     1      21.774  29.242  14.247  1.00  0.00     0.055 C
ENDBRANCH  10  11
BRANCH  10  13
HETATM   13  C3  UNL     1      20.396  32.267  13.443  1.00  0.00     0.123 C
HETATM   14  C4  UNL     1      19.230  31.329  13.120  1.00  0.00     0.027 C
ENDBRANCH  10  13
ENDBRANCH   9  10
ENDBRANCH   6   9
BRANCH   4  15
HETATM   15  N3  UNL     1      19.196  34.524  16.113  1.00  0.00    -0.316 N
HETATM   16  C8  UNL     1      18.029  33.722  16.051  1.00  0.00     0.226 C
HETATM   17  O2  UNL     1      17.733  32.981  17.012  1.00  0.00    -0.273 OA
ATOM     18  H3  UNL     1      19.389  35.115  15.304  1.00  0.00     0.170 HD
BRANCH  16  19
HETATM   19  C9  UNL     1      17.128  33.730  14.866  1.00  0.00     0.070 C
HETATM   20  C10 UNL     1      16.542  35.122  14.757  1.00  0.00     0.019 C
HETATM   21  C11 UNL     1      15.989  32.774  15.124  1.00  0.00     0.019 C
ENDBRANCH  16  19
ENDBRANCH   4  15
ENDBRANCH   1   4
BRANCH   2  22
HETATM   22  C14 UNL     1      21.506  37.802  17.852  1.00  0.00     0.224 C
HETATM   23  O3  UNL     1      22.595  37.209  18.004  1.00  0.00    -0.273 OA
HETATM   24  N4  UNL     1      21.438  39.194  18.097  1.00  0.00    -0.353 N
ATOM     25  H4  UNL     1      20.543  39.665  17.969  1.00  0.00     0.163 HD
BRANCH  24  26
HETATM   26  C15 UNL     1      22.575  39.981  18.521  1.00  0.00     0.022 C
HETATM   27  C16 UNL     1      22.142  41.401  18.773  1.00  0.00     0.037 C
HETATM   28  C17 UNL     1      23.644  40.021  17.452  1.00  0.00     0.037 C
HETATM   29  C18 UNL     1      23.249  39.399  19.754  1.00  0.00     0.037 C
ENDBRANCH  24  26
ENDBRANCH   2  22
BRANCH   3  30
HETATM   30  C20 UNL     1      17.822  36.636  17.720  1.00  0.00    -0.007 C
BRANCH  30  31
HETATM   31  C21 UNL     1      16.809  35.942  18.563  1.00  0.00     0.056 C
BRANCH  31  32
HETATM   32  C22 UNL     1      15.464  35.723  18.004  1.00  0.00    -0.018 C
HETATM   33  C23 UNL     1      14.928  34.344  17.971  1.00  0.00     0.010 C
HETATM   34  C24 UNL     1      14.500  36.541  18.886  1.00  0.00     0.010 C
ENDBRANCH  31  32
ENDBRANCH  30  31
BRANCH  30  35
HETATM   35  N5  UNL     1      17.264  37.783  17.092  1.00  0.00    -0.360 N
ATOM     36  H5  UNL     1      16.699  37.615  16.259  1.00  0.00     0.165 HD
BRANCH  35  37
HETATM   37  C25 UNL     1      17.405  39.114  17.493  1.00  0.00     0.080 A
HETATM   38  C26 UNL     1      18.220  40.089  16.961  1.00  0.00     0.051 A
HETATM   39  C27 UNL     1      19.179  40.003  15.835  1.00  0.00     0.072 C
HETATM   40  N6  UNL     1      18.012  41.227  17.663  1.00  0.00    -0.301 N
HETATM   41  N7  UNL     1      17.109  41.020  18.609  1.00  0.00    -0.299 N
ATOM     42  H6  UNL     1      18.483  42.116  17.488  1.00  0.00     0.187 HD
HETATM   43  C28 UNL     1      16.625  42.000  19.559  1.00  0.00     0.177 C
HETATM   44  C29 UNL     1      16.719  39.714  18.518  1.00  0.00     0.052 A
HETATM   45  C30 UNL     1      15.694  39.155  19.450  1.00  0.00     0.072 C
ENDBRANCH  35  37
ENDBRANCH  30  35
ENDBRANCH   3  30
TORSDOF 14
ENDMDL