MODEL 3
REMARK VINA RESULT: -7.812054531      1.981      9.143
REMARK  14 active torsions:
REMARK  status: ('A' for Active; 'I' for Inactive)
REMARK    1  A    between atoms: S1_2  and  C2_3
REMARK    2  A    between atoms: C2_3  and  C3_4
REMARK    3  A    between atoms: C3_4  and  C4_5
REMARK    4  A    between atoms: C4_5  and  N1_6
REMARK    5  A    between atoms: C4_5  and  C9_16
REMARK       I    between atoms: N1_6  and  C5_8
REMARK    6  A    between atoms: C5_8  and  C6_10
REMARK       I    between atoms: C9_16  and  N3_18
REMARK    7  A    between atoms: N3_18  and  C10_20
REMARK    8  A    between atoms: C10_20  and  C11_21
REMARK    9  A    between atoms: C10_20  and  C15_25
REMARK   10  A    between atoms: C11_21  and  C12_22
REMARK   11  A    between atoms: C15_25  and  O3_26
REMARK   12  A    between atoms: C15_25  and  N4_28
REMARK   13  A    between atoms: C20_34  and  C21_35
REMARK       I    between atoms: C21_35  and  N5_37
REMARK   14  A    between atoms: N5_37  and  C22_39
ROOT
HETATM    1  C10 UNL     1      20.611  31.759  14.021  1.00  0.00     0.159 C
ENDROOT
BRANCH   1   2
HETATM    2  N3  UNL     1      19.451  32.724  14.046  1.00  0.00    -0.347 N
HETATM    3  C9  UNL     1      18.560  32.618  15.128  1.00  0.00     0.241 C
HETATM    4  O2  UNL     1      18.778  31.720  16.021  1.00  0.00    -0.271 OA
ATOM      5  H3  UNL     1      19.320  33.420  13.312  1.00  0.00     0.163 HD
BRANCH   3   6
HETATM    6  C4  UNL     1      17.391  33.452  15.338  1.00  0.00     0.177 C
BRANCH   6   7
HETATM    7  C3  UNL     1      16.304  32.659  16.041  1.00  0.00     0.045 C
BRANCH   7   8
HETATM    8  C2  UNL     1      14.991  33.398  16.120  1.00  0.00     0.076 C
BRANCH   8   9
HETATM    9  S1  UNL     1      14.694  33.983  17.826  1.00  0.00    -0.173 SA
HETATM   10  C1  UNL     1      14.412  35.750  17.906  1.00  0.00     0.089 C
ENDBRANCH   8   9
ENDBRANCH   7   8
ENDBRANCH   6   7
BRANCH   6  11
HETATM   11  N1  UNL     1      17.665  34.734  15.848  1.00  0.00    -0.342 N
HETATM   12  C5  UNL     1      18.053  35.154  17.130  1.00  0.00     0.269 C
HETATM   13  O1  UNL     1      18.221  34.313  18.046  1.00  0.00    -0.266 OA
ATOM     14  H1  UNL     1      17.565  35.488  15.169  1.00  0.00     0.163 HD
BRANCH  12  15
HETATM   15  C6  UNL     1      18.269  36.610  17.416  1.00  0.00     0.107 A
HETATM   16  C7  UNL     1      19.341  37.030  18.171  1.00  0.00     0.086 A
HETATM   17  S2  UNL     1      19.120  38.720  18.181  1.00  0.00    -0.094 SA
HETATM   18  C8  UNL     1      17.701  38.803  17.243  1.00  0.00     0.138 A
HETATM   19  N2  UNL     1      17.465  37.540  16.967  1.00  0.00    -0.355 N
ATOM     20  H2  UNL     1      16.655  37.284  16.403  1.00  0.00     0.166 HD
ENDBRANCH  12  15
ENDBRANCH   6  11
ENDBRANCH   3   6
ENDBRANCH   1   2
BRANCH   1  21
HETATM   21  C11 UNL     1      21.877  32.486  14.074  1.00  0.00     0.037 C
BRANCH  21  22
HETATM   22  C12 UNL     1      22.862  32.189  15.136  1.00  0.00    -0.020 C
HETATM   23  C13 UNL     1      23.905  33.322  15.225  1.00  0.00     0.009 C
HETATM   24  C14 UNL     1      22.140  32.305  16.518  1.00  0.00     0.009 C
ENDBRANCH  21  22
ENDBRANCH   1  21
BRANCH   1  25
HETATM   25  C15 UNL     1      20.264  30.708  13.110  1.00  0.00     0.138 C
BRANCH  25  26
HETATM   26  O3  UNL     1      20.197  31.199  11.842  1.00  0.00    -0.348 OA
ATOM     27  H3  UNL     1      20.796  30.722  11.280  1.00  0.00     0.219 HD
ENDBRANCH  25  26
BRANCH  25  28
HETATM   28  N4  UNL     1      19.984  29.340  13.148  1.00  0.00    -0.340 N
HETATM   29  C16 UNL     1      19.606  28.476  14.246  1.00  0.00     0.200 C
HETATM   30  S3  UNL     1      18.027  27.850  13.507  1.00  0.00    -0.137 SA
HETATM   31  C17 UNL     1      18.696  27.780  11.788  1.00  0.00     0.032 C
HETATM   32  C18 UNL     1      18.766  26.326  11.399  1.00  0.00     0.029 C
HETATM   33  C19 UNL     1      17.752  28.516  10.857  1.00  0.00     0.029 C
HETATM   34  C20 UNL     1      19.999  28.478  11.932  1.00  0.00     0.197 C
BRANCH  34  35
HETATM   35  C21 UNL     1      21.216  27.687  11.856  1.00  0.00     0.242 C
HETATM   36  O4  UNL     1      21.876  27.385  12.915  1.00  0.00    -0.271 OA
HETATM   37  N5  UNL     1      21.776  27.194  10.659  1.00  0.00    -0.355 N
ATOM     38  H5  UNL     1      21.297  27.403   9.783  1.00  0.00     0.162 HD
BRANCH  37  39
HETATM   39  C22 UNL     1      23.000  26.401  10.600  1.00  0.00     0.076 C
HETATM   40  C23 UNL     1      24.128  27.288  10.120  1.00  0.00     0.032 C
HETATM   41  C24 UNL     1      22.817  25.299   9.567  1.00  0.00     0.032 C
ENDBRANCH  37  39
ENDBRANCH  34  35
ENDBRANCH  25  28
ENDBRANCH   1  25
TORSDOF 14
ENDMDL