MODEL 1
REMARK VINA RESULT: -7.602203603      0.000      0.000
REMARK  14 active torsions:
REMARK  status: ('A' for Active; 'I' for Inactive)
REMARK    1  A    between atoms: C2_2  and  O1_3
REMARK    2  A    between atoms: O1_3  and  C3_4
REMARK       I    between atoms: C3_4  and  N1_6
REMARK       I    between atoms: N2_9  and  C6_10
REMARK    3  A    between atoms: C6_10  and  C7_12
REMARK    4  A    between atoms: C7_12  and  N3_13
REMARK    5  A    between atoms: C7_12  and  C22_38
REMARK    6  A    between atoms: N3_13  and  C8_15
REMARK    7  A    between atoms: C8_15  and  C9_16
REMARK    8  A    between atoms: C8_15  and  C16_26
REMARK       I    between atoms: C9_16  and  N4_18
REMARK    9  A    between atoms: C13_22  and  C14_23
REMARK   10  A    between atoms: C14_23  and  S1_24
REMARK   11  A    between atoms: C16_26  and  C21_31
REMARK   12  A    between atoms: C17_27  and  C18_28
REMARK   13  A    between atoms: C21_31  and  O5_32
REMARK   14  A    between atoms: N5_34  and  O6_36
ROOT
HETATM    1  C8  UNL     1      21.191  27.364  11.732  1.00  0.00     0.112 C
ENDROOT
BRANCH   1   2
HETATM    2  N3  UNL     1      19.871  26.892  11.644  1.00  0.00    -0.371 N
ATOM      3  H3  UNL     1      19.727  26.043  12.192  1.00  0.00     0.160 HD
BRANCH   2   4
HETATM    4  C7  UNL     1      18.734  27.293  11.004  1.00  0.00     0.177 C
BRANCH   4   5
HETATM    5  C6  UNL     1      18.166  25.956  10.352  1.00  0.00     0.243 C
HETATM    6  N2  UNL     1      18.214  25.929   8.955  1.00  0.00    -0.347 N
HETATM    7  C5  UNL     1      17.643  24.739   8.301  1.00  0.00     0.146 C
HETATM    8  C25 UNL     1      18.793  26.917   8.099  1.00  0.00     0.146 C
HETATM    9  C4  UNL     1      16.711  25.264   7.202  1.00  0.00     0.148 C
HETATM   10  N1  UNL     1      17.568  25.910   6.242  1.00  0.00    -0.325 N
HETATM   11  C3  UNL     1      17.131  26.106   4.920  1.00  0.00     0.362 C
HETATM   12  C26 UNL     1      18.874  26.367   6.660  1.00  0.00     0.148 C
HETATM   13  O2  UNL     1      17.922  26.656   4.092  1.00  0.00    -0.238 OA
HETATM   14  O3  UNL     1      17.757  25.109  11.136  1.00  0.00    -0.271 OA
BRANCH  11  15
HETATM   15  O1  UNL     1      15.897  25.752   4.420  1.00  0.00    -0.304 OA
BRANCH  15  16
HETATM   16  C2  UNL     1      15.626  24.471   3.877  1.00  0.00     0.176 C
HETATM   17  C1  UNL     1      14.394  23.921   4.542  1.00  0.00     0.034 C
ENDBRANCH  15  16
ENDBRANCH  11  15
ENDBRANCH   4   5
BRANCH   4  18
HETATM   18  C22 UNL     1      17.486  27.787  11.649  1.00  0.00     0.009 C
HETATM   19  C23 UNL     1      17.490  27.723  13.136  1.00  0.00     0.012 C
HETATM   20  C24 UNL     1      16.684  28.835  10.989  1.00  0.00     0.012 C
ENDBRANCH   4  18
ENDBRANCH   2   4
ENDBRANCH   1   2
BRANCH   1  21
HETATM   21  C9  UNL     1      21.348  28.614  12.421  1.00  0.00     0.271 C
HETATM   22  O4  UNL     1      21.761  29.578  11.652  1.00  0.00    -0.266 OA
HETATM   23  N4  UNL     1      21.143  29.038  13.750  1.00  0.00    -0.341 N
HETATM   24  C10 UNL     1      20.574  28.385  14.925  1.00  0.00     0.127 C
HETATM   25  C13 UNL     1      21.505  30.353  14.314  1.00  0.00     0.097 C
HETATM   26  C11 UNL     1      19.849  29.455  15.701  1.00  0.00     0.022 C
HETATM   27  C12 UNL     1      20.297  30.743  15.117  1.00  0.00     0.028 C
BRANCH  25  28
HETATM   28  C14 UNL     1      21.877  31.419  13.370  1.00  0.00     0.098 C
BRANCH  28  29
HETATM   29  S1  UNL     1      22.062  32.951  14.412  1.00  0.00    -0.172 SA
HETATM   30  C15 UNL     1      23.781  33.037  15.021  1.00  0.00     0.089 C
ENDBRANCH  28  29
ENDBRANCH  25  28
ENDBRANCH   1  21
BRANCH   1  31
HETATM   31  C16 UNL     1      22.152  26.227  11.792  1.00  0.00     0.045 C
HETATM   32  C17 UNL     1      23.570  26.313  11.595  1.00  0.00    -0.005 C
BRANCH  32  33
HETATM   33  C18 UNL     1      24.249  26.808  10.392  1.00  0.00     0.001 C
HETATM   34  C19 UNL     1      25.766  26.562  10.693  1.00  0.00     0.013 C
HETATM   35  C20 UNL     1      24.216  28.277  10.095  1.00  0.00     0.013 C
ENDBRANCH  32  33
BRANCH  31  36
HETATM   36  C21 UNL     1      21.480  24.989  11.273  1.00  0.00     0.172 C
HETATM   37  N5  UNL     1      21.367  24.597  10.095  1.00  0.00    -0.247 N
ATOM     38  H5  UNL     1      20.860  23.714  10.045  1.00  0.00     0.196 HD
BRANCH  36  39
HETATM   39  O5  UNL     1      20.862  24.092  12.180  1.00  0.00    -0.344 OA
ATOM     40  H5  UNL     1      19.918  24.100  12.282  1.00  0.00     0.219 HD
ENDBRANCH  36  39
BRANCH  37  41
HETATM   41  O6  UNL     1      21.726  25.014   8.899  1.00  0.00    -0.288 OA
ATOM     42  H6  UNL     1      22.106  24.637   8.113  1.00  0.00     0.244 HD
ENDBRANCH  37  41
ENDBRANCH  31  36
ENDBRANCH   1  31
TORSDOF 14
ENDMDL