MODEL 5
REMARK VINA RESULT: -8.157408580      1.470      1.956
REMARK  14 active torsions:
REMARK  status: ('A' for Active; 'I' for Inactive)
REMARK    1  A    between atoms: C3_3  and  C4_4
REMARK    2  A    between atoms: N1_6  and  S1_8
REMARK    3  A    between atoms: S1_8  and  C6_11
REMARK    4  A    between atoms: C6_11  and  C7_12
REMARK    5  A    between atoms: C7_12  and  O3_13
REMARK    6  A    between atoms: O3_13  and  C8_14
REMARK    7  A    between atoms: C8_14  and  C9_15
REMARK    8  A    between atoms: C9_15  and  N2_16
REMARK    9  A    between atoms: C11_23  and  C12_24
REMARK   10  A    between atoms: C12_24  and  C13_25
REMARK   11  A    between atoms: C13_25  and  C14_26
REMARK   12  A    between atoms: C14_26  and  C15_27
REMARK   13  A    between atoms: C15_27  and  C16_28
REMARK       I    between atoms: N7_34  and  C18_36
REMARK   14  A    between atoms: C18_36  and  C19_38
ROOT
HETATM    1  C1  UNL     1      18.112  30.563  14.756  1.00  0.00     0.112 C
HETATM    2  C2  UNL     1      17.560  31.919  14.789  1.00  0.00    -0.104 C
HETATM    3  C3  UNL     1      17.111  33.053  14.839  1.00  0.00    -0.053 C
ENDROOT
BRANCH   3   4
HETATM    4  C4  UNL     1      16.565  34.369  14.877  1.00  0.00     0.069 C
HETATM    5  C5  UNL     1      16.520  35.195  13.623  1.00  0.00     0.079 C
HETATM    6  N1  UNL     1      16.082  34.940  15.922  1.00  0.00    -0.281 N
ATOM      7  H1  UNL     1      15.709  35.887  15.860  1.00  0.00     0.179 HD
BRANCH   6   8
HETATM    8  S1  UNL     1      16.063  34.109  17.417  1.00  0.00     0.233 S
HETATM    9  O1  UNL     1      17.456  33.672  17.768  1.00  0.00    -0.206 OA
HETATM   10  O2  UNL     1      15.225  32.849  17.289  1.00  0.00    -0.206 OA
BRANCH   8  11
HETATM   11  C6  UNL     1      15.395  35.073  18.742  1.00  0.00     0.189 C
BRANCH  11  12
HETATM   12  C7  UNL     1      14.958  36.435  18.225  1.00  0.00     0.184 C
BRANCH  12  13
HETATM   13  O3  UNL     1      16.067  37.189  17.860  1.00  0.00    -0.385 OA
BRANCH  13  14
HETATM   14  C8  UNL     1      16.535  37.866  18.976  1.00  0.00     0.212 C
BRANCH  14  15
HETATM   15  C9  UNL     1      17.907  38.450  18.737  1.00  0.00     0.089 C
BRANCH  15  16
HETATM   16  N2  UNL     1      18.977  37.579  19.005  1.00  0.00    -0.347 N
HETATM   17  C10 UNL     1      19.452  36.615  18.294  1.00  0.00     0.164 A
HETATM   18  N3  UNL     1      19.102  36.132  17.102  1.00  0.00    -0.279 N
HETATM   19  S3  UNL     1      20.778  35.565  18.686  1.00  0.00    -0.038 SA
HETATM   20  N4  UNL     1      19.743  35.151  16.615  1.00  0.00    -0.296 N
ATOM     21  H3  UNL     1      18.328  36.548  16.585  1.00  0.00     0.189 HD
HETATM   22  C11 UNL     1      20.747  34.607  17.275  1.00  0.00     0.069 A
ATOM     23  H4  UNL     1      19.478  34.778  15.703  1.00  0.00     0.187 HD
ATOM     24  H2  UNL     1      19.448  37.733  19.897  1.00  0.00     0.167 HD
BRANCH  22  25
HETATM   25  C12 UNL     1      21.614  33.438  16.876  1.00  0.00     0.066 C
BRANCH  25  26
HETATM   26  C13 UNL     1      20.977  32.776  15.691  1.00  0.00     0.007 C
BRANCH  26  27
HETATM   27  C14 UNL     1      21.775  32.979  14.420  1.00  0.00     0.007 C
BRANCH  27  28
HETATM   28  C15 UNL     1      22.904  31.949  14.372  1.00  0.00     0.066 C
BRANCH  28  29
HETATM   29  C16 UNL     1      22.252  30.607  14.204  1.00  0.00     0.069 A
HETATM   30  N5  UNL     1      21.997  29.681  15.118  1.00  0.00    -0.296 N
HETATM   31  N6  UNL     1      21.427  28.600  14.795  1.00  0.00    -0.279 N
ATOM     32  H5  UNL     1      22.262  29.842  16.089  1.00  0.00     0.187 HD
HETATM   33  C17 UNL     1      21.083  28.406  13.518  1.00  0.00     0.167 A
ATOM     34  H6  UNL     1      21.232  27.888  15.499  1.00  0.00     0.189 HD
HETATM   35  N7  UNL     1      20.490  27.353  12.997  1.00  0.00    -0.306 N
HETATM   36  S2  UNL     1      21.623  29.859  12.793  1.00  0.00    -0.038 SA
HETATM   37  C18 UNL     1      20.228  27.383  11.613  1.00  0.00     0.227 C
ATOM     38  H7  UNL     1      20.230  26.550  13.569  1.00  0.00     0.171 HD
HETATM   39  O4  UNL     1      20.962  28.040  10.855  1.00  0.00    -0.273 OA
BRANCH  37  40
HETATM   40  C19 UNL     1      19.082  26.636  11.061  1.00  0.00     0.078 C
HETATM   41  C20 UNL     1      18.247  27.564  10.209  1.00  0.00     0.014 C
HETATM   42  C21 UNL     1      17.808  28.713  11.091  1.00  0.00     0.001 C
HETATM   43  C22 UNL     1      16.924  28.168  12.156  1.00  0.00     0.000 C
HETATM   44  C23 UNL     1      17.509  27.069  12.970  1.00  0.00     0.001 C
HETATM   45  C24 UNL     1      18.263  26.068  12.168  1.00  0.00     0.014 C
ENDBRANCH  37  40
ENDBRANCH  28  29
ENDBRANCH  27  28
ENDBRANCH  26  27
ENDBRANCH  25  26
ENDBRANCH  22  25
ENDBRANCH  15  16
ENDBRANCH  14  15
ENDBRANCH  13  14
ENDBRANCH  12  13
ENDBRANCH  11  12
ENDBRANCH   8  11
ENDBRANCH   6   8
ENDBRANCH   3   4
TORSDOF 14
ENDMDL