MODEL 2
REMARK VINA RESULT: -8.464308747      0.918      1.006
REMARK  16 active torsions:
REMARK  status: ('A' for Active; 'I' for Inactive)
REMARK    1  A    between atoms: C2_2  and  O1_3
REMARK    2  A    between atoms: O1_3  and  C3_4
REMARK    3  A    between atoms: C3_4  and  C4_6
REMARK    4  A    between atoms: C4_6  and  C5_7
REMARK    5  A    between atoms: C5_7  and  C6_8
REMARK       I    between atoms: N1_9  and  C7_11
REMARK    6  A    between atoms: C7_11  and  C8_13
REMARK    7  A    between atoms: C8_13  and  C11_19
REMARK       I    between atoms: N2_14  and  C9_16
REMARK       I    between atoms: N3_23  and  C15_24
REMARK    8  A    between atoms: C15_24  and  C16_26
REMARK    9  A    between atoms: C16_26  and  C17_27
REMARK   10  A    between atoms: C16_26  and  N5_36
REMARK   11  A    between atoms: C17_27  and  C18_28
REMARK   12  A    between atoms: C18_28  and  C19_29
REMARK   13  A    between atoms: C19_29  and  C20_30
REMARK   14  A    between atoms: C20_30  and  N4_31
REMARK       I    between atoms: N4_31  and  C21_33
REMARK       I    between atoms: N5_36  and  C23_38
REMARK   15  A    between atoms: C23_38  and  O8_40
REMARK   16  A    between atoms: O8_40  and  C24_41
ROOT
HETATM    1  C11 UNL     1      19.243  31.473  15.431  1.00  0.00     0.059 C
HETATM    2  C12 UNL     1      19.873  30.615  16.490  1.00  0.00     0.014 C
HETATM    3  C13 UNL     1      19.739  29.121  16.168  1.00  0.00     0.021 C
HETATM    4  C14 UNL     1      20.531  28.945  14.872  1.00  0.00     0.126 C
HETATM    5  N3  UNL     1      19.750  29.586  13.858  1.00  0.00    -0.350 N
HETATM    6  C15 UNL     1      19.299  28.924  12.686  1.00  0.00     0.242 C
HETATM    7  O5  UNL     1      18.662  29.655  11.838  1.00  0.00    -0.271 OA
HETATM    8  C28 UNL     1      19.377  30.982  14.035  1.00  0.00     0.137 C
ENDROOT
BRANCH   6   9
HETATM    9  C16 UNL     1      19.504  27.502  12.377  1.00  0.00     0.179 C
BRANCH   9  10
HETATM   10  C17 UNL     1      18.242  26.782  11.934  1.00  0.00     0.035 C
BRANCH  10  11
HETATM   11  C18 UNL     1      18.466  25.919  10.740  1.00  0.00     0.004 C
BRANCH  11  12
HETATM   12  C19 UNL     1      17.584  26.354   9.605  1.00  0.00     0.020 C
BRANCH  12  13
HETATM   13  C20 UNL     1      18.221  27.284   8.626  1.00  0.00     0.122 C
BRANCH  13  14
HETATM   14  N4  UNL     1      18.940  26.550   7.588  1.00  0.00    -0.361 N
HETATM   15  C21 UNL     1      18.609  26.830   6.236  1.00  0.00     0.213 C
HETATM   16  C22 UNL     1      19.311  26.117   5.125  1.00  0.00     0.117 C
HETATM   17  O6  UNL     1      17.737  27.668   5.939  1.00  0.00    -0.274 OA
ATOM     18  H4  UNL     1      19.654  25.862   7.825  1.00  0.00     0.162 HD
ENDBRANCH  13  14
ENDBRANCH  12  13
ENDBRANCH  11  12
ENDBRANCH  10  11
ENDBRANCH   9  10
BRANCH   9  19
HETATM   19  N5  UNL     1      20.497  27.385  11.288  1.00  0.00    -0.324 N
HETATM   20  C23 UNL     1      21.871  27.381  11.580  1.00  0.00     0.362 C
HETATM   21  O7  UNL     1      22.309  27.482  12.778  1.00  0.00    -0.238 OA
ATOM     22  H5  UNL     1      20.182  27.308  10.321  1.00  0.00     0.165 HD
BRANCH  20  23
HETATM   23  O8  UNL     1      22.868  27.273  10.623  1.00  0.00    -0.294 OA
BRANCH  23  24
HETATM   24  C24 UNL     1      23.709  26.174  10.500  1.00  0.00     0.061 C
HETATM   25  C25 UNL     1      22.958  24.910  10.743  1.00  0.00     0.046 C
HETATM   26  C26 UNL     1      24.186  26.155   9.040  1.00  0.00     0.046 C
HETATM   27  C27 UNL     1      24.956  26.243  11.335  1.00  0.00     0.046 C
ENDBRANCH  23  24
ENDBRANCH  20  23
ENDBRANCH   9  19
ENDBRANCH   6   9
BRANCH   1  28
HETATM   28  C8  UNL     1      19.736  32.869  15.521  1.00  0.00     0.086 C
HETATM   29  N2  UNL     1      20.878  33.248  15.296  1.00  0.00    -0.326 N
HETATM   30  C9  UNL     1      22.146  33.027  14.954  1.00  0.00     0.218 C
ATOM     31  H2  UNL     1      20.837  34.255  15.451  1.00  0.00     0.168 HD
HETATM   32  C10 UNL     1      23.216  32.474  15.856  1.00  0.00     0.117 C
HETATM   33  O4  UNL     1      22.567  33.283  13.771  1.00  0.00    -0.274 OA
BRANCH  28  34
HETATM   34  C7  UNL     1      18.751  33.909  15.914  1.00  0.00     0.268 C
HETATM   35  N1  UNL     1      17.737  34.352  15.078  1.00  0.00    -0.336 N
HETATM   36  C6  UNL     1      16.503  34.128  15.288  1.00  0.00     0.064 C
ATOM     37  H1  UNL     1      17.994  34.887  14.249  1.00  0.00     0.168 HD
HETATM   38  O3  UNL     1      18.836  34.422  17.077  1.00  0.00    -0.266 OA
BRANCH  36  39
HETATM   39  C5  UNL     1      16.033  33.364  16.458  1.00  0.00     0.054 C
BRANCH  39  40
HETATM   40  C4  UNL     1      14.866  34.073  17.138  1.00  0.00     0.116 C
BRANCH  40  41
HETATM   41  C3  UNL     1      15.341  35.107  18.077  1.00  0.00     0.259 C
HETATM   42  O2  UNL     1      16.072  34.822  19.082  1.00  0.00    -0.265 OA
BRANCH  41  43
HETATM   43  O1  UNL     1      15.021  36.440  17.923  1.00  0.00    -0.322 OA
BRANCH  43  44
HETATM   44  C2  UNL     1      15.947  37.480  18.163  1.00  0.00     0.174 C
HETATM   45  C1  UNL     1      16.942  37.585  17.043  1.00  0.00     0.034 C
ENDBRANCH  43  44
ENDBRANCH  41  43
ENDBRANCH  40  41
ENDBRANCH  39  40
ENDBRANCH  36  39
ENDBRANCH  28  34
ENDBRANCH   1  28
TORSDOF 16
ENDMDL