MODEL 2
REMARK VINA RESULT: -8.441183743      0.517      1.335
REMARK  16 active torsions:
REMARK  status: ('A' for Active; 'I' for Inactive)
REMARK    1  A    between atoms: C2_2  and  C3_3
REMARK    2  A    between atoms: C3_3  and  C4_4
REMARK    3  A    between atoms: C4_4  and  N1_5
REMARK    4  A    between atoms: N1_5  and  C5_6
REMARK       I    between atoms: N1_5  and  C8_11
REMARK    5  A    between atoms: C5_6  and  C6_7
REMARK    6  A    between atoms: C6_7  and  C7_8
REMARK    7  A    between atoms: C8_11  and  C9_13
REMARK    8  A    between atoms: C11_15  and  C12_16
REMARK    9  A    between atoms: C13_17  and  C14_18
REMARK   10  A    between atoms: C15_19  and  O3_20
REMARK   11  A    between atoms: C18_23  and  O4_24
REMARK   12  A    between atoms: O4_24  and  C19_25
REMARK   13  A    between atoms: C19_25  and  C20_26
REMARK   14  A    between atoms: C20_26  and  O5_27
REMARK   15  A    between atoms: C25_36  and  N5_37
REMARK   16  A    between atoms: N5_37  and  C26_39
ROOT
HETATM    1  C9  UNL     1      18.928  27.043  11.370  1.00  0.00     0.077 A
HETATM    2  C10 UNL     1      19.011  28.087  12.248  1.00  0.00     0.043 A
HETATM    3  C11 UNL     1      18.079  29.100  12.219  1.00  0.00     0.034 A
HETATM    4  C24 UNL     1      17.069  29.025  11.285  1.00  0.00     0.110 A
HETATM    5  N4  UNL     1      16.999  28.011  10.442  1.00  0.00    -0.350 N
ATOM      6  H4  UNL     1      16.238  27.988   9.764  1.00  0.00     0.166 HD
HETATM    7  C25 UNL     1      17.905  26.995  10.445  1.00  0.00     0.122 A
ENDROOT
BRANCH   3   8
HETATM    8  C12 UNL     1      18.181  30.188  13.146  1.00  0.00    -0.060 C
HETATM    9  C13 UNL     1      18.284  31.097  13.936  1.00  0.00    -0.057 C
BRANCH   9  10
HETATM   10  C14 UNL     1      18.433  32.177  14.891  1.00  0.00     0.073 A
HETATM   11  C15 UNL     1      19.647  32.823  14.960  1.00  0.00     0.093 A
HETATM   12  C17 UNL     1      19.769  33.849  15.872  1.00  0.00     0.094 A
HETATM   13  C18 UNL     1      18.711  34.205  16.679  1.00  0.00     0.145 A
HETATM   14  N3  UNL     1      17.538  33.544  16.576  1.00  0.00    -0.339 N
HETATM   15  C22 UNL     1      17.365  32.542  15.708  1.00  0.00     0.029 A
ATOM     16  H3  UNL     1      16.762  33.817  17.178  1.00  0.00     0.168 HD
HETATM   17  C23 UNL     1      16.086  31.788  15.566  1.00  0.00     0.070 C
BRANCH  11  18
HETATM   18  O3  UNL     1      20.711  32.460  14.145  1.00  0.00    -0.354 OA
HETATM   19  C16 UNL     1      22.040  32.804  14.399  1.00  0.00     0.210 C
ENDBRANCH  11  18
BRANCH  13  20
HETATM   20  O4  UNL     1      18.808  35.241  17.611  1.00  0.00    -0.334 OA
BRANCH  20  21
HETATM   21  C19 UNL     1      18.220  35.160  18.878  1.00  0.00     0.203 C
BRANCH  21  22
HETATM   22  C20 UNL     1      16.890  35.893  18.925  1.00  0.00     0.193 C
BRANCH  22  23
HETATM   23  O5  UNL     1      15.844  34.974  18.964  1.00  0.00    -0.394 OA
HETATM   24  C21 UNL     1      14.891  35.340  18.019  1.00  0.00     0.201 C
ENDBRANCH  22  23
ENDBRANCH  21  22
ENDBRANCH  20  21
ENDBRANCH  13  20
ENDBRANCH   9  10
ENDBRANCH   3   8
BRANCH   1  25
HETATM   25  C8  UNL     1      19.902  25.973  11.364  1.00  0.00     0.257 C
HETATM   26  N1  UNL     1      21.304  26.110  11.240  1.00  0.00    -0.347 N
HETATM   27  O2  UNL     1      19.429  24.781  11.485  1.00  0.00    -0.267 OA
BRANCH  26  28
HETATM   28  C4  UNL     1      22.089  24.896  11.279  1.00  0.00     0.130 C
BRANCH  28  29
HETATM   29  C3  UNL     1      23.410  24.957  10.602  1.00  0.00     0.046 C
BRANCH  29  30
HETATM   30  C2  UNL     1      23.171  24.620   9.166  1.00  0.00    -0.035 C
HETATM   31  C1  UNL     1      23.802  25.222   8.173  1.00  0.00     0.007 C
ENDBRANCH  29  30
ENDBRANCH  28  29
ENDBRANCH  26  28
BRANCH  26  32
HETATM   32  C5  UNL     1      21.904  27.398  11.087  1.00  0.00     0.135 C
BRANCH  32  33
HETATM   33  C6  UNL     1      22.777  27.870  12.197  1.00  0.00     0.119 C
BRANCH  33  34
HETATM   34  C7  UNL     1      22.141  29.070  12.823  1.00  0.00     0.232 C
HETATM   35  N2  UNL     1      21.908  29.160  14.218  1.00  0.00    -0.062 NA
HETATM   36  O1  UNL     1      21.800  30.032  12.098  1.00  0.00    -0.277 OA
ENDBRANCH  33  34
ENDBRANCH  32  33
ENDBRANCH  26  32
ENDBRANCH   1  25
BRANCH   7  37
HETATM   37  N5  UNL     1      17.803  25.932   9.509  1.00  0.00    -0.328 N
ATOM     38  H5  UNL     1      17.311  25.082   9.783  1.00  0.00     0.169 HD
BRANCH  37  39
HETATM   39  C26 UNL     1      18.302  26.000   8.343  1.00  0.00     0.107 A
HETATM   40  C27 UNL     1      19.266  25.071   7.926  1.00  0.00     0.055 A
HETATM   41  C28 UNL     1      19.830  25.109   6.677  1.00  0.00    -0.057 A
HETATM   42  C29 UNL     1      20.846  24.098   6.295  1.00  0.00     0.048 C
HETATM   43  C30 UNL     1      19.454  26.084   5.776  1.00  0.00     0.031 A
HETATM   44  C31 UNL     1      18.506  26.987   6.202  1.00  0.00     0.007 A
HETATM   45  C32 UNL     1      18.068  28.065   5.255  1.00  0.00     0.068 C
HETATM   46  N6  UNL     1      17.964  26.927   7.445  1.00  0.00    -0.346 N
ATOM     47  H6  UNL     1      17.266  27.624   7.705  1.00  0.00     0.167 HD
ENDBRANCH  37  39
ENDBRANCH   7  37
TORSDOF 16
ENDMDL