MODEL 1
REMARK VINA RESULT: -8.329513995      0.000      0.000
REMARK  17 active torsions:
REMARK  status: ('A' for Active; 'I' for Inactive)
REMARK    1  A    between atoms: C3_3  and  O1_5
REMARK    2  A    between atoms: O1_5  and  C5_6
REMARK       I    between atoms: C5_6  and  N1_8
REMARK    3  A    between atoms: C8_12  and  O3_13
REMARK    4  A    between atoms: C8_12  and  C9_15
REMARK    5  A    between atoms: C9_15  and  C10_16
REMARK    6  A    between atoms: C10_16  and  C11_17
REMARK    7  A    between atoms: C11_17  and  C13_19
REMARK    8  A    between atoms: C11_17  and  C16_24
REMARK    9  A    between atoms: C13_19  and  C14_20
REMARK   10  A    between atoms: C14_20  and  O5_22
REMARK   11  A    between atoms: C20_28  and  C21_29
REMARK   12  A    between atoms: C21_29  and  C22_30
REMARK   13  A    between atoms: C22_30  and  N3_31
REMARK       I    between atoms: C23_33  and  N5_35
REMARK   14  A    between atoms: N5_35  and  C24_37
REMARK   15  A    between atoms: C24_37  and  C25_38
REMARK   16  A    between atoms: C25_38  and  C26_39
REMARK   17  A    between atoms: C26_39  and  C27_40
ROOT
HETATM    1  C1  UNL     1      15.601  38.966  20.225  1.00  0.00     0.015 C
HETATM    2  C2  UNL     1      15.874  38.463  19.170  1.00  0.00    -0.085 C
HETATM    3  C3  UNL     1      16.196  37.866  17.869  1.00  0.00     0.207 C
HETATM    4  C4  UNL     1      17.203  38.723  17.126  1.00  0.00     0.054 C
ENDROOT
BRANCH   3   5
HETATM    5  O1  UNL     1      16.801  36.616  18.115  1.00  0.00    -0.285 OA
BRANCH   5   6
HETATM    6  C5  UNL     1      16.095  35.428  18.162  1.00  0.00     0.388 C
HETATM    7  O2  UNL     1      15.514  35.148  19.231  1.00  0.00    -0.236 OA
HETATM    8  N1  UNL     1      16.014  34.540  17.055  1.00  0.00    -0.189 N
HETATM    9  C6  UNL     1      15.255  33.318  17.157  1.00  0.00     0.183 C
HETATM   10  O7  UNL     1      16.649  34.825  15.868  1.00  0.00    -0.174 OA
HETATM   11  C7  UNL     1      15.661  32.263  16.170  1.00  0.00     0.159 C
HETATM   12  N2  UNL     1      17.087  32.496  15.711  1.00  0.00    -0.270 N
HETATM   13  C8  UNL     1      17.939  31.459  15.887  1.00  0.00     0.156 C
HETATM   14  C29 UNL     1      17.229  33.780  15.119  1.00  0.00     0.391 C
HETATM   15  O6  UNL     1      17.811  33.935  14.041  1.00  0.00    -0.236 OA
BRANCH  13  16
HETATM   16  O3  UNL     1      17.316  30.350  16.282  1.00  0.00    -0.345 OA
ATOM     17  H3  UNL     1      17.496  30.136  17.190  1.00  0.00     0.219 HD
ENDBRANCH  13  16
BRANCH  13  18
HETATM   18  C9  UNL     1      19.420  31.246  15.756  1.00  0.00     0.008 C
HETATM   19  C20 UNL     1      20.182  32.252  16.421  1.00  0.00    -0.010 C
BRANCH  18  20
HETATM   20  C10 UNL     1      19.752  30.156  15.222  1.00  0.00    -0.001 C
BRANCH  20  21
HETATM   21  C11 UNL     1      20.170  29.418  14.030  1.00  0.00    -0.010 C
HETATM   22  C12 UNL     1      21.240  28.400  14.697  1.00  0.00     0.021 C
BRANCH  21  23
HETATM   23  C13 UNL     1      19.083  28.442  13.727  1.00  0.00     0.125 C
BRANCH  23  24
HETATM   24  C14 UNL     1      18.037  28.741  12.776  1.00  0.00     0.259 C
HETATM   25  O4  UNL     1      17.477  29.855  12.789  1.00  0.00    -0.265 OA
BRANCH  24  26
HETATM   26  O5  UNL     1      17.595  27.849  11.824  1.00  0.00    -0.326 OA
HETATM   27  C15 UNL     1      18.071  27.962  10.499  1.00  0.00     0.213 C
ENDBRANCH  24  26
ENDBRANCH  23  24
ENDBRANCH  21  23
BRANCH  21  28
HETATM   28  C16 UNL     1      20.980  30.063  13.030  1.00  0.00    -0.040 C
HETATM   29  C17 UNL     1      21.518  29.262  11.866  1.00  0.00     0.015 C
HETATM   30  C18 UNL     1      22.339  30.504  13.719  1.00  0.00     0.015 C
HETATM   31  C19 UNL     1      20.588  31.372  12.405  1.00  0.00     0.015 C
ENDBRANCH  21  28
ENDBRANCH  20  21
ENDBRANCH  18  20
BRANCH  19  32
HETATM   32  C21 UNL     1      21.602  32.195  16.800  1.00  0.00     0.048 C
BRANCH  32  33
HETATM   33  C22 UNL     1      22.032  33.590  17.346  1.00  0.00     0.126 C
BRANCH  33  34
HETATM   34  N3  UNL     1      21.081  34.073  18.306  1.00  0.00    -0.364 N
HETATM   35  C23 UNL     1      20.649  35.259  18.388  1.00  0.00     0.183 C
HETATM   36  N4  UNL     1      19.708  35.599  19.389  1.00  0.00    -0.064 NA
HETATM   37  N5  UNL     1      21.089  36.256  17.491  1.00  0.00    -0.365 N
ATOM     38  H5  UNL     1      21.767  35.988  16.778  1.00  0.00     0.162 HD
ATOM     39  H3  UNL     1      20.722  33.400  18.982  1.00  0.00     0.162 HD
BRANCH  37  40
HETATM   40  C24 UNL     1      20.643  37.630  17.517  1.00  0.00     0.122 C
BRANCH  40  41
HETATM   41  C25 UNL     1      21.547  38.571  16.773  1.00  0.00     0.020 C
BRANCH  41  42
HETATM   42  C26 UNL     1      20.712  39.639  16.101  1.00  0.00     0.001 C
BRANCH  42  43
HETATM   43  C27 UNL     1      21.265  39.876  14.694  1.00  0.00    -0.004 C
HETATM   44  C28 UNL     1      22.290  40.985  14.708  1.00  0.00     0.005 C
ENDBRANCH  42  43
ENDBRANCH  41  42
ENDBRANCH  40  41
ENDBRANCH  37  40
ENDBRANCH  33  34
ENDBRANCH  32  33
ENDBRANCH  19  32
ENDBRANCH  13  18
ENDBRANCH   5   6
ENDBRANCH   3   5
TORSDOF 17
ENDMDL