MODEL 5
REMARK VINA RESULT: -7.710893020      3.835      9.560
REMARK  15 active torsions:
REMARK  status: ('A' for Active; 'I' for Inactive)
REMARK    1  A    between atoms: C4_4  and  C5_5
REMARK    2  A    between atoms: C11_11  and  N1_12
REMARK    3  A    between atoms: N1_12  and  C12_13
REMARK    4  A    between atoms: N1_12  and  C15_20
REMARK    5  A    between atoms: C12_13  and  C13_14
REMARK    6  A    between atoms: C13_14  and  C14_15
REMARK    7  A    between atoms: C14_15  and  N2_16
REMARK    8  A    between atoms: C15_20  and  C16_21
REMARK    9  A    between atoms: C16_21  and  C17_22
REMARK   10  A    between atoms: C17_22  and  N3_23
REMARK   11  A    between atoms: C24_31  and  N4_32
REMARK   12  A    between atoms: N4_32  and  C25_33
REMARK   13  A    between atoms: C25_33  and  C26_34
REMARK   14  A    between atoms: C26_34  and  C27_35
REMARK   15  A    between atoms: C27_35  and  N5_36
ROOT
HETATM    1  C1  UNL     1      15.074  32.213  16.022  1.00  0.00     0.103 C
HETATM    2  C2  UNL     1      16.026  32.904  16.360  1.00  0.00    -0.145 C
HETATM    3  C3  UNL     1      17.083  33.748  16.764  1.00  0.00     0.045 A
HETATM    4  C4  UNL     1      18.408  33.553  16.362  1.00  0.00     0.013 A
HETATM    5  C11 UNL     1      19.312  34.496  16.766  1.00  0.00     0.047 A
HETATM    6  C22 UNL     1      18.881  35.627  17.544  1.00  0.00     0.049 A
HETATM    7  C23 UNL     1      17.579  35.770  17.905  1.00  0.00     0.053 A
HETATM    8  C24 UNL     1      17.180  36.872  18.676  1.00  0.00     0.191 A
HETATM    9  N6  UNL     1      15.881  36.976  19.059  1.00  0.00    -0.327 N
ATOM     10  H6  UNL     1      15.576  37.766  19.627  1.00  0.00     0.169 HD
HETATM   11  C32 UNL     1      15.003  36.034  18.685  1.00  0.00     0.183 A
HETATM   12  N7  UNL     1      15.397  35.010  17.945  1.00  0.00    -0.350 N
ATOM     13  H7  UNL     1      14.704  34.313  17.671  1.00  0.00     0.166 HD
HETATM   14  C33 UNL     1      16.680  34.845  17.533  1.00  0.00     0.067 A
ENDROOT
BRANCH   4  15
HETATM   15  C5  UNL     1      18.735  32.337  15.557  1.00  0.00    -0.066 C
HETATM   16  C6  UNL     1      18.457  32.494  14.078  1.00  0.00     0.035 C
HETATM   17  C7  UNL     1      18.517  31.180  13.385  1.00  0.00     0.004 C
HETATM   18  C8  UNL     1      17.562  30.257  14.144  1.00  0.00     0.001 C
HETATM   19  C9  UNL     1      18.279  29.856  15.402  1.00  0.00     0.004 C
HETATM   20  C10 UNL     1      18.800  31.028  16.183  1.00  0.00     0.035 C
ENDBRANCH   4  15
BRANCH   5  21
HETATM   21  N1  UNL     1      20.731  34.419  16.765  1.00  0.00    -0.359 N
BRANCH  21  22
HETATM   22  C12 UNL     1      21.680  34.912  17.700  1.00  0.00     0.066 C
BRANCH  22  23
HETATM   23  C13 UNL     1      22.673  35.952  17.354  1.00  0.00     0.072 C
BRANCH  23  24
HETATM   24  C14 UNL     1      21.936  37.293  17.615  1.00  0.00     0.234 C
BRANCH  24  25
HETATM   25  N2  UNL     1      21.365  37.868  16.432  1.00  0.00    -0.079 N
ATOM     26  H23 UNL     1      22.005  37.781  15.642  1.00  0.00     0.274 HD
ATOM     27  H22 UNL     1      20.594  37.296  16.087  1.00  0.00     0.274 HD
ATOM     28  H21 UNL     1      21.070  38.837  16.554  1.00  0.00     0.274 HD
ENDBRANCH  24  25
ENDBRANCH  23  24
ENDBRANCH  22  23
ENDBRANCH  21  22
BRANCH  21  29
HETATM   29  C15 UNL     1      21.391  34.050  15.479  1.00  0.00     0.133 C
BRANCH  29  30
HETATM   30  C16 UNL     1      22.106  32.759  15.471  1.00  0.00     0.064 C
BRANCH  30  31
HETATM   31  C17 UNL     1      22.310  32.466  13.962  1.00  0.00     0.060 C
BRANCH  31  32
HETATM   32  N3  UNL     1      22.150  31.120  13.583  1.00  0.00    -0.389 N
HETATM   33  C18 UNL     1      21.537  30.763  12.389  1.00  0.00     0.148 C
HETATM   34  C19 UNL     1      21.759  29.239  12.209  1.00  0.00     0.187 C
HETATM   35  O1  UNL     1      20.946  28.675  13.209  1.00  0.00    -0.388 OA
HETATM   36  C20 UNL     1      21.641  28.863  14.381  1.00  0.00     0.187 C
HETATM   37  C21 UNL     1      22.022  30.248  14.710  1.00  0.00     0.148 C
ENDBRANCH  31  32
ENDBRANCH  30  31
ENDBRANCH  29  30
ENDBRANCH  21  29
ENDBRANCH   5  21
BRANCH   8  38
HETATM   38  N4  UNL     1      17.925  37.801  18.829  1.00  0.00    -0.403 NA
BRANCH  38  39
HETATM   39  C25 UNL     1      18.744  38.830  19.010  1.00  0.00     0.159 C
BRANCH  39  40
HETATM   40  C26 UNL     1      18.895  39.956  18.049  1.00  0.00     0.079 C
BRANCH  40  41
HETATM   41  C27 UNL     1      17.733  39.919  17.038  1.00  0.00     0.128 C
BRANCH  41  42
HETATM   42  N5  UNL     1      16.796  40.901  17.454  1.00  0.00    -0.389 N
HETATM   43  C28 UNL     1      15.535  40.344  17.877  1.00  0.00     0.148 C
HETATM   44  C29 UNL     1      15.275  40.572  19.350  1.00  0.00     0.187 C
HETATM   45  O2  UNL     1      15.294  41.958  19.522  1.00  0.00    -0.385 OA
HETATM   46  C30 UNL     1      16.601  42.346  19.428  1.00  0.00     0.212 C
HETATM   47  C31 UNL     1      17.243  42.065  18.099  1.00  0.00     0.084 C
ENDBRANCH  41  42
ENDBRANCH  40  41
ENDBRANCH  39  40
ENDBRANCH  38  39
ENDBRANCH   8  38
TORSDOF 15
ENDMDL