MODEL 5
REMARK VINA RESULT: -9.206230386      2.046     11.613
REMARK  14 active torsions:
REMARK  status: ('A' for Active; 'I' for Inactive)
REMARK    1  A    between atoms: C2_2  and  N1_3
REMARK    2  A    between atoms: C4_5  and  C5_6
REMARK    3  A    between atoms: C5_6  and  C6_7
REMARK    4  A    between atoms: C6_7  and  C7_8
REMARK    5  A    between atoms: C7_8  and  C8_9
REMARK    6  A    between atoms: C8_9  and  C9_10
REMARK    7  A    between atoms: C9_10  and  N2_11
REMARK       I    between atoms: C10_13  and  N4_15
REMARK    8  A    between atoms: N4_15  and  C11_17
REMARK    9  A    between atoms: C13_19  and  O1_20
REMARK   10  A    between atoms: O1_20  and  C14_21
REMARK   11  A    between atoms: C14_21  and  C15_22
REMARK   12  A    between atoms: C15_22  and  O2_23
REMARK   13  A    between atoms: O2_23  and  C16_24
REMARK   14  A    between atoms: C24_35  and  N7_36
ROOT
HETATM    1  C11 UNL     1      17.811  30.884  15.540  1.00  0.00     0.127 A
HETATM    2  C12 UNL     1      16.772  31.678  16.021  1.00  0.00     0.105 A
HETATM    3  C13 UNL     1      16.965  33.006  16.316  1.00  0.00     0.161 A
HETATM    4  N6  UNL     1      18.230  33.486  16.110  1.00  0.00    -0.170 N
ATOM      5  H6  UNL     1      18.410  34.468  16.320  1.00  0.00     0.186 HD
HETATM    6  C24 UNL     1      19.239  32.752  15.653  1.00  0.00     0.683 A
HETATM    7  N8  UNL     1      19.004  31.462  15.377  1.00  0.00    -0.176 N
ATOM      8  H8  UNL     1      19.775  30.894  15.025  1.00  0.00     0.186 HD
ENDROOT
BRANCH   1   9
HETATM    9  N4  UNL     1      17.599  29.622  15.267  1.00  0.00    -0.316 N
HETATM   10  C10 UNL     1      18.365  29.081  14.183  1.00  0.00     0.189 C
HETATM   11  N2  UNL     1      17.938  29.245  12.989  1.00  0.00    -0.364 N
HETATM   12  N3  UNL     1      19.560  28.391  14.493  1.00  0.00    -0.063 NA
ATOM     13  H2  UNL     1      17.063  29.760  12.894  1.00  0.00     0.162 HD
ATOM     14  H4  UNL     1      16.931  29.058  15.793  1.00  0.00     0.170 HD
BRANCH  11  15
HETATM   15  C9  UNL     1      18.535  28.799  11.775  1.00  0.00     0.122 C
BRANCH  15  16
HETATM   16  C8  UNL     1      17.627  28.050  10.853  1.00  0.00     0.020 C
BRANCH  16  17
HETATM   17  C7  UNL     1      17.904  26.569  10.810  1.00  0.00     0.002 C
BRANCH  17  18
HETATM   18  C6  UNL     1      19.166  26.343  11.650  1.00  0.00     0.003 C
BRANCH  18  19
HETATM   19  C5  UNL     1      19.899  25.191  11.050  1.00  0.00     0.034 C
BRANCH  19  20
HETATM   20  C4  UNL     1      21.292  25.571  10.563  1.00  0.00     0.151 C
HETATM   21  C3  UNL     1      21.612  27.000  10.849  1.00  0.00     0.160 C
HETATM   22  N1  UNL     1      22.722  26.971  11.762  1.00  0.00    -0.326 N
HETATM   23  C30 UNL     1      23.271  25.667  11.627  1.00  0.00     0.363 C
HETATM   24  O3  UNL     1      22.284  24.809  11.181  1.00  0.00    -0.297 OA
HETATM   25  O4  UNL     1      24.487  25.404  11.892  1.00  0.00    -0.238 OA
BRANCH  22  26
HETATM   26  C2  UNL     1      23.143  28.068  12.609  1.00  0.00     0.123 C
HETATM   27  C1  UNL     1      22.200  29.260  12.503  1.00  0.00     0.026 C
ENDBRANCH  22  26
ENDBRANCH  19  20
ENDBRANCH  18  19
ENDBRANCH  17  18
ENDBRANCH  16  17
ENDBRANCH  15  16
ENDBRANCH  11  15
ENDBRANCH   1   9
BRANCH   3  28
HETATM   28  O1  UNL     1      15.976  33.783  16.776  1.00  0.00    -0.333 OA
BRANCH  28  29
HETATM   29  C14 UNL     1      15.281  33.971  17.920  1.00  0.00     0.203 C
BRANCH  29  30
HETATM   30  C15 UNL     1      15.281  35.388  18.443  1.00  0.00     0.197 C
BRANCH  30  31
HETATM   31  O2  UNL     1      16.547  35.631  18.959  1.00  0.00    -0.355 OA
BRANCH  31  32
HETATM   32  C16 UNL     1      17.384  36.312  18.109  1.00  0.00     0.358 C
HETATM   33  C17 UNL     1      16.757  37.486  17.426  1.00  0.00     0.065 C
HETATM   34  C18 UNL     1      17.238  38.779  18.076  1.00  0.00     0.015 C
HETATM   35  C19 UNL     1      18.730  38.913  17.847  1.00  0.00    -0.021 C
HETATM   36  C20 UNL     1      19.381  39.633  18.983  1.00  0.00     0.016 C
HETATM   37  C21 UNL     1      18.942  39.684  16.579  1.00  0.00     0.016 C
HETATM   38  C22 UNL     1      19.357  37.518  17.786  1.00  0.00     0.283 C
HETATM   39  N5  UNL     1      18.610  36.702  18.757  1.00  0.00     0.113 N
HETATM   40  C23 UNL     1      19.433  35.578  19.153  1.00  0.00     0.313 C
ENDBRANCH  31  32
ENDBRANCH  30  31
ENDBRANCH  29  30
ENDBRANCH  28  29
ENDBRANCH   3  28
BRANCH   6  41
HETATM   41  N7  UNL     1      20.518  33.291  15.463  1.00  0.00    -0.217 N
HETATM   42  C25 UNL     1      21.463  32.584  14.582  1.00  0.00     0.141 C
HETATM   43  C26 UNL     1      22.509  31.967  15.490  1.00  0.00     0.020 C
HETATM   44  C27 UNL     1      22.556  32.687  16.823  1.00  0.00     0.003 C
HETATM   45  C28 UNL     1      22.388  34.182  16.651  1.00  0.00     0.020 C
HETATM   46  C29 UNL     1      21.034  34.502  16.058  1.00  0.00     0.141 C
ENDBRANCH   6  41
TORSDOF 14
ENDMDL