MODEL 5
REMARK VINA RESULT: -8.288525621      1.889      4.308
REMARK  16 active torsions:
REMARK  status: ('A' for Active; 'I' for Inactive)
REMARK    1  A    between atoms: O1_2  and  C2_3
REMARK    2  A    between atoms: C2_3  and  C3_5
REMARK    3  A    between atoms: C6_10  and  S1_11
REMARK    4  A    between atoms: S1_11  and  C7_12
REMARK    5  A    between atoms: C7_12  and  C8_13
REMARK    6  A    between atoms: C8_13  and  N2_15
REMARK    7  A    between atoms: N2_15  and  C9_17
REMARK    8  A    between atoms: C9_17  and  C10_18
REMARK    9  A    between atoms: C10_18  and  C11_19
REMARK   10  A    between atoms: C11_19  and  N3_20
REMARK   11  A    between atoms: N4_23  and  C14_24
REMARK   12  A    between atoms: C14_24  and  C15_25
REMARK   13  A    between atoms: C15_25  and  C16_26
REMARK   14  A    between atoms: C16_26  and  N5_27
REMARK       I    between atoms: N5_27  and  C17_29
REMARK   15  A    between atoms: C21_36  and  C22_37
REMARK   16  A    between atoms: C22_37  and  C23_38
ROOT
HETATM    1  C7  UNL     1      18.611  32.112  14.132  1.00  0.00     0.151 C
ENDROOT
BRANCH   1   2
HETATM    2  S1  UNL     1      18.925  30.482  14.825  1.00  0.00    -0.087 SA
BRANCH   2   3
HETATM    3  C6  UNL     1      18.863  29.230  13.522  1.00  0.00     0.141 C
HETATM    4  N1  UNL     1      18.170  29.380  12.458  1.00  0.00    -0.340 N
HETATM    5  C4  UNL     1      18.204  28.318  11.477  1.00  0.00     0.021 C
ATOM      6  H1  UNL     1      17.612  30.221  12.306  1.00  0.00     0.167 HD
HETATM    7  C3  UNL     1      18.915  27.219  11.595  1.00  0.00     0.062 C
HETATM    8  C5  UNL     1      17.197  28.378  10.350  1.00  0.00     0.069 C
HETATM    9  C21 UNL     1      20.021  27.205  12.586  1.00  0.00     0.125 C
HETATM   10  N6  UNL     1      19.532  27.989  13.747  1.00  0.00    -0.362 N
ATOM     11  H6  UNL     1      19.673  27.646  14.697  1.00  0.00     0.162 HD
BRANCH   7  12
HETATM   12  C2  UNL     1      18.739  26.073  10.696  1.00  0.00     0.292 C
HETATM   13  O2  UNL     1      17.918  25.156  11.044  1.00  0.00    -0.259 OA
BRANCH  12  14
HETATM   14  O1  UNL     1      19.372  25.880   9.502  1.00  0.00    -0.323 OA
HETATM   15  C1  UNL     1      18.672  25.443   8.352  1.00  0.00     0.213 C
ENDBRANCH  12  14
ENDBRANCH   7  12
BRANCH   9  16
HETATM   16  C22 UNL     1      21.276  27.877  12.223  1.00  0.00     0.035 C
BRANCH  16  17
HETATM   17  C23 UNL     1      22.471  27.268  11.712  1.00  0.00    -0.012 C
HETATM   18  C24 UNL     1      22.489  25.775  11.536  1.00  0.00     0.005 C
HETATM   19  C25 UNL     1      23.326  25.415  10.292  1.00  0.00     0.000 C
HETATM   20  C26 UNL     1      24.510  26.368  10.254  1.00  0.00     0.000 C
HETATM   21  C27 UNL     1      24.867  26.797  11.663  1.00  0.00     0.000 C
HETATM   22  C28 UNL     1      23.801  27.651  12.314  1.00  0.00     0.005 C
ENDBRANCH  16  17
ENDBRANCH   9  16
ENDBRANCH   2   3
ENDBRANCH   1   2
BRANCH   1  23
HETATM   23  C8  UNL     1      17.636  32.860  14.963  1.00  0.00     0.083 C
HETATM   24  S2  UNL     1      16.564  32.028  15.912  1.00  0.00    -0.065 SA
BRANCH  23  25
HETATM   25  N2  UNL     1      17.584  34.266  14.978  1.00  0.00    -0.384 N
ATOM     26  H2  UNL     1      18.471  34.735  14.800  1.00  0.00     0.160 HD
BRANCH  25  27
HETATM   27  C9  UNL     1      16.486  35.125  15.205  1.00  0.00     0.122 C
BRANCH  27  28
HETATM   28  C10 UNL     1      16.219  35.594  16.599  1.00  0.00     0.050 C
BRANCH  28  29
HETATM   29  C11 UNL     1      17.048  36.796  16.968  1.00  0.00     0.274 C
BRANCH  29  30
HETATM   30  N3  UNL     1      17.356  36.844  18.371  1.00  0.00     0.091 N
HETATM   31  C12 UNL     1      18.554  37.626  18.645  1.00  0.00     0.292 C
HETATM   32  C13 UNL     1      19.686  37.132  17.830  1.00  0.00     0.152 C
HETATM   33  N4  UNL     1      20.036  35.786  18.257  1.00  0.00    -0.390 N
HETATM   34  C19 UNL     1      19.068  35.210  19.122  1.00  0.00     0.152 C
HETATM   35  C20 UNL     1      17.650  35.451  18.745  1.00  0.00     0.292 C
BRANCH  33  36
HETATM   36  C14 UNL     1      20.567  34.986  17.228  1.00  0.00     0.063 C
BRANCH  36  37
HETATM   37  C15 UNL     1      21.824  34.281  17.618  1.00  0.00     0.089 C
BRANCH  37  38
HETATM   38  C16 UNL     1      22.597  33.779  16.466  1.00  0.00     0.069 C
BRANCH  38  39
HETATM   39  N5  UNL     1      22.493  32.443  16.039  1.00  0.00    -0.341 N
HETATM   40  C17 UNL     1      22.520  32.193  14.615  1.00  0.00     0.217 C
HETATM   41  C18 UNL     1      22.417  30.842  14.061  1.00  0.00     0.117 C
HETATM   42  O3  UNL     1      22.633  33.170  13.853  1.00  0.00    -0.274 OA
ATOM     43  H5  UNL     1      22.402  31.679  16.708  1.00  0.00     0.167 HD
ENDBRANCH  38  39
ENDBRANCH  37  38
ENDBRANCH  36  37
ENDBRANCH  33  36
ENDBRANCH  29  30
ENDBRANCH  28  29
ENDBRANCH  27  28
ENDBRANCH  25  27
ENDBRANCH  23  25
ENDBRANCH   1  23
TORSDOF 16
ENDMDL