MODEL 4
REMARK VINA RESULT: -7.980481552      1.387      2.161
REMARK  16 active torsions:
REMARK  status: ('A' for Active; 'I' for Inactive)
REMARK    1  A    between atoms: O1_2  and  C2_3
REMARK    2  A    between atoms: C5_6  and  C6_7
REMARK    3  A    between atoms: C6_7  and  C7_8
REMARK    4  A    between atoms: C7_8  and  O2_9
REMARK    5  A    between atoms: N1_11  and  O3_13
REMARK    6  A    between atoms: N2_17  and  C10_18
REMARK    7  A    between atoms: C10_18  and  O4_19
REMARK    8  A    between atoms: C11_21  and  N3_22
REMARK    9  A    between atoms: N4_25  and  C14_26
REMARK   10  A    between atoms: C14_26  and  C15_27
REMARK   11  A    between atoms: C15_27  and  C16_28
REMARK   12  A    between atoms: C16_28  and  C17_29
REMARK   13  A    between atoms: C17_29  and  C18_30
REMARK   14  A    between atoms: C18_30  and  C19_31
REMARK   15  A    between atoms: C19_31  and  C20_32
REMARK   16  A    between atoms: C20_32  and  N5_33
ROOT
HETATM    1  C10 UNL     1      20.342  29.823  16.047  1.00  0.00     0.149 C
HETATM    2  C11 UNL     1      20.503  31.172  16.543  1.00  0.00     0.115 C
ENDROOT
BRANCH   1   3
HETATM    3  N2  UNL     1      20.584  29.284  14.787  1.00  0.00    -0.352 N
HETATM    4  C9  UNL     1      19.413  29.262  13.851  1.00  0.00     0.129 C
HETATM    5  C2  UNL     1      19.773  29.785  12.518  1.00  0.00     0.141 C
HETATM    6  C8  UNL     1      18.733  27.943  13.922  1.00  0.00     0.033 C
HETATM    7  C3  UNL     1      18.726  29.409  11.499  1.00  0.00     0.049 C
HETATM    8  C30 UNL     1      21.077  29.248  12.022  1.00  0.00     0.168 C
HETATM    9  C4  UNL     1      18.649  27.913  11.422  1.00  0.00     0.008 C
HETATM   10  C5  UNL     1      18.036  27.449  12.722  1.00  0.00    -0.005 C
HETATM   11  C28 UNL     1      22.171  28.883  12.900  1.00  0.00     0.072 C
HETATM   12  O6  UNL     1      21.209  29.123  10.824  1.00  0.00    -0.294 OA
HETATM   13  C27 UNL     1      21.857  28.820  14.370  1.00  0.00     0.137 C
HETATM   14  C29 UNL     1      22.866  27.594  12.436  1.00  0.00     0.020 C
BRANCH   5  15
HETATM   15  O1  UNL     1      19.941  31.180  12.462  1.00  0.00    -0.375 OA
HETATM   16  C1  UNL     1      18.998  31.923  13.091  1.00  0.00     0.203 C
ENDBRANCH   5  15
BRANCH  10  17
HETATM   17  C6  UNL     1      17.851  25.942  12.741  1.00  0.00     0.090 C
BRANCH  17  18
HETATM   18  C7  UNL     1      18.632  25.295  11.663  1.00  0.00     0.135 C
HETATM   19  N1  UNL     1      19.875  25.038  11.881  1.00  0.00    -0.251 N
ATOM     20  H1  UNL     1      20.281  25.288  12.782  1.00  0.00     0.196 HD
BRANCH  18  21
HETATM   21  O2  UNL     1      18.107  24.946  10.428  1.00  0.00    -0.348 OA
ATOM     22  H2  UNL     1      17.879  24.058  10.180  1.00  0.00     0.219 HD
ENDBRANCH  18  21
BRANCH  19  23
HETATM   23  O3  UNL     1      20.674  24.434  10.930  1.00  0.00    -0.288 OA
ATOM     24  H3  UNL     1      21.533  24.772  10.707  1.00  0.00     0.244 HD
ENDBRANCH  19  23
ENDBRANCH  17  18
ENDBRANCH  10  17
ENDBRANCH   1   3
BRANCH   1  25
HETATM   25  O4  UNL     1      19.884  28.982  16.977  1.00  0.00    -0.345 OA
ATOM     26  H4  UNL     1      19.554  29.373  17.777  1.00  0.00     0.219 HD
ENDBRANCH   1  25
BRANCH   2  27
HETATM   27  N3  UNL     1      21.078  32.198  15.765  1.00  0.00    -0.286 NA
HETATM   28  C12 UNL     1      20.416  33.460  16.149  1.00  0.00     0.125 C
HETATM   29  C13 UNL     1      21.349  34.619  15.915  1.00  0.00     0.287 C
HETATM   30  N4  UNL     1      22.372  34.674  16.958  1.00  0.00     0.090 N
HETATM   31  C25 UNL     1      22.585  33.274  17.359  1.00  0.00     0.287 C
HETATM   32  C26 UNL     1      22.491  32.433  16.129  1.00  0.00     0.125 C
BRANCH  30  33
HETATM   33  C14 UNL     1      21.792  35.309  18.151  1.00  0.00     0.272 C
BRANCH  33  34
HETATM   34  C15 UNL     1      21.185  36.614  17.714  1.00  0.00     0.030 C
BRANCH  34  35
HETATM   35  C16 UNL     1      19.812  36.835  18.284  1.00  0.00     0.002 C
BRANCH  35  36
HETATM   36  C17 UNL     1      19.417  35.561  19.015  1.00  0.00     0.000 C
BRANCH  36  37
HETATM   37  C18 UNL     1      17.967  35.178  18.716  1.00  0.00     0.002 C
BRANCH  37  38
HETATM   38  C19 UNL     1      17.658  35.603  17.304  1.00  0.00     0.020 C
BRANCH  38  39
HETATM   39  C20 UNL     1      16.221  36.025  17.121  1.00  0.00     0.125 C
BRANCH  39  40
HETATM   40  N5  UNL     1      16.055  37.278  17.872  1.00  0.00    -0.352 N
HETATM   41  C21 UNL     1      15.368  37.372  19.117  1.00  0.00     0.126 C
HETATM   42  C22 UNL     1      15.608  38.747  19.644  1.00  0.00     0.029 C
HETATM   43  C23 UNL     1      15.897  39.574  18.399  1.00  0.00     0.104 C
HETATM   44  C24 UNL     1      16.525  38.559  17.503  1.00  0.00     0.219 C
HETATM   45  O5  UNL     1      17.338  38.801  16.577  1.00  0.00    -0.273 OA
ENDBRANCH  39  40
ENDBRANCH  38  39
ENDBRANCH  37  38
ENDBRANCH  36  37
ENDBRANCH  35  36
ENDBRANCH  34  35
ENDBRANCH  33  34
ENDBRANCH  30  33
ENDBRANCH   2  27
TORSDOF 16
ENDMDL