MODEL 2
REMARK VINA RESULT: -8.435708830      1.644      2.855
REMARK  16 active torsions:
REMARK  status: ('A' for Active; 'I' for Inactive)
REMARK    1  A    between atoms: C2_2  and  C3_3
REMARK    2  A    between atoms: C3_3  and  C4_4
REMARK    3  A    between atoms: C4_4  and  C5_5
REMARK    4  A    between atoms: C5_5  and  C6_6
REMARK    5  A    between atoms: C6_6  and  C7_7
REMARK    6  A    between atoms: C7_7  and  O1_8
REMARK    7  A    between atoms: O1_8  and  C8_9
REMARK       I    between atoms: C8_9  and  N1_11
REMARK    8  A    between atoms: C9_13  and  C10_14
REMARK    9  A    between atoms: C9_13  and  C25_46
REMARK       I    between atoms: C10_14  and  N2_16
REMARK   10  A    between atoms: C13_22  and  C14_23
REMARK   11  A    between atoms: C14_23  and  C15_24
REMARK   12  A    between atoms: C15_24  and  C16_25
REMARK   13  A    between atoms: C16_25  and  C17_26
REMARK   14  A    between atoms: C17_26  and  C18_27
REMARK   15  A    between atoms: C19_32  and  N6_33
REMARK       I    between atoms: N6_33  and  C20_35
REMARK   16  A    between atoms: C20_35  and  C21_37
ROOT
HETATM    1  C10 UNL     1      19.030  30.225  12.731  1.00  0.00     0.270 C
HETATM    2  O3  UNL     1      18.236  29.881  11.842  1.00  0.00    -0.266 OA
HETATM    3  N2  UNL     1      19.010  31.622  13.075  1.00  0.00    -0.306 N
ATOM      4  H2  UNL     1      19.625  32.292  12.613  1.00  0.00     0.170 HD
HETATM    5  C11 UNL     1      18.186  31.990  13.985  1.00  0.00     0.138 A
HETATM    6  C12 UNL     1      18.126  33.317  14.352  1.00  0.00     0.139 A
HETATM    7  N3  UNL     1      17.272  33.692  15.294  1.00  0.00    -0.351 N
ATOM      8  H3  UNL     1      17.227  34.673  15.568  1.00  0.00     0.166 HD
HETATM    9  C13 UNL     1      16.473  32.807  15.887  1.00  0.00     0.095 A
HETATM   10  N7  UNL     1      16.517  31.518  15.544  1.00  0.00    -0.287 N
ATOM     11  H7  UNL     1      15.906  30.839  15.998  1.00  0.00     0.188 HD
HETATM   12  N8  UNL     1      17.362  31.136  14.611  1.00  0.00    -0.283 N
ATOM     13  H8  UNL     1      17.392  30.150  14.352  1.00  0.00     0.188 HD
ENDROOT
BRANCH   1  14
HETATM   14  C9  UNL     1      19.957  29.379  13.445  1.00  0.00     0.085 C
HETATM   15  N1  UNL     1      19.566  28.320  14.022  1.00  0.00    -0.301 N
HETATM   16  C8  UNL     1      18.172  27.952  13.966  1.00  0.00     0.365 C
ATOM     17  H1  UNL     1      20.232  27.732  14.523  1.00  0.00     0.171 HD
HETATM   18  O2  UNL     1      17.387  28.346  14.864  1.00  0.00    -0.238 OA
BRANCH  16  19
HETATM   19  O1  UNL     1      17.730  27.195  12.965  1.00  0.00    -0.304 OA
BRANCH  19  20
HETATM   20  C7  UNL     1      18.177  26.219  12.178  1.00  0.00     0.180 C
BRANCH  20  21
HETATM   21  C6  UNL     1      18.751  26.524  10.864  1.00  0.00     0.027 C
BRANCH  21  22
HETATM   22  C5  UNL     1      20.117  27.044  10.689  1.00  0.00     0.002 C
BRANCH  22  23
HETATM   23  C4  UNL     1      21.175  26.276  11.452  1.00  0.00     0.000 C
BRANCH  23  24
HETATM   24  C3  UNL     1      22.529  26.510  10.863  1.00  0.00    -0.000 C
BRANCH  24  25
HETATM   25  C2  UNL     1      23.672  26.169  11.784  1.00  0.00    -0.005 C
HETATM   26  C1  UNL     1      24.686  27.303  11.805  1.00  0.00     0.005 C
ENDBRANCH  24  25
ENDBRANCH  23  24
ENDBRANCH  22  23
ENDBRANCH  21  22
ENDBRANCH  20  21
ENDBRANCH  19  20
ENDBRANCH  16  19
BRANCH  14  27
HETATM   27  C25 UNL     1      21.413  29.716  13.535  1.00  0.00     0.033 C
HETATM   28  C26 UNL     1      22.117  28.585  14.235  1.00  0.00     0.016 C
HETATM   29  C27 UNL     1      22.024  29.941  12.178  1.00  0.00     0.016 C
ENDBRANCH  14  27
ENDBRANCH   1  14
BRANCH   9  30
HETATM   30  C14 UNL     1      15.509  33.225  16.952  1.00  0.00     0.078 C
BRANCH  30  31
HETATM   31  C15 UNL     1      15.239  34.718  16.868  1.00  0.00     0.008 C
BRANCH  31  32
HETATM   32  C16 UNL     1      15.047  35.213  18.270  1.00  0.00     0.007 C
BRANCH  32  33
HETATM   33  C17 UNL     1      15.906  36.419  18.585  1.00  0.00     0.066 C
BRANCH  33  34
HETATM   34  C18 UNL     1      17.304  36.053  18.170  1.00  0.00     0.069 A
HETATM   35  N4  UNL     1      18.119  36.668  17.327  1.00  0.00    -0.296 N
HETATM   36  N5  UNL     1      19.277  36.207  17.100  1.00  0.00    -0.279 N
ATOM     37  H4  UNL     1      17.813  37.520  16.857  1.00  0.00     0.187 HD
HETATM   38  C19 UNL     1      19.666  35.093  17.720  1.00  0.00     0.167 A
ATOM     39  H5  UNL     1      19.904  36.683  16.451  1.00  0.00     0.189 HD
HETATM   40  S1  UNL     1      18.281  34.723  18.659  1.00  0.00    -0.038 SA
BRANCH  38  41
HETATM   41  N6  UNL     1      20.780  34.427  17.661  1.00  0.00    -0.305 N
HETATM   42  C20 UNL     1      21.371  33.937  16.485  1.00  0.00     0.231 C
HETATM   43  O4  UNL     1      21.379  34.554  15.401  1.00  0.00    -0.272 OA
ATOM     44  H6  UNL     1      21.264  34.246  18.540  1.00  0.00     0.171 HD
BRANCH  42  45
HETATM   45  C21 UNL     1      22.026  32.600  16.549  1.00  0.00     0.030 C
HETATM   46  C22 UNL     1      23.003  32.501  15.407  1.00  0.00     0.025 C
HETATM   47  C23 UNL     1      22.783  32.485  17.862  1.00  0.00     0.025 C
HETATM   48  C24 UNL     1      21.016  31.483  16.507  1.00  0.00     0.025 C
ENDBRANCH  42  45
ENDBRANCH  38  41
ENDBRANCH  33  34
ENDBRANCH  32  33
ENDBRANCH  31  32
ENDBRANCH  30  31
ENDBRANCH   9  30
TORSDOF 16
ENDMDL