MODEL 3
REMARK VINA RESULT: -8.775400358      1.088      1.118
REMARK  13 active torsions:
REMARK  status: ('A' for Active; 'I' for Inactive)
REMARK    1  A    between atoms: O1_2  and  C2_3
REMARK    2  A    between atoms: C2_3  and  C3_4
REMARK    3  A    between atoms: C3_4  and  C4_5
REMARK    4  A    between atoms: C4_5  and  N1_6
REMARK    5  A    between atoms: C9_11  and  N2_12
REMARK    6  A    between atoms: N2_12  and  C10_14
REMARK    7  A    between atoms: C11_17  and  N4_18
REMARK    8  A    between atoms: N4_18  and  C12_20
REMARK    9  A    between atoms: C14_22  and  O2_23
REMARK   10  A    between atoms: C18_27  and  O3_28
REMARK   11  A    between atoms: C20_34  and  C21_35
REMARK   12  A    between atoms: C24_38  and  O4_39
REMARK   13  A    between atoms: C28_43  and  O5_44
ROOT
HETATM    1  C10 UNL     1      19.979  30.876  14.731  1.00  0.00     0.150 A
HETATM    2  N3  UNL     1      20.878  30.175  14.014  1.00  0.00    -0.173 N
ATOM      3  H3  UNL     1      21.797  30.005  14.421  1.00  0.00     0.186 HD
HETATM    4  C11 UNL     1      20.621  29.687  12.781  1.00  0.00     0.699 A
HETATM    5  N5  UNL     1      19.426  29.884  12.195  1.00  0.00    -0.131 N
ATOM      6  H5  UNL     1      19.218  29.523  11.264  1.00  0.00     0.205 HD
HETATM    7  N6  UNL     1      18.542  30.565  12.885  1.00  0.00    -0.282 N
ATOM      8  H6  UNL     1      17.632  30.720  12.453  1.00  0.00     0.187 HD
HETATM    9  C20 UNL     1      18.733  31.076  14.114  1.00  0.00     0.103 A
ENDROOT
BRANCH   1  10
HETATM   10  N2  UNL     1      20.150  31.390  15.854  1.00  0.00    -0.338 N
ATOM     11  H2  UNL     1      19.917  30.756  16.618  1.00  0.00     0.167 HD
BRANCH  10  12
HETATM   12  C9  UNL     1      20.584  32.622  16.299  1.00  0.00     0.068 A
HETATM   13  C8  UNL     1      19.651  33.440  16.923  1.00  0.00     0.040 A
HETATM   14  C7  UNL     1      19.985  34.704  17.429  1.00  0.00    -0.038 A
HETATM   15  C6  UNL     1      18.969  35.557  18.047  1.00  0.00     0.059 C
HETATM   16  C31 UNL     1      21.288  35.116  17.288  1.00  0.00     0.041 A
HETATM   17  C5  UNL     1      19.433  36.710  18.844  1.00  0.00     0.130 C
HETATM   18  N1  UNL     1      20.734  37.230  18.540  1.00  0.00    -0.348 N
HETATM   19  C32 UNL     1      21.670  36.409  17.855  1.00  0.00     0.254 C
HETATM   20  O6  UNL     1      22.888  36.751  17.695  1.00  0.00    -0.267 OA
HETATM   21  C30 UNL     1      22.190  34.290  16.665  1.00  0.00     0.056 A
HETATM   22  C28 UNL     1      21.887  33.035  16.153  1.00  0.00     0.096 A
BRANCH  18  23
HETATM   23  C4  UNL     1      21.089  38.551  18.984  1.00  0.00     0.128 C
BRANCH  23  24
HETATM   24  C3  UNL     1      20.370  39.678  18.315  1.00  0.00     0.046 C
BRANCH  24  25
HETATM   25  C2  UNL     1      19.697  40.623  19.239  1.00  0.00     0.168 C
BRANCH  25  26
HETATM   26  O1  UNL     1      18.863  39.991  20.133  1.00  0.00    -0.396 OA
HETATM   27  C1  UNL     1      17.547  39.873  19.765  1.00  0.00     0.201 C
ENDBRANCH  25  26
ENDBRANCH  24  25
ENDBRANCH  23  24
ENDBRANCH  18  23
BRANCH  22  28
HETATM   28  O5  UNL     1      22.860  32.258  15.534  1.00  0.00    -0.354 OA
HETATM   29  C29 UNL     1      23.532  32.643  14.374  1.00  0.00     0.210 C
ENDBRANCH  22  28
ENDBRANCH  10  12
ENDBRANCH   1  10
BRANCH   9  30
HETATM   30  C21 UNL     1      17.698  31.816  14.816  1.00  0.00    -0.004 A
HETATM   31  C22 UNL     1      16.900  31.295  15.809  1.00  0.00     0.016 A
HETATM   32  C23 UNL     1      15.956  32.121  16.392  1.00  0.00     0.037 A
HETATM   33  C24 UNL     1      15.784  33.436  16.017  1.00  0.00     0.068 A
HETATM   34  C26 UNL     1      16.577  33.969  15.024  1.00  0.00     0.037 A
HETATM   35  C27 UNL     1      17.519  33.150  14.440  1.00  0.00     0.016 A
BRANCH  33  36
HETATM   36  O4  UNL     1      14.833  34.255  16.608  1.00  0.00    -0.356 OA
HETATM   37  C25 UNL     1      14.989  34.713  17.935  1.00  0.00     0.210 C
ENDBRANCH  33  36
ENDBRANCH   9  30
BRANCH   4  38
HETATM   38  N4  UNL     1      21.539  28.975  12.167  1.00  0.00    -0.188 N
ATOM     39  H4  UNL     1      22.418  29.404  11.879  1.00  0.00     0.184 HD
BRANCH  38  40
HETATM   40  C12 UNL     1      21.290  27.592  11.908  1.00  0.00     0.085 A
HETATM   41  C13 UNL     1      20.010  27.137  11.661  1.00  0.00     0.069 A
HETATM   42  C14 UNL     1      19.702  25.822  11.379  1.00  0.00     0.070 A
HETATM   43  C16 UNL     1      20.754  24.925  11.347  1.00  0.00     0.039 A
HETATM   44  C17 UNL     1      22.047  25.325  11.586  1.00  0.00     0.042 A
HETATM   45  C18 UNL     1      22.301  26.669  11.866  1.00  0.00     0.095 A
BRANCH  42  46
HETATM   46  O2  UNL     1      18.427  25.369  11.132  1.00  0.00    -0.356 OA
HETATM   47  C15 UNL     1      17.795  25.711   9.919  1.00  0.00     0.210 C
ENDBRANCH  42  46
BRANCH  45  48
HETATM   48  O3  UNL     1      23.605  27.105  12.114  1.00  0.00    -0.354 OA
HETATM   49  C19 UNL     1      24.662  26.226  11.796  1.00  0.00     0.210 C
ENDBRANCH  45  48
ENDBRANCH  38  40
ENDBRANCH   4  38
TORSDOF 13
ENDMDL