MODEL 3
REMARK VINA RESULT: -9.124786101      1.334      1.703
REMARK  12 active torsions:
REMARK  status: ('A' for Active; 'I' for Inactive)
REMARK    1  A    between atoms: O1_2  and  C2_3
REMARK    2  A    between atoms: C4_5  and  N1_6
REMARK       I    between atoms: N1_6  and  C5_8
REMARK       I    between atoms: C5_8  and  N2_10
REMARK    3  A    between atoms: N2_10  and  C6_12
REMARK    4  A    between atoms: C9_15  and  N3_16
REMARK    5  A    between atoms: C19_27  and  O3_28
REMARK    6  A    between atoms: O3_28  and  C20_29
REMARK    7  A    between atoms: C20_29  and  C21_30
REMARK    8  A    between atoms: C21_30  and  N5_31
REMARK    9  A    between atoms: C27_38  and  O5_39
REMARK   10  A    between atoms: O5_39  and  C28_40
REMARK   11  A    between atoms: C28_40  and  C29_41
REMARK   12  A    between atoms: C29_41  and  N6_42
ROOT
HETATM    1  C2  UNL     1      18.733  27.426  12.195  1.00  0.00     0.103 A
HETATM    2  C3  UNL     1      18.239  28.023  13.367  1.00  0.00     0.072 A
HETATM    3  C4  UNL     1      19.034  28.819  14.142  1.00  0.00     0.072 A
HETATM    4  C19 UNL     1      20.344  29.013  13.726  1.00  0.00     0.098 A
HETATM    5  C26 UNL     1      20.815  28.424  12.577  1.00  0.00     0.078 A
HETATM    6  C27 UNL     1      20.030  27.619  11.782  1.00  0.00     0.104 A
ENDROOT
BRANCH   3   7
HETATM    7  N1  UNL     1      18.633  29.491  15.306  1.00  0.00    -0.306 N
HETATM    8  C5  UNL     1      18.394  30.893  15.452  1.00  0.00     0.325 C
HETATM    9  O2  UNL     1      18.532  31.613  14.451  1.00  0.00    -0.247 OA
HETATM   10  N2  UNL     1      18.010  31.401  16.732  1.00  0.00    -0.308 N
ATOM     11  H2  UNL     1      17.942  30.726  17.493  1.00  0.00     0.170 HD
ATOM     12  H1  UNL     1      18.497  28.917  16.139  1.00  0.00     0.171 HD
BRANCH  10  13
HETATM   13  C6  UNL     1      17.714  32.747  17.047  1.00  0.00     0.043 A
HETATM   14  C7  UNL     1      18.666  33.676  17.409  1.00  0.00     0.032 A
HETATM   15  C8  UNL     1      18.279  34.976  17.653  1.00  0.00     0.032 A
HETATM   16  C9  UNL     1      16.957  35.412  17.552  1.00  0.00     0.036 A
HETATM   17  C15 UNL     1      16.038  34.479  17.195  1.00  0.00    -0.027 A
HETATM   18  C16 UNL     1      14.589  34.867  17.094  1.00  0.00     0.051 C
HETATM   19  C17 UNL     1      16.368  33.155  16.937  1.00  0.00    -0.027 A
HETATM   20  C18 UNL     1      15.323  32.171  16.552  1.00  0.00     0.051 C
BRANCH  16  21
HETATM   21  N3  UNL     1      16.640  36.770  17.788  1.00  0.00    -0.377 N
HETATM   22  C10 UNL     1      16.078  37.136  19.069  1.00  0.00     0.142 C
HETATM   23  C11 UNL     1      16.242  38.581  19.377  1.00  0.00     0.136 C
HETATM   24  N4  UNL     1      17.283  39.278  18.725  1.00  0.00    -0.414 N
HETATM   25  C12 UNL     1      18.359  39.651  19.571  1.00  0.00     0.143 C
HETATM   26  C13 UNL     1      17.617  38.928  17.399  1.00  0.00     0.136 C
HETATM   27  C14 UNL     1      16.822  37.803  16.802  1.00  0.00     0.142 C
ENDBRANCH  16  21
ENDBRANCH  10  13
ENDBRANCH   3   7
BRANCH   4  28
HETATM   28  O3  UNL     1      21.206  29.814  14.472  1.00  0.00    -0.347 OA
BRANCH  28  29
HETATM   29  C20 UNL     1      22.235  30.560  13.795  1.00  0.00     0.206 C
BRANCH  29  30
HETATM   30  C21 UNL     1      21.835  32.001  13.825  1.00  0.00     0.299 C
BRANCH  30  31
HETATM   31  N5  UNL     1      21.729  32.518  15.173  1.00  0.00     0.094 N
HETATM   32  C22 UNL     1      21.475  33.923  15.220  1.00  0.00     0.298 C
HETATM   33  C23 UNL     1      22.121  34.501  16.458  1.00  0.00     0.198 C
HETATM   34  O4  UNL     1      21.953  33.737  17.591  1.00  0.00    -0.388 OA
HETATM   35  C24 UNL     1      22.523  32.479  17.470  1.00  0.00     0.198 C
HETATM   36  C25 UNL     1      22.797  32.112  16.028  1.00  0.00     0.298 C
ENDBRANCH  30  31
ENDBRANCH  29  30
ENDBRANCH  28  29
ENDBRANCH   4  28
BRANCH   1  37
HETATM   37  O1  UNL     1      17.904  26.626  11.432  1.00  0.00    -0.353 OA
HETATM   38  C1  UNL     1      17.732  25.265  11.807  1.00  0.00     0.210 C
ENDBRANCH   1  37
BRANCH   6  39
HETATM   39  O5  UNL     1      20.436  27.012  10.650  1.00  0.00    -0.346 OA
BRANCH  39  40
HETATM   40  C28 UNL     1      20.989  25.797  10.352  1.00  0.00     0.206 C
BRANCH  40  41
HETATM   41  C29 UNL     1      21.688  25.085  11.468  1.00  0.00     0.299 C
BRANCH  41  42
HETATM   42  N6  UNL     1      23.126  25.128  11.180  1.00  0.00     0.090 N
HETATM   43  C30 UNL     1      23.762  26.252  11.760  1.00  0.00     0.272 C
HETATM   44  C31 UNL     1      25.045  26.391  10.924  1.00  0.00     0.032 C
HETATM   45  C32 UNL     1      24.490  26.085   9.541  1.00  0.00     0.032 C
HETATM   46  C33 UNL     1      23.292  25.218   9.771  1.00  0.00     0.272 C
ENDBRANCH  41  42
ENDBRANCH  40  41
ENDBRANCH  39  40
ENDBRANCH   6  39
TORSDOF 12
ENDMDL