MODEL 2
REMARK VINA RESULT: -9.146763601      2.193      4.364
REMARK  13 active torsions:
REMARK  status: ('A' for Active; 'I' for Inactive)
REMARK    1  A    between atoms: C4_4  and  C5_5
REMARK    2  A    between atoms: C5_5  and  C6_6
REMARK    3  A    between atoms: C6_6  and  C7_7
REMARK    4  A    between atoms: C7_7  and  C8_8
REMARK    5  A    between atoms: C8_8  and  C9_9
REMARK       I    between atoms: C9_9  and  N1_11
REMARK    6  A    between atoms: N1_11  and  C10_13
REMARK    7  A    between atoms: C10_13  and  C11_14
REMARK    8  A    between atoms: C11_14  and  C12_15
REMARK    9  A    between atoms: C12_15  and  N2_16
REMARK   10  A    between atoms: C19_26  and  C20_27
REMARK   11  A    between atoms: N4_31  and  N5_33
REMARK       I    between atoms: N5_33  and  C24_35
REMARK   12  A    between atoms: C24_35  and  C25_37
REMARK   13  A    between atoms: C25_37  and  C26_38
ROOT
HETATM    1  C7  UNL     1      20.782  29.064  13.576  1.00  0.00     0.013 C
HETATM    2  N4  UNL     1      19.791  29.607  12.993  1.00  0.00    -0.306 N
ATOM      3  H4  UNL     1      19.378  30.430  13.431  1.00  0.00     0.186 HD
ENDROOT
BRANCH   1   4
HETATM    4  C6  UNL     1      21.401  27.858  12.951  1.00  0.00     0.058 C
BRANCH   4   5
HETATM    5  C5  UNL     1      22.844  28.147  12.550  1.00  0.00     0.033 C
BRANCH   5   6
HETATM    6  C4  UNL     1      23.024  27.630  11.166  1.00  0.00    -0.024 C
HETATM    7  C2  UNL     1      24.084  26.875  10.892  1.00  0.00    -0.091 C
HETATM    8  C1  UNL     1      25.077  26.547  11.955  1.00  0.00     0.042 C
HETATM    9  C3  UNL     1      24.295  26.345   9.530  1.00  0.00     0.042 C
ENDBRANCH   5   6
ENDBRANCH   4   5
ENDBRANCH   1   4
BRANCH   1  10
HETATM   10  C8  UNL     1      21.296  29.619  14.844  1.00  0.00     0.156 C
BRANCH  10  11
HETATM   11  C9  UNL     1      21.900  30.950  14.698  1.00  0.00     0.223 C
HETATM   12  O1  UNL     1      22.005  31.485  13.580  1.00  0.00    -0.273 OA
HETATM   13  N1  UNL     1      22.374  31.648  15.836  1.00  0.00    -0.360 N
ATOM     14  H1  UNL     1      22.272  31.198  16.746  1.00  0.00     0.162 HD
BRANCH  13  15
HETATM   15  C10 UNL     1      22.998  32.966  15.794  1.00  0.00     0.128 C
BRANCH  15  16
HETATM   16  C11 UNL     1      22.239  33.996  16.556  1.00  0.00     0.064 C
BRANCH  16  17
HETATM   17  C12 UNL     1      20.837  33.773  16.929  1.00  0.00     0.061 C
BRANCH  17  18
HETATM   18  N2  UNL     1      19.941  34.829  17.046  1.00  0.00    -0.374 N
HETATM   19  C13 UNL     1      20.433  36.096  17.498  1.00  0.00     0.149 C
HETATM   20  C14 UNL     1      20.446  36.168  19.034  1.00  0.00     0.187 C
HETATM   21  O2  UNL     1      19.813  35.121  19.638  1.00  0.00    -0.387 OA
HETATM   22  C15 UNL     1      18.608  34.776  19.090  1.00  0.00     0.205 C
HETATM   23  C16 UNL     1      18.642  34.606  17.582  1.00  0.00     0.097 C
HETATM   24  C17 UNL     1      18.020  33.258  17.200  1.00  0.00     0.059 C
HETATM   25  C19 UNL     1      17.654  35.484  16.912  1.00  0.00     0.036 C
HETATM   26  C18 UNL     1      17.833  33.569  15.706  1.00  0.00     0.122 C
HETATM   27  N3  UNL     1      17.192  34.895  15.837  1.00  0.00    -0.391 N
ATOM     28  H3  UNL     1      16.503  35.287  15.195  1.00  0.00     0.159 HD
BRANCH  25  29
HETATM   29  C20 UNL     1      17.204  36.800  17.387  1.00  0.00     0.029 C
HETATM   30  C21 UNL     1      16.045  36.981  17.982  1.00  0.00    -0.086 C
HETATM   31  C22 UNL     1      15.710  38.386  18.416  1.00  0.00     0.043 C
HETATM   32  C23 UNL     1      15.065  35.901  18.253  1.00  0.00     0.043 C
ENDBRANCH  25  29
ENDBRANCH  17  18
ENDBRANCH  16  17
ENDBRANCH  15  16
ENDBRANCH  13  15
ENDBRANCH  10  11
ENDBRANCH   1  10
BRANCH   2  33
HETATM   33  N5  UNL     1      19.228  29.162  11.801  1.00  0.00    -0.270 N
HETATM   34  C24 UNL     1      18.033  28.414  11.753  1.00  0.00     0.236 C
HETATM   35  O3  UNL     1      17.461  28.141  12.857  1.00  0.00    -0.272 OA
ATOM     36  H5  UNL     1      19.699  29.386  10.924  1.00  0.00     0.190 HD
BRANCH  34  37
HETATM   37  C25 UNL     1      17.472  27.968  10.466  1.00  0.00     0.114 C
BRANCH  37  38
HETATM   38  C26 UNL     1      18.443  27.053   9.742  1.00  0.00     0.052 C
HETATM   39  C27 UNL     1      18.450  25.740  10.447  1.00  0.00     0.178 C
HETATM   40  O4  UNL     1      18.186  24.732   9.531  1.00  0.00    -0.358 OA
HETATM   41  C28 UNL     1      17.437  25.311   8.518  1.00  0.00     0.292 C
HETATM   42  O5  UNL     1      17.701  24.776   7.279  1.00  0.00    -0.324 OA
HETATM   43  C32 UNL     1      17.865  26.732   8.393  1.00  0.00     0.187 C
HETATM   44  C29 UNL     1      18.804  25.453   6.796  1.00  0.00     0.160 C
HETATM   45  C30 UNL     1      20.029  24.617   7.031  1.00  0.00     0.078 C
HETATM   46  C31 UNL     1      18.680  25.679   5.285  1.00  0.00     0.078 C
HETATM   47  O6  UNL     1      18.843  26.683   7.399  1.00  0.00    -0.345 OA
ENDBRANCH  37  38
ENDBRANCH  34  37
ENDBRANCH   2  33
TORSDOF 13
ENDMDL