MODEL 1
REMARK VINA RESULT: -8.260966731      0.000      0.000
REMARK  14 active torsions:
REMARK  status: ('A' for Active; 'I' for Inactive)
REMARK    1  A    between atoms: O1_2  and  C2_3
REMARK    2  A    between atoms: C2_3  and  C3_4
REMARK    3  A    between atoms: C3_4  and  N1_5
REMARK       I    between atoms: N1_5  and  C4_7
REMARK    4  A    between atoms: C4_7  and  C5_9
REMARK    5  A    between atoms: C5_9  and  C6_10
REMARK    6  A    between atoms: C6_10  and  C7_11
REMARK    7  A    between atoms: N2_21  and  O4_23
REMARK    8  A    between atoms: O4_23  and  C16_24
REMARK    9  A    between atoms: C16_24  and  C17_25
REMARK   10  A    between atoms: C17_25  and  N3_26
REMARK   11  A    between atoms: C23_32  and  C25_34
REMARK   12  A    between atoms: C25_34  and  O6_36
REMARK   13  A    between atoms: O6_36  and  C26_37
REMARK   14  A    between atoms: C29_40  and  O7_41
ROOT
HETATM    1  C7  UNL     1      18.225  29.717  12.280  1.00  0.00     0.128 C
HETATM    2  O3  UNL     1      19.421  29.422  11.650  1.00  0.00    -0.374 OA
HETATM    3  C8  UNL     1      20.430  30.111  12.390  1.00  0.00     0.062 C
HETATM    4  C9  UNL     1      20.377  31.492  11.843  1.00  0.00     0.046 C
HETATM    5  C10 UNL     1      21.704  29.526  11.784  1.00  0.00     0.046 C
HETATM    6  C11 UNL     1      20.094  29.761  13.732  1.00  0.00     0.001 C
HETATM    7  C12 UNL     1      20.490  28.270  13.880  1.00  0.00     0.019 C
HETATM    8  C13 UNL     1      18.578  29.738  13.750  1.00  0.00     0.032 C
HETATM    9  C14 UNL     1      17.901  30.907  14.365  1.00  0.00     0.063 C
HETATM   10  C15 UNL     1      18.632  31.563  15.479  1.00  0.00     0.017 C
HETATM   11  N2  UNL     1      17.992  31.868  16.526  1.00  0.00    -0.275 N
ATOM     12  H2  UNL     1      18.504  32.318  17.285  1.00  0.00     0.193 HD
HETATM   13  C22 UNL     1      20.061  31.796  15.230  1.00  0.00     0.063 C
HETATM   14  C23 UNL     1      20.821  32.680  16.101  1.00  0.00     0.080 C
HETATM   15  C24 UNL     1      21.204  32.329  17.463  1.00  0.00     0.029 C
HETATM   16  C29 UNL     1      22.140  32.888  15.322  1.00  0.00     0.137 C
HETATM   17  C30 UNL     1      22.879  31.600  15.377  1.00  0.00     0.034 C
HETATM   18  C31 UNL     1      22.118  30.350  15.124  1.00  0.00     0.013 C
HETATM   19  C32 UNL     1      20.639  30.427  14.958  1.00  0.00    -0.023 C
HETATM   20  C33 UNL     1      20.064  29.570  16.113  1.00  0.00     0.017 C
ENDROOT
BRANCH   1  21
HETATM   21  C6  UNL     1      17.121  28.801  11.902  1.00  0.00     0.041 C
BRANCH  21  22
HETATM   22  C5  UNL     1      17.395  27.797  10.846  1.00  0.00     0.105 C
BRANCH  22  23
HETATM   23  C4  UNL     1      18.225  26.689  11.317  1.00  0.00     0.217 C
HETATM   24  N1  UNL     1      19.455  26.403  10.683  1.00  0.00    -0.359 N
ATOM     25  H1  UNL     1      19.747  26.983   9.896  1.00  0.00     0.162 HD
HETATM   26  O2  UNL     1      17.856  25.986  12.279  1.00  0.00    -0.274 OA
BRANCH  24  27
HETATM   27  C3  UNL     1      20.321  25.313  11.110  1.00  0.00     0.148 C
BRANCH  27  28
HETATM   28  C2  UNL     1      21.714  25.802  11.349  1.00  0.00     0.186 C
BRANCH  28  29
HETATM   29  O1  UNL     1      22.659  24.802  11.401  1.00  0.00    -0.394 OA
HETATM   30  C1  UNL     1      23.913  25.139  10.955  1.00  0.00     0.201 C
ENDBRANCH  28  29
ENDBRANCH  27  28
ENDBRANCH  24  27
ENDBRANCH  22  23
ENDBRANCH  21  22
ENDBRANCH   1  21
BRANCH  11  31
HETATM   31  O4  UNL     1      16.652  31.632  16.706  1.00  0.00    -0.279 OA
BRANCH  31  32
HETATM   32  C16 UNL     1      15.683  32.566  16.350  1.00  0.00     0.231 C
BRANCH  32  33
HETATM   33  C17 UNL     1      15.393  33.541  17.441  1.00  0.00     0.301 C
BRANCH  33  34
HETATM   34  N3  UNL     1      15.175  34.886  16.995  1.00  0.00     0.090 N
HETATM   35  C18 UNL     1      16.308  35.514  16.395  1.00  0.00     0.272 C
HETATM   36  C19 UNL     1      16.355  36.929  16.947  1.00  0.00     0.032 C
HETATM   37  C20 UNL     1      15.688  36.772  18.303  1.00  0.00     0.032 C
HETATM   38  C21 UNL     1      14.621  35.744  17.996  1.00  0.00     0.272 C
ENDBRANCH  33  34
ENDBRANCH  32  33
ENDBRANCH  31  32
ENDBRANCH  11  31
BRANCH  14  39
HETATM   39  C25 UNL     1      20.153  34.027  16.140  1.00  0.00     0.271 C
HETATM   40  O5  UNL     1      19.202  34.281  15.357  1.00  0.00    -0.264 OA
BRANCH  39  41
HETATM   41  O6  UNL     1      20.520  35.034  17.000  1.00  0.00    -0.316 OA
BRANCH  41  42
HETATM   42  C26 UNL     1      19.632  35.820  17.758  1.00  0.00     0.123 C
HETATM   43  C27 UNL     1      19.016  35.036  18.877  1.00  0.00     0.040 C
HETATM   44  C28 UNL     1      20.242  37.059  18.325  1.00  0.00     0.040 C
ENDBRANCH  41  42
ENDBRANCH  39  41
ENDBRANCH  14  39
BRANCH  16  45
HETATM   45  O7  UNL     1      22.884  33.875  15.947  1.00  0.00    -0.394 OA
ATOM     46  H7  UNL     1      22.812  34.681  15.449  1.00  0.00     0.210 HD
ENDBRANCH  16  45
TORSDOF 14
ENDMDL