MODEL 5
REMARK VINA RESULT: -6.612636294      2.421      3.247
REMARK  14 active torsions:
REMARK  status: ('A' for Active; 'I' for Inactive)
REMARK    1  A    between atoms: C2_2  and  C3_3
REMARK    2  A    between atoms: C3_3  and  C4_4
REMARK    3  A    between atoms: C11_14  and  O2_15
REMARK    4  A    between atoms: O2_15  and  C12_16
REMARK       I    between atoms: C12_16  and  N2_18
REMARK    5  A    between atoms: N2_18  and  C13_20
REMARK    6  A    between atoms: C13_20  and  C14_21
REMARK    7  A    between atoms: C14_21  and  C15_22
REMARK    8  A    between atoms: C17_24  and  C18_25
REMARK       I    between atoms: N3_31  and  C20_32
REMARK    9  A    between atoms: C20_32  and  O7_34
REMARK   10  A    between atoms: O7_34  and  C21_35
REMARK   11  A    between atoms: C21_35  and  C22_36
REMARK   12  A    between atoms: C22_36  and  C23_37
REMARK   13  A    between atoms: C23_37  and  C24_38
REMARK   14  A    between atoms: C24_38  and  C25_39
ROOT
HETATM    1  C4  UNL     1      20.054  35.412  18.681  1.00  0.00     0.141 C
HETATM    2  C5  UNL     1      21.002  34.940  17.637  1.00  0.00     0.024 C
HETATM    3  C6  UNL     1      21.300  33.863  17.021  1.00  0.00     0.058 C
HETATM    4  C7  UNL     1      22.253  33.462  15.995  1.00  0.00     0.256 C
HETATM    5  O1  UNL     1      23.379  33.851  15.605  1.00  0.00    -0.268 OA
HETATM    6  N1  UNL     1      21.365  32.421  15.603  1.00  0.00    -0.312 N
HETATM    7  C8  UNL     1      20.859  32.448  16.961  1.00  0.00     0.191 C
HETATM    8  S1  UNL     1      19.089  32.187  16.885  1.00  0.00    -0.134 SA
HETATM    9  C9  UNL     1      18.509  32.443  15.208  1.00  0.00     0.115 C
HETATM   10  C10 UNL     1      19.431  31.797  14.263  1.00  0.00    -0.015 C
HETATM   11  C11 UNL     1      19.001  31.446  13.075  1.00  0.00     0.153 C
HETATM   12  C17 UNL     1      20.851  31.528  14.613  1.00  0.00     0.222 C
HETATM   13  S2  UNL     1      21.796  36.559  17.250  1.00  0.00    -0.062 SA
HETATM   14  C19 UNL     1      20.271  37.491  17.540  1.00  0.00     0.150 C
HETATM   15  S3  UNL     1      20.085  39.050  17.247  1.00  0.00    -0.052 SA
HETATM   16  N3  UNL     1      19.362  36.545  18.051  1.00  0.00    -0.268 N
HETATM   17  C20 UNL     1      17.954  36.645  17.987  1.00  0.00     0.369 C
HETATM   18  O6  UNL     1      17.210  35.740  18.479  1.00  0.00    -0.238 OA
ENDROOT
BRANCH   1  19
HETATM   19  C3  UNL     1      20.764  35.904  19.890  1.00  0.00     0.057 C
BRANCH  19  20
HETATM   20  C2  UNL     1      21.809  35.074  20.445  1.00  0.00    -0.035 C
HETATM   21  C1  UNL     1      22.990  35.348  20.904  1.00  0.00     0.007 C
ENDBRANCH  19  20
ENDBRANCH   1  19
BRANCH  12  22
HETATM   22  C18 UNL     1      20.975  30.133  15.085  1.00  0.00     0.201 C
HETATM   23  O4  UNL     1      21.983  29.431  14.762  1.00  0.00    -0.646 OA
HETATM   24  O5  UNL     1      20.019  29.554  15.876  1.00  0.00    -0.646 OA
ENDBRANCH  12  22
BRANCH  17  25
HETATM   25  O7  UNL     1      17.320  37.719  17.392  1.00  0.00    -0.304 OA
BRANCH  25  26
HETATM   26  C21 UNL     1      16.126  38.321  17.800  1.00  0.00     0.180 C
BRANCH  26  27
HETATM   27  C22 UNL     1      16.283  39.155  19.073  1.00  0.00     0.027 C
BRANCH  27  28
HETATM   28  C23 UNL     1      16.698  40.520  18.620  1.00  0.00     0.002 C
BRANCH  28  29
HETATM   29  C24 UNL     1      16.142  40.925  17.324  1.00  0.00    -0.000 C
BRANCH  29  30
HETATM   30  C25 UNL     1      16.996  41.534  16.289  1.00  0.00    -0.005 C
HETATM   31  C26 UNL     1      18.156  42.364  16.740  1.00  0.00     0.005 C
ENDBRANCH  29  30
ENDBRANCH  28  29
ENDBRANCH  27  28
ENDBRANCH  26  27
ENDBRANCH  25  26
ENDBRANCH  17  25
BRANCH  11  32
HETATM   32  O2  UNL     1      19.815  30.840  12.148  1.00  0.00    -0.273 OA
BRANCH  32  33
HETATM   33  C12 UNL     1      19.729  29.498  11.835  1.00  0.00     0.365 C
HETATM   34  O3  UNL     1      18.646  29.003  11.461  1.00  0.00    -0.238 OA
HETATM   35  N2  UNL     1      20.878  28.688  11.940  1.00  0.00    -0.337 N
ATOM     36  H2  UNL     1      21.765  29.090  12.245  1.00  0.00     0.164 HD
BRANCH  35  37
HETATM   37  C13 UNL     1      20.788  27.282  11.611  1.00  0.00     0.125 C
BRANCH  37  38
HETATM   38  C14 UNL     1      22.124  26.592  11.857  1.00  0.00     0.019 C
BRANCH  38  39
HETATM   39  C15 UNL     1      23.197  27.673  11.850  1.00  0.00    -0.003 C
HETATM   40  C16 UNL     1      24.567  27.069  12.070  1.00  0.00     0.005 C
ENDBRANCH  38  39
ENDBRANCH  37  38
ENDBRANCH  35  37
ENDBRANCH  32  33
ENDBRANCH  11  32
TORSDOF 14
ENDMDL