MODEL 1
REMARK VINA RESULT: -8.917287842      0.000      0.000
REMARK  13 active torsions:
REMARK  status: ('A' for Active; 'I' for Inactive)
REMARK    1  A    between atoms: C2_2  and  C3_3
REMARK    2  A    between atoms: C8_9  and  C9_10
REMARK    3  A    between atoms: C8_9  and  C11_14
REMARK    4  A    between atoms: C9_10  and  C10_11
REMARK    5  A    between atoms: C12_15  and  C13_16
REMARK    6  A    between atoms: C12_15  and  O6_21
REMARK    7  A    between atoms: C13_16  and  C14_17
REMARK    8  A    between atoms: C14_17  and  C15_18
REMARK    9  A    between atoms: O6_21  and  C16_22
REMARK   10  A    between atoms: C21_29  and  O9_30
REMARK   11  A    between atoms: O9_30  and  C22_31
REMARK   12  A    between atoms: C22_31  and  C23_33
REMARK   13  A    between atoms: C23_33  and  C24_34
ROOT
HETATM    1  C11 UNL     1      20.356  33.203  17.252  1.00  0.00     0.023 C
HETATM    2  C12 UNL     1      19.385  34.211  17.450  1.00  0.00     0.045 C
ENDROOT
BRANCH   2   3
HETATM    3  C13 UNL     1      17.936  34.000  17.640  1.00  0.00     0.074 C
BRANCH   3   4
HETATM    4  C14 UNL     1      17.029  35.163  17.329  1.00  0.00     0.119 C
BRANCH   4   5
HETATM    5  C15 UNL     1      16.012  35.214  18.425  1.00  0.00     0.172 C
HETATM    6  O4  UNL     1      15.403  34.195  18.840  1.00  0.00    -0.648 OA
HETATM    7  O5  UNL     1      15.718  36.434  19.016  1.00  0.00    -0.648 OA
ENDBRANCH   4   5
ENDBRANCH   3   4
ENDBRANCH   2   3
BRANCH   2   8
HETATM    8  O6  UNL     1      19.860  35.160  18.407  1.00  0.00    -0.343 OA
BRANCH   8   9
HETATM    9  C16 UNL     1      21.184  35.370  18.485  1.00  0.00     0.202 C
HETATM   10  C17 UNL     1      21.556  35.887  19.812  1.00  0.00     0.156 C
HETATM   11  O7  UNL     1      20.659  35.949  20.627  1.00  0.00    -0.295 OA
HETATM   12  C18 UNL     1      22.856  36.368  20.370  1.00  0.00     0.083 C
HETATM   13  C19 UNL     1      22.875  37.870  20.204  1.00  0.00     0.040 C
HETATM   14  C20 UNL     1      21.861  38.207  19.134  1.00  0.00     0.134 C
HETATM   15  O8  UNL     1      22.103  39.463  18.513  1.00  0.00    -0.354 OA
HETATM   16  C26 UNL     1      22.303  37.583  17.861  1.00  0.00     0.077 C
HETATM   17  C21 UNL     1      21.660  38.863  17.302  1.00  0.00     0.276 C
HETATM   18  C27 UNL     1      21.685  36.338  17.408  1.00  0.00     0.030 C
HETATM   19  C28 UNL     1      22.688  35.646  16.476  1.00  0.00     0.014 C
BRANCH  17  20
HETATM   20  O9  UNL     1      22.291  39.400  16.165  1.00  0.00    -0.289 OA
BRANCH  20  21
HETATM   21  C22 UNL     1      21.454  39.943  15.168  1.00  0.00     0.261 C
HETATM   22  O10 UNL     1      20.199  39.916  15.363  1.00  0.00    -0.265 OA
BRANCH  21  23
HETATM   23  C23 UNL     1      22.080  40.516  13.955  1.00  0.00     0.111 C
BRANCH  23  24
HETATM   24  C24 UNL     1      21.787  39.534  12.820  1.00  0.00     0.005 C
HETATM   25  C25 UNL     1      22.878  39.642  11.770  1.00  0.00     0.005 C
ENDBRANCH  23  24
ENDBRANCH  21  23
ENDBRANCH  20  21
ENDBRANCH  17  20
ENDBRANCH   8   9
ENDBRANCH   2   8
BRANCH   1  26
HETATM   26  C8  UNL     1      20.599  32.178  16.206  1.00  0.00     0.051 C
HETATM   27  C7  UNL     1      20.480  33.072  14.884  1.00  0.00     0.034 C
HETATM   28  C6  UNL     1      19.246  32.926  14.147  1.00  0.00     0.059 C
HETATM   29  C5  UNL     1      19.451  31.838  13.113  1.00  0.00     0.144 C
HETATM   30  C32 UNL     1      18.026  32.417  14.815  1.00  0.00     0.030 C
HETATM   31  C3  UNL     1      18.958  30.582  13.732  1.00  0.00     0.048 C
HETATM   32  O1  UNL     1      19.914  31.927  12.007  1.00  0.00    -0.296 OA
HETATM   33  C4  UNL     1      19.961  29.483  13.743  1.00  0.00     0.029 C
HETATM   34  C30 UNL     1      18.494  31.012  15.114  1.00  0.00     0.036 C
HETATM   35  C29 UNL     1      19.605  31.121  16.101  1.00  0.00     0.149 C
HETATM   36  C31 UNL     1      17.382  30.109  15.534  1.00  0.00     0.025 C
HETATM   37  O11 UNL     1      19.576  30.136  16.871  1.00  0.00    -0.296 OA
BRANCH  31  38
HETATM   38  C2  UNL     1      17.754  30.076  12.994  1.00  0.00    -0.019 C
HETATM   39  C1  UNL     1      17.834  29.175  12.044  1.00  0.00     0.008 C
ENDBRANCH  31  38
BRANCH  26  40
HETATM   40  C9  UNL     1      22.031  31.777  16.093  1.00  0.00     0.134 C
BRANCH  40  41
HETATM   41  C10 UNL     1      22.818  31.828  14.917  1.00  0.00     0.173 C
HETATM   42  O2  UNL     1      22.703  31.132  13.883  1.00  0.00    -0.648 OA
HETATM   43  O3  UNL     1      23.908  32.759  14.798  1.00  0.00    -0.648 OA
ENDBRANCH  40  41
ENDBRANCH  26  40
ENDBRANCH   1  26
TORSDOF 13
ENDMDL