MODEL 4
REMARK VINA RESULT: -6.577324596      2.106      3.836
REMARK  14 active torsions:
REMARK  status: ('A' for Active; 'I' for Inactive)
REMARK    1  A    between atoms: C2_2  and  C3_3
REMARK    2  A    between atoms: C2_2  and  C27_37
REMARK    3  A    between atoms: C3_3  and  C4_4
REMARK    4  A    between atoms: C5_5  and  O1_6
REMARK    5  A    between atoms: C9_11  and  O2_12
REMARK    6  A    between atoms: O2_12  and  C10_13
REMARK    7  A    between atoms: C12_17  and  C13_18
REMARK    8  A    between atoms: C13_18  and  O5_19
REMARK    9  A    between atoms: O5_19  and  C14_20
REMARK   10  A    between atoms: C21_28  and  C23_30
REMARK   11  A    between atoms: C27_37  and  C28_39
REMARK   12  A    between atoms: C28_39  and  C30_41
REMARK   13  A    between atoms: C30_41  and  C31_42
REMARK   14  A    between atoms: C31_42  and  C32_43
ROOT
HETATM    1  C4  UNL     1      19.386  33.365  14.795  1.00  0.00    -0.038 C
HETATM    2  C5  UNL     1      20.701  33.102  15.389  1.00  0.00     0.157 C
HETATM    3  C6  UNL     1      20.999  33.069  16.814  1.00  0.00    -0.005 C
HETATM    4  C7  UNL     1      21.382  31.642  17.300  1.00  0.00     0.019 C
HETATM    5  C8  UNL     1      21.981  33.955  17.465  1.00  0.00     0.047 C
HETATM    6  C9  UNL     1      21.636  34.434  18.847  1.00  0.00     0.155 C
HETATM    7  C11 UNL     1      20.456  35.133  19.233  1.00  0.00     0.201 C
HETATM    8  O4  UNL     1      19.216  35.131  18.696  1.00  0.00    -0.372 OA
HETATM    9  C12 UNL     1      19.255  34.714  17.305  1.00  0.00     0.120 C
HETATM   10  C16 UNL     1      19.693  33.384  17.467  1.00  0.00     0.037 C
HETATM   11  C17 UNL     1      18.766  32.209  17.269  1.00  0.00     0.014 C
HETATM   12  C18 UNL     1      17.722  32.302  16.189  1.00  0.00     0.002 C
HETATM   13  C19 UNL     1      16.409  32.680  16.915  1.00  0.00     0.017 C
HETATM   14  C20 UNL     1      17.003  33.801  17.712  1.00  0.00     0.070 C
HETATM   15  C21 UNL     1      16.200  35.084  17.701  1.00  0.00     0.152 C
HETATM   16  C22 UNL     1      16.310  35.924  18.974  1.00  0.00     0.059 C
HETATM   17  O9  UNL     1      16.991  35.474  16.653  1.00  0.00    -0.353 OA
HETATM   18  C24 UNL     1      17.900  34.435  16.709  1.00  0.00     0.115 C
HETATM   19  C25 UNL     1      18.121  33.576  15.513  1.00  0.00     0.021 C
HETATM   20  C26 UNL     1      17.120  34.096  14.491  1.00  0.00     0.024 C
ENDROOT
BRANCH   1  21
HETATM   21  C3  UNL     1      19.153  32.814  13.428  1.00  0.00     0.020 C
BRANCH  21  22
HETATM   22  C2  UNL     1      19.619  31.547  12.883  1.00  0.00     0.001 C
HETATM   23  C1  UNL     1      20.814  31.451  12.329  1.00  0.00     0.027 C
BRANCH  22  24
HETATM   24  C27 UNL     1      18.890  30.311  12.996  1.00  0.00     0.162 C
HETATM   25  O10 UNL     1      18.411  29.756  11.943  1.00  0.00    -0.292 OA
BRANCH  24  26
HETATM   26  C28 UNL     1      18.581  29.527  14.231  1.00  0.00     0.056 C
HETATM   27  C29 UNL     1      17.914  28.230  13.932  1.00  0.00     0.018 C
BRANCH  26  28
HETATM   28  C30 UNL     1      19.791  29.436  15.082  1.00  0.00     0.012 C
BRANCH  28  29
HETATM   29  C31 UNL     1      20.787  28.381  14.861  1.00  0.00     0.000 C
BRANCH  29  30
HETATM   30  C32 UNL     1      22.011  28.621  14.089  1.00  0.00    -0.005 C
HETATM   31  C33 UNL     1      22.225  27.949  12.776  1.00  0.00     0.005 C
ENDBRANCH  29  30
ENDBRANCH  28  29
ENDBRANCH  26  28
ENDBRANCH  24  26
ENDBRANCH  22  24
ENDBRANCH  21  22
ENDBRANCH   1  21
BRANCH   2  32
HETATM   32  O1  UNL     1      21.728  33.883  14.788  1.00  0.00    -0.390 OA
ATOM     33  H1  UNL     1      22.323  34.248  15.433  1.00  0.00     0.210 HD
ENDBRANCH   2  32
BRANCH   9  34
HETATM   34  C13 UNL     1      19.506  35.985  16.700  1.00  0.00     0.220 C
BRANCH  34  35
HETATM   35  O5  UNL     1      19.417  37.159  17.502  1.00  0.00    -0.319 OA
BRANCH  35  36
HETATM   36  C14 UNL     1      20.309  38.206  17.432  1.00  0.00     0.254 C
HETATM   37  C15 UNL     1      21.714  37.963  17.113  1.00  0.00     0.126 C
HETATM   38  O6  UNL     1      19.791  39.344  17.668  1.00  0.00    -0.266 OA
ENDBRANCH  35  36
ENDBRANCH  34  35
ENDBRANCH   9  34
BRANCH   6  39
HETATM   39  O2  UNL     1      22.780  35.150  19.293  1.00  0.00    -0.321 OA
BRANCH  39  40
HETATM   40  C10 UNL     1      22.819  36.055  20.313  1.00  0.00     0.398 C
HETATM   41  O3  UNL     1      23.616  35.789  21.244  1.00  0.00    -0.276 OA
ENDBRANCH  39  40
ENDBRANCH   6  39
BRANCH  15  42
HETATM   42  C23 UNL     1      14.781  34.781  17.497  1.00  0.00     0.209 C
HETATM   43  O7  UNL     1      14.242  33.691  17.277  1.00  0.00    -0.646 OA
HETATM   44  O8  UNL     1      13.911  35.902  17.565  1.00  0.00    -0.646 OA
ENDBRANCH  15  42
TORSDOF 14
ENDMDL