MODEL 2
REMARK VINA RESULT: -7.410915925      3.457     10.246
REMARK  20 active torsions:
REMARK  status: ('A' for Active; 'I' for Inactive)
REMARK    1  A    between atoms: O1_2  and  C2_3
REMARK    2  A    between atoms: C2_3  and  C3_5
REMARK    3  A    between atoms: C3_5  and  C4_6
REMARK    4  A    between atoms: C4_6  and  C5_7
REMARK    5  A    between atoms: C5_7  and  C6_8
REMARK    6  A    between atoms: C6_8  and  C7_9
REMARK    7  A    between atoms: C7_9  and  N1_10
REMARK    8  A    between atoms: C7_9  and  C25_37
REMARK       I    between atoms: N1_10  and  C8_12
REMARK    9  A    between atoms: C8_12  and  C9_14
REMARK       I    between atoms: N2_18  and  C13_19
REMARK   10  A    between atoms: C13_19  and  C14_21
REMARK   11  A    between atoms: C14_21  and  C15_22
REMARK   12  A    between atoms: C14_21  and  N4_28
REMARK   13  A    between atoms: C15_22  and  C16_23
REMARK   14  A    between atoms: C16_23  and  C17_24
REMARK   15  A    between atoms: C17_24  and  N3_25
REMARK   16  A    between atoms: N4_28  and  C20_30
REMARK   17  A    between atoms: C20_30  and  S2_32
REMARK   18  A    between atoms: S2_32  and  C21_33
REMARK   19  A    between atoms: C25_37  and  O6_39
REMARK   20  A    between atoms: O6_39  and  C26_40
ROOT
HETATM    1  C9  UNL     1      20.092  29.091  14.487  1.00  0.00     0.179 C
HETATM    2  C10 UNL     1      21.515  28.769  14.044  1.00  0.00     0.037 C
HETATM    3  C11 UNL     1      21.575  29.596  12.775  1.00  0.00     0.022 C
HETATM    4  C12 UNL     1      20.714  30.824  13.099  1.00  0.00     0.127 C
HETATM    5  N2  UNL     1      20.079  30.538  14.348  1.00  0.00    -0.337 N
HETATM    6  C13 UNL     1      19.483  31.370  15.334  1.00  0.00     0.243 C
HETATM    7  O4  UNL     1      18.946  30.737  16.318  1.00  0.00    -0.271 OA
ENDROOT
BRANCH   1   8
HETATM    8  C8  UNL     1      19.175  28.363  13.632  1.00  0.00     0.245 C
HETATM    9  N1  UNL     1      19.547  27.385  12.665  1.00  0.00    -0.320 N
ATOM     10  H1  UNL     1      20.535  27.158  12.552  1.00  0.00     0.169 HD
HETATM   11  O3  UNL     1      17.947  28.592  13.738  1.00  0.00    -0.271 OA
BRANCH   9  12
HETATM   12  C7  UNL     1      18.574  26.701  11.836  1.00  0.00     0.111 C
BRANCH  12  13
HETATM   13  C6  UNL     1      18.631  25.235  11.839  1.00  0.00     0.036 C
BRANCH  13  14
HETATM   14  C5  UNL     1      19.810  24.439  11.781  1.00  0.00    -0.001 C
BRANCH  14  15
HETATM   15  C4  UNL     1      21.023  24.491  11.363  1.00  0.00    -0.017 C
BRANCH  15  16
HETATM   16  C3  UNL     1      21.954  25.562  11.051  1.00  0.00     0.138 C
BRANCH  16  17
HETATM   17  C2  UNL     1      23.309  24.979  10.746  1.00  0.00     0.261 C
HETATM   18  O2  UNL     1      23.494  24.368   9.682  1.00  0.00    -0.265 OA
BRANCH  17  19
HETATM   19  O1  UNL     1      24.335  25.128  11.650  1.00  0.00    -0.326 OA
HETATM   20  C1  UNL     1      25.002  26.383  11.690  1.00  0.00     0.213 C
ENDBRANCH  17  19
ENDBRANCH  16  17
ENDBRANCH  15  16
ENDBRANCH  14  15
ENDBRANCH  13  14
ENDBRANCH  12  13
BRANCH  12  21
HETATM   21  C25 UNL     1      18.322  27.339  10.540  1.00  0.00     0.310 C
HETATM   22  O5  UNL     1      17.403  28.183  10.394  1.00  0.00    -0.258 OA
BRANCH  21  23
HETATM   23  O6  UNL     1      19.085  27.040   9.432  1.00  0.00    -0.306 OA
BRANCH  23  24
HETATM   24  C26 UNL     1      18.549  26.257   8.382  1.00  0.00     0.060 C
HETATM   25  C27 UNL     1      18.325  27.079   7.131  1.00  0.00     0.046 C
HETATM   26  C28 UNL     1      19.578  25.199   8.041  1.00  0.00     0.046 C
HETATM   27  C29 UNL     1      17.259  25.599   8.745  1.00  0.00     0.046 C
ENDBRANCH  23  24
ENDBRANCH  21  23
ENDBRANCH  12  21
ENDBRANCH   9  12
ENDBRANCH   1   8
BRANCH   6  28
HETATM   28  C14 UNL     1      19.389  32.814  15.388  1.00  0.00     0.175 C
BRANCH  28  29
HETATM   29  C15 UNL     1      18.432  33.487  14.449  1.00  0.00     0.036 C
BRANCH  29  30
HETATM   30  C16 UNL     1      17.021  33.642  14.954  1.00  0.00     0.033 C
BRANCH  30  31
HETATM   31  C17 UNL     1      17.028  34.085  16.391  1.00  0.00     0.271 C
BRANCH  31  32
HETATM   32  N3  UNL     1      16.154  33.222  17.137  1.00  0.00     0.080 N
HETATM   33  C18 UNL     1      15.133  33.905  17.879  1.00  0.00     0.309 C
HETATM   34  C19 UNL     1      15.626  32.173  16.298  1.00  0.00     0.309 C
ENDBRANCH  31  32
ENDBRANCH  30  31
ENDBRANCH  29  30
ENDBRANCH  28  29
BRANCH  28  35
HETATM   35  N4  UNL     1      20.666  33.469  15.180  1.00  0.00    -0.362 N
ATOM     36  H4  UNL     1      20.660  34.238  14.511  1.00  0.00     0.161 HD
BRANCH  35  37
HETATM   37  C20 UNL     1      21.911  33.195  15.770  1.00  0.00     0.135 C
HETATM   38  S1  UNL     1      23.267  32.699  15.010  1.00  0.00    -0.053 SA
BRANCH  37  39
HETATM   39  S2  UNL     1      22.104  33.418  17.556  1.00  0.00    -0.092 SA
BRANCH  39  40
HETATM   40  C21 UNL     1      21.603  35.032  18.114  1.00  0.00     0.004 C
HETATM   41  C22 UNL     1      22.193  36.161  17.304  1.00  0.00     0.026 C
HETATM   42  C23 UNL     1      22.196  35.207  19.526  1.00  0.00     0.026 C
HETATM   43  C24 UNL     1      20.135  35.244  18.274  1.00  0.00     0.026 C
ENDBRANCH  39  40
ENDBRANCH  37  39
ENDBRANCH  35  37
ENDBRANCH  28  35
ENDBRANCH   6  28
TORSDOF 20
ENDMDL