MODEL 1
REMARK VINA RESULT: -8.570506127      0.000      0.000
REMARK  14 active torsions:
REMARK  status: ('A' for Active; 'I' for Inactive)
REMARK    1  A    between atoms: C3_3  and  C4_4
REMARK    2  A    between atoms: C8_8  and  C9_9
REMARK    3  A    between atoms: C9_9  and  N1_10
REMARK       I    between atoms: N1_10  and  C10_12
REMARK    4  A    between atoms: C10_12  and  C11_14
REMARK    5  A    between atoms: C14_17  and  C15_18
REMARK    6  A    between atoms: C17_20  and  O2_21
REMARK    7  A    between atoms: C19_23  and  O3_24
REMARK    8  A    between atoms: C21_26  and  O4_27
REMARK    9  A    between atoms: N2_30  and  C24_31
REMARK   10  A    between atoms: C24_31  and  O5_32
REMARK   11  A    between atoms: C24_31  and  C25_34
REMARK   12  A    between atoms: C27_36  and  O6_37
REMARK   13  A    between atoms: C29_39  and  O7_40
REMARK   14  A    between atoms: C31_42  and  O8_43
ROOT
HETATM    1  C11 UNL     1      21.034  33.228  14.867  1.00  0.00     0.179 C
HETATM    2  C12 UNL     1      22.518  33.651  14.716  1.00  0.00     0.037 C
HETATM    3  C13 UNL     1      23.111  33.149  16.020  1.00  0.00     0.033 C
HETATM    4  C14 UNL     1      22.022  33.414  16.968  1.00  0.00     0.120 C
HETATM    5  N2  UNL     1      20.742  33.332  16.245  1.00  0.00    -0.339 N
ENDROOT
BRANCH   1   6
HETATM    6  C10 UNL     1      20.954  31.791  14.347  1.00  0.00     0.244 C
HETATM    7  N1  UNL     1      20.596  30.738  15.177  1.00  0.00    -0.337 N
ATOM      8  H1  UNL     1      20.391  31.038  16.129  1.00  0.00     0.168 HD
HETATM    9  O1  UNL     1      21.239  31.698  13.144  1.00  0.00    -0.271 OA
BRANCH   7  10
HETATM   10  C9  UNL     1      20.452  29.344  15.000  1.00  0.00     0.096 C
BRANCH  10  11
HETATM   11  C8  UNL     1      19.204  28.732  14.536  1.00  0.00     0.225 C
HETATM   12  C7  UNL     1      17.954  29.482  14.393  1.00  0.00     0.038 C
HETATM   13  C6  UNL     1      17.559  29.835  12.971  1.00  0.00     0.005 C
HETATM   14  C5  UNL     1      17.621  28.618  12.069  1.00  0.00     0.037 C
HETATM   15  C4  UNL     1      18.255  27.447  12.826  1.00  0.00     0.209 C
HETATM   16  N3  UNL     1      19.522  27.953  13.316  1.00  0.00    -0.059 N
ATOM     17  H32 UNL     1      20.221  27.225  13.468  1.00  0.00     0.278 HD
ATOM     18  H31 UNL     1      20.047  28.482  12.620  1.00  0.00     0.278 HD
BRANCH  15  19
HETATM   19  C3  UNL     1      18.472  26.341  11.869  1.00  0.00     0.001 C
HETATM   20  C2  UNL     1      17.892  26.373  10.658  1.00  0.00    -0.033 C
HETATM   21  C1  UNL     1      18.110  25.261   9.694  1.00  0.00     0.036 C
ENDBRANCH  15  19
ENDBRANCH  10  11
ENDBRANCH   7  10
ENDBRANCH   1   6
BRANCH   5  22
HETATM   22  C24 UNL     1      19.486  33.367  16.915  1.00  0.00     0.150 C
BRANCH  22  23
HETATM   23  O5  UNL     1      18.956  32.168  17.106  1.00  0.00    -0.346 OA
ATOM     24  H5  UNL     1      18.079  32.196  17.472  1.00  0.00     0.219 HD
ENDBRANCH  22  23
BRANCH  22  25
HETATM   25  C25 UNL     1      18.687  34.433  17.416  1.00  0.00     0.020 A
HETATM   26  C26 UNL     1      17.415  34.131  17.877  1.00  0.00     0.055 A
HETATM   27  C27 UNL     1      16.606  35.105  18.380  1.00  0.00     0.105 A
HETATM   28  C29 UNL     1      17.010  36.427  18.455  1.00  0.00     0.135 A
HETATM   29  C31 UNL     1      18.258  36.775  18.012  1.00  0.00     0.105 A
HETATM   30  C33 UNL     1      19.063  35.755  17.502  1.00  0.00     0.055 A
BRANCH  27  31
HETATM   31  O6  UNL     1      15.328  34.785  18.840  1.00  0.00    -0.353 OA
HETATM   32  C28 UNL     1      14.277  34.743  17.925  1.00  0.00     0.210 C
ENDBRANCH  27  31
BRANCH  28  33
HETATM   33  O7  UNL     1      16.149  37.387  18.976  1.00  0.00    -0.351 OA
HETATM   34  C30 UNL     1      15.601  38.343  18.058  1.00  0.00     0.210 C
ENDBRANCH  28  33
BRANCH  29  35
HETATM   35  O8  UNL     1      18.675  38.090  18.080  1.00  0.00    -0.353 OA
HETATM   36  C32 UNL     1      19.145  38.703  19.252  1.00  0.00     0.210 C
ENDBRANCH  29  35
ENDBRANCH  22  25
ENDBRANCH   5  22
BRANCH   4  37
HETATM   37  C15 UNL     1      22.134  34.653  17.743  1.00  0.00    -0.030 A
HETATM   38  C16 UNL     1      22.094  35.895  17.150  1.00  0.00     0.049 A
HETATM   39  C17 UNL     1      22.205  37.043  17.899  1.00  0.00     0.104 A
HETATM   40  C19 UNL     1      22.359  36.967  19.264  1.00  0.00     0.135 A
HETATM   41  C21 UNL     1      22.404  35.723  19.899  1.00  0.00     0.104 A
HETATM   42  C23 UNL     1      22.289  34.613  19.110  1.00  0.00     0.049 A
BRANCH  39  43
HETATM   43  O2  UNL     1      22.164  38.287  17.303  1.00  0.00    -0.353 OA
HETATM   44  C18 UNL     1      21.403  38.439  16.122  1.00  0.00     0.210 C
ENDBRANCH  39  43
BRANCH  40  45
HETATM   45  O3  UNL     1      22.470  38.148  19.999  1.00  0.00    -0.351 OA
HETATM   46  C20 UNL     1      23.705  38.805  20.191  1.00  0.00     0.210 C
ENDBRANCH  40  45
BRANCH  41  47
HETATM   47  O4  UNL     1      22.562  35.679  21.287  1.00  0.00    -0.353 OA
HETATM   48  C22 UNL     1      23.860  35.415  21.783  1.00  0.00     0.210 C
ENDBRANCH  41  47
ENDBRANCH   4  37
TORSDOF 14
ENDMDL