MODEL 3
REMARK VINA RESULT: -9.923082592      0.761      1.024
REMARK  13 active torsions:
REMARK  status: ('A' for Active; 'I' for Inactive)
REMARK    1  A    between atoms: C4_6  and  C5_7
REMARK    2  A    between atoms: C5_7  and  C6_8
REMARK    3  A    between atoms: C6_8  and  N3_9
REMARK    4  A    between atoms: N3_9  and  C7_11
REMARK    5  A    between atoms: C10_14  and  C11_15
REMARK    6  A    between atoms: C18_22  and  C19_23
REMARK    7  A    between atoms: C19_23  and  C20_24
REMARK    8  A    between atoms: C20_24  and  N4_25
REMARK    9  A    between atoms: N4_25  and  C21_27
REMARK   10  A    between atoms: C22_30  and  O1_31
REMARK   11  A    between atoms: O1_31  and  C23_32
REMARK   12  A    between atoms: C23_32  and  C24_33
REMARK   13  A    between atoms: C27_38  and  N7_39
ROOT
HETATM    1  C19 UNL     1      18.338  30.523  12.814  1.00  0.00     0.086 C
ENDROOT
BRANCH   1   2
HETATM    2  C18 UNL     1      18.316  31.025  14.226  1.00  0.00    -0.026 A
HETATM    3  C7  UNL     1      19.175  30.444  15.141  1.00  0.00     0.034 A
HETATM    4  C8  UNL     1      19.103  30.878  16.444  1.00  0.00     0.030 A
HETATM    5  C9  UNL     1      18.198  31.859  16.793  1.00  0.00     0.014 A
HETATM    6  C10 UNL     1      17.327  32.460  15.911  1.00  0.00    -0.029 A
HETATM    7  C17 UNL     1      17.406  32.018  14.602  1.00  0.00     0.021 A
BRANCH   3   8
HETATM    8  N3  UNL     1      20.092  29.447  14.778  1.00  0.00    -0.389 N
ATOM      9  H3  UNL     1      19.734  28.493  14.767  1.00  0.00     0.159 HD
BRANCH   8  10
HETATM   10  C6  UNL     1      21.466  29.605  14.420  1.00  0.00     0.125 C
BRANCH  10  11
HETATM   11  C5  UNL     1      21.881  30.921  13.901  1.00  0.00     0.064 C
BRANCH  11  12
HETATM   12  C4  UNL     1      22.979  31.670  14.567  1.00  0.00     0.060 C
HETATM   13  N2  UNL     1      22.661  32.479  15.616  1.00  0.00    -0.390 N
HETATM   14  C3  UNL     1      22.302  32.064  16.894  1.00  0.00     0.152 C
HETATM   15  C33 UNL     1      22.712  33.895  15.492  1.00  0.00     0.152 C
HETATM   16  C2  UNL     1      21.831  33.243  17.769  1.00  0.00     0.291 C
HETATM   17  N1  UNL     1      20.902  34.079  17.078  1.00  0.00     0.087 N
HETATM   18  C1  UNL     1      20.778  35.317  17.843  1.00  0.00     0.310 C
HETATM   19  C34 UNL     1      21.322  34.444  15.750  1.00  0.00     0.291 C
ENDBRANCH  11  12
ENDBRANCH  10  11
ENDBRANCH   8  10
ENDBRANCH   3   8
BRANCH   6  20
HETATM   20  C11 UNL     1      16.353  33.480  16.315  1.00  0.00    -0.052 C
HETATM   21  C12 UNL     1      15.499  33.321  17.314  1.00  0.00    -0.019 C
HETATM   22  C13 UNL     1      14.519  34.351  17.716  1.00  0.00     0.028 C
HETATM   23  C14 UNL     1      14.982  35.756  17.498  1.00  0.00     0.004 C
HETATM   24  C15 UNL     1      16.287  35.848  16.766  1.00  0.00     0.005 C
HETATM   25  C16 UNL     1      16.249  34.808  15.632  1.00  0.00     0.039 C
ENDBRANCH   6  20
ENDBRANCH   1   2
BRANCH   1  26
HETATM   26  C20 UNL     1      17.179  29.558  12.722  1.00  0.00     0.083 C
BRANCH  26  27
HETATM   27  N4  UNL     1      17.468  28.241  12.326  1.00  0.00    -0.204 N
ATOM     28  H4  UNL     1      16.984  27.533  12.877  1.00  0.00     0.183 HD
BRANCH  27  29
HETATM   29  C21 UNL     1      18.204  27.764  11.428  1.00  0.00     0.699 A
HETATM   30  N5  UNL     1      17.797  27.730  10.147  1.00  0.00    -0.154 N
HETATM   31  C22 UNL     1      18.525  27.217   9.142  1.00  0.00     0.252 A
ATOM     32  H5  UNL     1      16.880  28.118   9.925  1.00  0.00     0.188 HD
HETATM   33  N6  UNL     1      19.740  26.711   9.498  1.00  0.00    -0.154 N
HETATM   34  C27 UNL     1      20.203  26.711  10.739  1.00  0.00     0.698 A
ATOM     35  H6  UNL     1      20.326  26.310   8.766  1.00  0.00     0.188 HD
HETATM   36  N9  UNL     1      19.434  27.237  11.705  1.00  0.00    -0.022 N
ATOM     37  H9  UNL     1      19.776  27.244  12.665  1.00  0.00     0.203 HD
BRANCH  31  38
HETATM   38  O1  UNL     1      18.109  27.185   7.821  1.00  0.00    -0.321 OA
BRANCH  38  39
HETATM   39  C23 UNL     1      18.641  26.200   6.959  1.00  0.00     0.183 C
BRANCH  39  40
HETATM   40  C24 UNL     1      18.787  26.702   5.547  1.00  0.00     0.010 A
HETATM   41  C25 UNL     1      17.615  26.791   4.637  1.00  0.00     0.007 A
HETATM   42  C26 UNL     1      18.230  28.040   5.200  1.00  0.00     0.007 A
ENDBRANCH  39  40
ENDBRANCH  38  39
ENDBRANCH  31  38
BRANCH  34  43
HETATM   43  N7  UNL     1      21.490  26.173  11.111  1.00  0.00    -0.214 N
HETATM   44  C28 UNL     1      22.357  27.028  11.882  1.00  0.00     0.171 C
HETATM   45  C29 UNL     1      23.789  26.623  11.897  1.00  0.00     0.292 C
HETATM   46  N8  UNL     1      24.188  25.795  10.808  1.00  0.00     0.087 N
HETATM   47  C30 UNL     1      24.470  26.487   9.583  1.00  0.00     0.310 C
HETATM   48  C31 UNL     1      23.364  24.631  10.628  1.00  0.00     0.292 C
HETATM   49  C32 UNL     1      21.902  24.857  10.752  1.00  0.00     0.171 C
ENDBRANCH  34  43
ENDBRANCH  27  29
ENDBRANCH  26  27
ENDBRANCH   1  26
TORSDOF 13
ENDMDL