MODEL 3
REMARK VINA RESULT: -6.788071879      2.732      9.005
REMARK  14 active torsions:
REMARK  status: ('A' for Active; 'I' for Inactive)
REMARK    1  A    between atoms: C4_4  and  O1_5
REMARK    2  A    between atoms: O1_5  and  S1_6
REMARK    3  A    between atoms: C11_16  and  C12_17
REMARK    4  A    between atoms: C12_17  and  O5_18
REMARK    5  A    between atoms: O5_18  and  C13_19
REMARK    6  A    between atoms: C13_19  and  C14_20
REMARK    7  A    between atoms: C14_20  and  O6_21
REMARK    8  A    between atoms: O6_21  and  C15_22
REMARK    9  A    between atoms: C15_22  and  C16_23
REMARK   10  A    between atoms: C16_23  and  O7_24
REMARK   11  A    between atoms: O7_24  and  C17_25
REMARK   12  A    between atoms: C17_25  and  C18_26
REMARK   13  A    between atoms: C18_26  and  N1_27
REMARK   14  A    between atoms: C29_38  and  O8_39
ROOT
HETATM    1  C1  UNL     1      18.244  34.548  18.864  1.00  0.00     0.018 C
HETATM    2  C2  UNL     1      17.471  34.699  17.545  1.00  0.00    -0.012 C
HETATM    3  C3  UNL     1      18.383  35.290  16.537  1.00  0.00     0.046 C
HETATM    4  C4  UNL     1      19.190  34.262  15.775  1.00  0.00     0.153 C
HETATM    5  C5  UNL     1      18.316  33.214  15.201  1.00  0.00    -0.008 C
HETATM    6  C6  UNL     1      17.386  33.918  14.194  1.00  0.00     0.018 C
HETATM    7  C7  UNL     1      19.023  32.176  14.399  1.00  0.00     0.002 C
HETATM    8  C8  UNL     1      19.973  32.666  13.370  1.00  0.00     0.013 C
HETATM    9  C9  UNL     1      19.933  31.674  12.193  1.00  0.00     0.079 C
HETATM   10  C10 UNL     1      19.754  30.332  12.863  1.00  0.00     0.133 C
HETATM   11  O4  UNL     1      19.125  29.434  12.328  1.00  0.00    -0.297 OA
HETATM   12  C11 UNL     1      20.388  30.166  14.212  1.00  0.00     0.083 C
HETATM   13  C22 UNL     1      19.704  31.096  15.194  1.00  0.00     0.004 C
HETATM   14  C23 UNL     1      18.613  30.373  15.973  1.00  0.00     0.006 C
HETATM   15  C24 UNL     1      18.032  31.389  16.902  1.00  0.00     0.006 C
HETATM   16  C25 UNL     1      17.397  32.559  16.196  1.00  0.00     0.001 C
HETATM   17  C26 UNL     1      16.755  33.457  17.170  1.00  0.00     0.001 C
HETATM   18  C27 UNL     1      15.334  33.846  16.803  1.00  0.00     0.008 C
HETATM   19  C28 UNL     1      15.154  35.282  17.160  1.00  0.00     0.033 C
HETATM   20  C29 UNL     1      16.392  35.750  17.850  1.00  0.00     0.126 C
ENDROOT
BRANCH  12  21
HETATM   21  C12 UNL     1      20.373  28.747  14.664  1.00  0.00     0.180 C
BRANCH  21  22
HETATM   22  O5  UNL     1      21.565  28.129  14.390  1.00  0.00    -0.388 OA
BRANCH  22  23
HETATM   23  C13 UNL     1      22.449  28.818  13.598  1.00  0.00     0.193 C
BRANCH  23  24
HETATM   24  C14 UNL     1      22.824  28.129  12.320  1.00  0.00     0.193 C
BRANCH  24  25
HETATM   25  O6  UNL     1      24.139  27.699  12.269  1.00  0.00    -0.387 OA
BRANCH  25  26
HETATM   26  C15 UNL     1      24.299  26.396  11.865  1.00  0.00     0.193 C
BRANCH  26  27
HETATM   27  C16 UNL     1      23.140  26.008  10.962  1.00  0.00     0.193 C
BRANCH  27  28
HETATM   28  O7  UNL     1      22.516  24.846  11.339  1.00  0.00    -0.387 OA
BRANCH  28  29
HETATM   29  C17 UNL     1      21.152  24.867  11.220  1.00  0.00     0.195 C
BRANCH  29  30
HETATM   30  C18 UNL     1      20.655  25.957  10.298  1.00  0.00     0.263 C
BRANCH  30  31
HETATM   31  N1  UNL     1      19.230  25.906  10.239  1.00  0.00    -0.066 N
HETATM   32  C19 UNL     1      18.574  25.543  11.483  1.00  0.00     0.272 C
HETATM   33  C20 UNL     1      18.503  25.568   9.058  1.00  0.00     0.265 A
HETATM   34  C21 UNL     1      18.575  26.997   9.485  1.00  0.00     0.265 A
ENDBRANCH  30  31
ENDBRANCH  29  30
ENDBRANCH  28  29
ENDBRANCH  27  28
ENDBRANCH  26  27
ENDBRANCH  25  26
ENDBRANCH  24  25
ENDBRANCH  23  24
ENDBRANCH  22  23
ENDBRANCH  21  22
ENDBRANCH  12  21
BRANCH   4  35
HETATM   35  O1  UNL     1      20.177  33.826  16.641  1.00  0.00    -0.256 OA
BRANCH  35  36
HETATM   36  S1  UNL     1      21.733  34.312  16.246  1.00  0.00     0.401 S
HETATM   37  O2  UNL     1      22.669  33.131  16.456  1.00  0.00    -0.179 OA
HETATM   38  O3  UNL     1      22.241  35.700  17.044  1.00  0.00    -0.179 OA
ENDBRANCH  35  36
ENDBRANCH   4  35
BRANCH  20  39
HETATM   39  O8  UNL     1      16.799  37.017  17.471  1.00  0.00    -0.395 OA
ATOM     40  H8  UNL     1      16.110  37.658  17.607  1.00  0.00     0.210 HD
ENDBRANCH  20  39
TORSDOF 14
ENDMDL