MODEL 4
REMARK VINA RESULT: -8.408897676      1.630      3.061
REMARK  13 active torsions:
REMARK  status: ('A' for Active; 'I' for Inactive)
REMARK    1  A    between atoms: O1_2  and  C2_3
REMARK    2  A    between atoms: C6_7  and  C7_8
REMARK       I    between atoms: C7_8  and  N1_10
REMARK    3  A    between atoms: N1_10  and  C8_12
REMARK    4  A    between atoms: C10_14  and  C11_15
REMARK       I    between atoms: C11_15  and  N2_17
REMARK    5  A    between atoms: N2_17  and  C12_19
REMARK    6  A    between atoms: C14_21  and  C15_22
REMARK       I    between atoms: C15_22  and  N3_24
REMARK    7  A    between atoms: N3_24  and  C16_26
REMARK    8  A    between atoms: C16_26  and  C17_27
REMARK    9  A    between atoms: C17_27  and  C18_28
REMARK   10  A    between atoms: C18_28  and  N4_29
REMARK   11  A    between atoms: N4_29  and  C20_31
REMARK   12  A    between atoms: C20_31  and  C21_32
REMARK   13  A    between atoms: C21_32  and  N5_33
ROOT
HETATM    1  C11 UNL     1      21.103  30.730  13.344  1.00  0.00     0.273 C
HETATM    2  O3  UNL     1      20.955  30.941  12.100  1.00  0.00    -0.266 OA
HETATM    3  N2  UNL     1      21.274  29.407  13.752  1.00  0.00    -0.320 N
ATOM      4  H2  UNL     1      21.372  29.223  14.751  1.00  0.00     0.169 HD
ENDROOT
BRANCH   1   5
HETATM    5  C10 UNL     1      21.082  31.852  14.251  1.00  0.00     0.105 A
HETATM    6  C9  UNL     1      19.889  32.544  14.611  1.00  0.00     0.067 A
HETATM    7  C8  UNL     1      20.204  33.572  15.421  1.00  0.00     0.059 A
HETATM    8  C27 UNL     1      21.599  33.523  15.567  1.00  0.00     0.035 A
HETATM    9  N7  UNL     1      22.096  32.480  14.853  1.00  0.00    -0.349 N
HETATM   10  C28 UNL     1      22.361  34.476  16.388  1.00  0.00     0.070 C
HETATM   11  C26 UNL     1      23.519  32.207  14.805  1.00  0.00     0.156 C
BRANCH   7  12
HETATM   12  N1  UNL     1      19.358  34.545  15.990  1.00  0.00    -0.321 N
HETATM   13  C7  UNL     1      18.437  34.268  16.995  1.00  0.00     0.256 C
HETATM   14  O2  UNL     1      18.362  33.084  17.454  1.00  0.00    -0.267 OA
ATOM     15  H1  UNL     1      19.424  35.503  15.646  1.00  0.00     0.169 HD
BRANCH  13  16
HETATM   16  C6  UNL     1      17.548  35.300  17.555  1.00  0.00     0.038 A
HETATM   17  C4  UNL     1      17.973  36.445  18.162  1.00  0.00    -0.044 A
HETATM   18  C3  UNL     1      17.020  37.326  18.715  1.00  0.00     0.045 A
HETATM   19  C5  UNL     1      19.395  36.848  18.238  1.00  0.00     0.049 C
HETATM   20  C2  UNL     1      15.675  37.104  18.683  1.00  0.00     0.074 A
HETATM   21  C30 UNL     1      15.242  35.927  18.059  1.00  0.00    -0.028 A
HETATM   22  C29 UNL     1      16.163  35.067  17.518  1.00  0.00     0.027 A
HETATM   23  C31 UNL     1      13.766  35.644  18.029  1.00  0.00     0.051 C
BRANCH  20  24
HETATM   24  O1  UNL     1      14.718  37.954  19.220  1.00  0.00    -0.355 OA
HETATM   25  C1  UNL     1      15.074  38.826  20.275  1.00  0.00     0.210 C
ENDBRANCH  20  24
ENDBRANCH  13  16
ENDBRANCH   7  12
ENDBRANCH   1   5
BRANCH   3  26
HETATM   26  C12 UNL     1      21.322  28.284  12.852  1.00  0.00     0.053 A
HETATM   27  C13 UNL     1      22.476  27.802  12.299  1.00  0.00     0.066 A
HETATM   28  C14 UNL     1      22.144  26.766  11.461  1.00  0.00     0.104 A
HETATM   29  N6  UNL     1      20.815  26.606  11.491  1.00  0.00    -0.354 N
HETATM   30  C24 UNL     1      20.102  25.600  10.730  1.00  0.00     0.156 C
HETATM   31  C25 UNL     1      20.316  27.537  12.346  1.00  0.00     0.120 A
BRANCH  28  32
HETATM   32  C15 UNL     1      23.106  25.956  10.686  1.00  0.00     0.268 C
HETATM   33  O4  UNL     1      23.779  25.095  11.295  1.00  0.00    -0.266 OA
HETATM   34  N3  UNL     1      23.261  26.157   9.289  1.00  0.00    -0.355 N
ATOM     35  H3  UNL     1      22.692  26.878   8.845  1.00  0.00     0.162 HD
BRANCH  34  36
HETATM   36  C16 UNL     1      24.160  25.415   8.463  1.00  0.00     0.128 C
BRANCH  36  37
HETATM   37  C17 UNL     1      23.568  25.006   7.121  1.00  0.00     0.064 C
BRANCH  37  38
HETATM   38  C18 UNL     1      22.183  24.509   7.285  1.00  0.00     0.064 C
BRANCH  38  39
HETATM   39  N4  UNL     1      21.119  25.127   6.631  1.00  0.00    -0.377 N
HETATM   40  C19 UNL     1      21.318  25.137   5.204  1.00  0.00     0.154 C
BRANCH  39  41
HETATM   41  C20 UNL     1      19.807  25.144   7.078  1.00  0.00     0.082 C
BRANCH  41  42
HETATM   42  C21 UNL     1      18.789  25.570   6.097  1.00  0.00     0.160 C
BRANCH  42  43
HETATM   43  N5  UNL     1      18.224  26.879   6.393  1.00  0.00    -0.416 N
HETATM   44  C22 UNL     1      18.456  27.877   5.407  1.00  0.00     0.143 C
HETATM   45  C23 UNL     1      18.340  27.283   7.752  1.00  0.00     0.143 C
ENDBRANCH  42  43
ENDBRANCH  41  42
ENDBRANCH  39  41
ENDBRANCH  38  39
ENDBRANCH  37  38
ENDBRANCH  36  37
ENDBRANCH  34  36
ENDBRANCH  28  32
ENDBRANCH   3  26
TORSDOF 13
ENDMDL