MODEL 3
REMARK VINA RESULT: -8.979908923      1.715      2.464
REMARK  14 active torsions:
REMARK  status: ('A' for Active; 'I' for Inactive)
REMARK    1  A    between atoms: C2_2  and  C3_4
REMARK    2  A    between atoms: C3_4  and  C4_5
REMARK    3  A    between atoms: C4_5  and  C5_6
REMARK    4  A    between atoms: C5_6  and  C6_7
REMARK    5  A    between atoms: C6_7  and  C7_8
REMARK    6  A    between atoms: C7_8  and  C8_9
REMARK    7  A    between atoms: C8_9  and  N1_10
REMARK    8  A    between atoms: N2_14  and  C12_15
REMARK    9  A    between atoms: C12_15  and  C13_16
REMARK   10  A    between atoms: N4_24  and  C19_26
REMARK   11  A    between atoms: C19_26  and  C20_27
REMARK   12  A    between atoms: C20_27  and  C21_28
REMARK   13  A    between atoms: C21_28  and  N5_29
REMARK   14  A    between atoms: C29_43  and  O3_44
ROOT
HETATM    1  C13 UNL     1      15.776  33.954  16.279  1.00  0.00     0.015 A
HETATM    2  C14 UNL     1      14.853  34.063  17.265  1.00  0.00     0.017 A
HETATM    3  C15 UNL     1      14.843  35.188  18.106  1.00  0.00     0.018 A
HETATM    4  C16 UNL     1      15.748  36.217  17.979  1.00  0.00     0.039 A
HETATM    5  C17 UNL     1      16.679  36.088  16.969  1.00  0.00     0.097 A
HETATM    6  N3  UNL     1      17.574  37.112  16.842  1.00  0.00    -0.188 N
ATOM      7  H3  UNL     1      18.287  37.074  16.113  1.00  0.00     0.184 HD
HETATM    8  C18 UNL     1      17.524  38.172  17.672  1.00  0.00     0.686 A
HETATM    9  N4  UNL     1      18.346  39.152  17.572  1.00  0.00    -0.225 N
ATOM     10  H4  UNL     1      18.234  39.912  18.243  1.00  0.00     0.177 HD
HETATM   11  N7  UNL     1      16.594  38.273  18.659  1.00  0.00    -0.140 N
HETATM   12  C25 UNL     1      16.359  39.217  19.585  1.00  0.00     0.141 A
HETATM   13  C26 UNL     1      15.272  38.831  20.370  1.00  0.00     0.023 A
HETATM   14  C27 UNL     1      14.680  39.594  21.512  1.00  0.00     0.069 C
HETATM   15  N8  UNL     1      14.893  37.642  19.867  1.00  0.00    -0.343 N
ATOM     16  H8  UNL     1      14.116  37.081  20.218  1.00  0.00     0.167 HD
HETATM   17  C28 UNL     1      15.686  37.297  18.833  1.00  0.00     0.141 A
HETATM   18  C29 UNL     1      16.709  34.994  16.132  1.00  0.00     0.105 A
ENDROOT
BRANCH   1  19
HETATM   19  C12 UNL     1      15.812  32.814  15.356  1.00  0.00     0.104 C
BRANCH  19  20
HETATM   20  N2  UNL     1      17.019  32.103  15.377  1.00  0.00    -0.364 N
HETATM   21  C11 UNL     1      17.817  32.011  14.222  1.00  0.00     0.069 C
HETATM   22  C10 UNL     1      17.769  30.667  13.563  1.00  0.00     0.089 C
HETATM   23  C9  UNL     1      18.100  29.502  14.434  1.00  0.00     0.068 C
HETATM   24  N1  UNL     1      18.911  29.713  15.546  1.00  0.00    -0.372 N
HETATM   25  C31 UNL     1      18.757  30.829  16.372  1.00  0.00     0.083 C
HETATM   26  C30 UNL     1      17.297  31.247  16.463  1.00  0.00     0.172 C
BRANCH  24  27
HETATM   27  C8  UNL     1      20.282  29.354  15.336  1.00  0.00     0.127 C
BRANCH  27  28
HETATM   28  C7  UNL     1      20.437  28.644  14.035  1.00  0.00     0.020 C
BRANCH  28  29
HETATM   29  C6  UNL     1      21.586  29.213  13.252  1.00  0.00     0.002 C
BRANCH  29  30
HETATM   30  C5  UNL     1      22.307  30.261  14.038  1.00  0.00     0.000 C
BRANCH  30  31
HETATM   31  C4  UNL     1      22.076  31.608  13.374  1.00  0.00     0.007 C
BRANCH  31  32
HETATM   32  C3  UNL     1      21.790  32.675  14.395  1.00  0.00     0.077 C
BRANCH  32  33
HETATM   33  C2  UNL     1      22.954  32.830  15.309  1.00  0.00     0.123 C
HETATM   34  C1  UNL     1      22.753  32.781  16.774  1.00  0.00     0.091 C
HETATM   35  O1  UNL     1      24.051  32.994  14.851  1.00  0.00    -0.298 OA
ENDBRANCH  32  33
ENDBRANCH  31  32
ENDBRANCH  30  31
ENDBRANCH  29  30
ENDBRANCH  28  29
ENDBRANCH  27  28
ENDBRANCH  24  27
ENDBRANCH  19  20
ENDBRANCH   1  19
BRANCH  18  36
HETATM   36  O3  UNL     1      17.644  34.890  15.138  1.00  0.00    -0.357 OA
ATOM     37  H3  UNL     1      17.392  35.132  14.255  1.00  0.00     0.217 HD
ENDBRANCH  18  36
BRANCH   9  38
HETATM   38  C19 UNL     1      19.404  39.289  16.618  1.00  0.00     0.139 C
BRANCH  38  39
HETATM   39  C20 UNL     1      20.718  39.123  17.397  1.00  0.00     0.040 C
BRANCH  39  40
HETATM   40  C21 UNL     1      21.214  37.727  17.109  1.00  0.00     0.129 C
BRANCH  40  41
HETATM   41  N5  UNL     1      20.901  36.792  18.144  1.00  0.00    -0.333 N
HETATM   42  C22 UNL     1      21.151  36.994  19.557  1.00  0.00     0.147 C
HETATM   43  C23 UNL     1      20.835  35.684  20.239  1.00  0.00     0.144 C
HETATM   44  N6  UNL     1      20.032  34.963  19.295  1.00  0.00    -0.341 N
HETATM   45  C24 UNL     1      20.305  35.524  18.015  1.00  0.00     0.318 C
ATOM     46  H6  UNL     1      19.392  34.196  19.500  1.00  0.00     0.164 HD
HETATM   47  O2  UNL     1      20.032  34.932  16.933  1.00  0.00    -0.247 OA
ENDBRANCH  40  41
ENDBRANCH  39  40
ENDBRANCH  38  39
ENDBRANCH   9  38
TORSDOF 14
ENDMDL