MODEL 5
REMARK VINA RESULT: -8.681646856      1.852      4.126
REMARK  16 active torsions:
REMARK  status: ('A' for Active; 'I' for Inactive)
REMARK    1  A    between atoms: C2_2  and  N1_3
REMARK    2  A    between atoms: C2_2  and  C12_17
REMARK       I    between atoms: N1_3  and  C3_5
REMARK    3  A    between atoms: C3_5  and  O2_7
REMARK    4  A    between atoms: O2_7  and  C4_8
REMARK    5  A    between atoms: C4_8  and  C5_9
REMARK    6  A    between atoms: C5_9  and  S1_10
REMARK    7  A    between atoms: S1_10  and  C6_11
REMARK       I    between atoms: C12_17  and  N2_19
REMARK    8  A    between atoms: C16_23  and  C17_24
REMARK       I    between atoms: C17_24  and  N3_26
REMARK    9  A    between atoms: C21_30  and  C22_31
REMARK       I    between atoms: C22_31  and  N4_33
REMARK   10  A    between atoms: N4_33  and  C23_35
REMARK   11  A    between atoms: C23_35  and  C24_36
REMARK   12  A    between atoms: C24_36  and  C25_37
REMARK   13  A    between atoms: C25_37  and  C26_38
REMARK   14  A    between atoms: C26_38  and  C27_39
REMARK   15  A    between atoms: C27_39  and  O6_40
REMARK   16  A    between atoms: N5_42  and  O7_44
ROOT
HETATM    1  C12 UNL     1      21.146  30.896  13.436  1.00  0.00     0.243 C
HETATM    2  O3  UNL     1      21.653  31.043  12.265  1.00  0.00    -0.271 OA
HETATM    3  N2  UNL     1      21.522  31.844  14.401  1.00  0.00    -0.337 N
HETATM    4  C13 UNL     1      22.476  32.948  14.191  1.00  0.00     0.127 C
HETATM    5  C14 UNL     1      23.160  33.152  15.502  1.00  0.00     0.022 C
HETATM    6  C15 UNL     1      22.374  32.361  16.488  1.00  0.00     0.037 C
HETATM    7  C16 UNL     1      21.090  32.044  15.780  1.00  0.00     0.179 C
ENDROOT
BRANCH   7   8
HETATM    8  C17 UNL     1      20.093  33.124  15.783  1.00  0.00     0.243 C
HETATM    9  O4  UNL     1      20.525  34.330  15.742  1.00  0.00    -0.271 OA
HETATM   10  N3  UNL     1      18.677  32.932  15.832  1.00  0.00    -0.337 N
HETATM   11  C18 UNL     1      17.880  31.750  15.882  1.00  0.00     0.127 C
HETATM   12  C21 UNL     1      17.742  34.067  15.833  1.00  0.00     0.179 C
HETATM   13  C19 UNL     1      16.644  32.094  15.067  1.00  0.00     0.022 C
HETATM   14  C20 UNL     1      16.389  33.525  15.516  1.00  0.00     0.037 C
BRANCH  12  15
HETATM   15  C22 UNL     1      17.753  34.790  17.138  1.00  0.00     0.240 C
HETATM   16  O5  UNL     1      17.299  34.165  18.125  1.00  0.00    -0.271 OA
HETATM   17  N4  UNL     1      18.256  36.111  17.205  1.00  0.00    -0.359 N
ATOM     18  H4  UNL     1      18.615  36.543  16.354  1.00  0.00     0.162 HD
BRANCH  17  19
HETATM   19  C23 UNL     1      18.282  36.861  18.415  1.00  0.00     0.122 C
BRANCH  19  20
HETATM   20  C24 UNL     1      17.518  38.132  18.386  1.00  0.00     0.020 C
BRANCH  20  21
HETATM   21  C25 UNL     1      16.086  38.087  18.732  1.00  0.00     0.010 C
BRANCH  21  22
HETATM   22  C26 UNL     1      15.574  36.820  19.311  1.00  0.00     0.086 C
BRANCH  22  23
HETATM   23  C27 UNL     1      14.130  36.607  18.894  1.00  0.00     0.135 C
HETATM   24  N5  UNL     1      13.684  35.514  18.447  1.00  0.00    -0.251 N
ATOM     25  H5  UNL     1      12.695  35.486  18.197  1.00  0.00     0.196 HD
BRANCH  23  26
HETATM   26  O6  UNL     1      13.254  37.679  19.012  1.00  0.00    -0.348 OA
ATOM     27  H6  UNL     1      13.001  38.136  18.220  1.00  0.00     0.219 HD
ENDBRANCH  23  26
BRANCH  24  28
HETATM   28  O7  UNL     1      14.410  34.353  18.264  1.00  0.00    -0.288 OA
ATOM     29  H7  UNL     1      14.076  33.532  17.922  1.00  0.00     0.244 HD
ENDBRANCH  24  28
ENDBRANCH  22  23
ENDBRANCH  21  22
ENDBRANCH  20  21
ENDBRANCH  19  20
ENDBRANCH  17  19
ENDBRANCH  12  15
ENDBRANCH   7   8
BRANCH   1  30
HETATM   30  C2  UNL     1      20.229  29.774  13.686  1.00  0.00     0.175 C
HETATM   31  C1  UNL     1      20.805  28.810  14.728  1.00  0.00     0.042 C
BRANCH  30  32
HETATM   32  N1  UNL     1      20.062  29.022  12.431  1.00  0.00    -0.324 N
HETATM   33  C3  UNL     1      18.719  29.006  11.879  1.00  0.00     0.361 C
HETATM   34  O1  UNL     1      17.795  29.590  12.477  1.00  0.00    -0.238 OA
ATOM     35  H1  UNL     1      20.840  28.542  11.979  1.00  0.00     0.165 HD
BRANCH  33  36
HETATM   36  O2  UNL     1      18.431  28.371  10.714  1.00  0.00    -0.303 OA
BRANCH  36  37
HETATM   37  C4  UNL     1      18.417  27.051  10.333  1.00  0.00     0.191 C
BRANCH  37  38
HETATM   38  C5  UNL     1      19.446  26.130  10.863  1.00  0.00     0.101 C
BRANCH  38  39
HETATM   39  S1  UNL     1      21.095  26.194  10.256  1.00  0.00    -0.162 SA
BRANCH  39  40
HETATM   40  C6  UNL     1      22.390  25.693  11.397  1.00  0.00     0.047 C
HETATM   41  C7  UNL     1      23.639  25.176  10.700  1.00  0.00     0.015 C
HETATM   42  C8  UNL     1      23.903  26.048   9.518  1.00  0.00     0.001 C
HETATM   43  C9  UNL     1      24.053  27.478   9.927  1.00  0.00     0.000 C
HETATM   44  C10 UNL     1      23.072  27.966  10.938  1.00  0.00     0.001 C
HETATM   45  C11 UNL     1      22.862  26.993  12.078  1.00  0.00     0.015 C
ENDBRANCH  39  40
ENDBRANCH  38  39
ENDBRANCH  37  38
ENDBRANCH  36  37
ENDBRANCH  33  36
ENDBRANCH  30  32
ENDBRANCH   1  30
TORSDOF 16
ENDMDL