MODEL 1
REMARK VINA RESULT: -8.410074264      0.000      0.000
REMARK  15 active torsions:
REMARK  status: ('A' for Active; 'I' for Inactive)
REMARK    1  A    between atoms: O1_2  and  C2_3
REMARK    2  A    between atoms: C4_5  and  C5_6
REMARK    3  A    between atoms: C5_6  and  C6_7
REMARK    4  A    between atoms: C7_10  and  O2_11
REMARK    5  A    between atoms: C8_13  and  C9_14
REMARK    6  A    between atoms: C9_14  and  C10_15
REMARK    7  A    between atoms: C10_15  and  S2_17
REMARK    8  A    between atoms: S2_17  and  C11_18
REMARK    9  A    between atoms: C11_18  and  C12_19
REMARK   10  A    between atoms: C12_19  and  C13_20
REMARK   11  A    between atoms: C13_20  and  N2_21
REMARK   12  A    between atoms: C20_33  and  C21_34
REMARK   13  A    between atoms: C21_34  and  C22_35
REMARK   14  A    between atoms: C22_35  and  C23_36
REMARK   15  A    between atoms: C23_36  and  N4_37
ROOT
HETATM    1  C6  UNL     1      21.789  34.384  18.115  1.00  0.00     0.077 A
HETATM    2  N1  UNL     1      21.263  34.753  19.279  1.00  0.00    -0.330 N
ATOM      3  H1  UNL     1      21.270  34.119  20.078  1.00  0.00     0.168 HD
HETATM    4  C7  UNL     1      20.735  35.954  19.379  1.00  0.00     0.158 A
HETATM    5  C8  UNL     1      20.763  36.750  18.263  1.00  0.00     0.056 A
HETATM    6  S3  UNL     1      21.543  35.742  17.127  1.00  0.00    -0.068 SA
ENDROOT
BRANCH   1   7
HETATM    7  C5  UNL     1      22.376  33.218  17.791  1.00  0.00     0.048 C
BRANCH   7   8
HETATM    8  C4  UNL     1      22.217  32.577  16.507  1.00  0.00    -0.031 A
HETATM    9  C3  UNL     1      21.024  31.970  16.183  1.00  0.00     0.048 A
HETATM   10  C2  UNL     1      20.846  31.340  14.946  1.00  0.00     0.075 A
HETATM   11  C20 UNL     1      21.884  31.332  14.044  1.00  0.00    -0.025 A
HETATM   12  C19 UNL     1      23.068  31.944  14.390  1.00  0.00     0.011 A
HETATM   13  C18 UNL     1      23.253  32.573  15.617  1.00  0.00     0.012 A
BRANCH  10  14
HETATM   14  O1  UNL     1      19.619  30.754  14.695  1.00  0.00    -0.355 OA
HETATM   15  C1  UNL     1      18.652  30.494  15.661  1.00  0.00     0.210 C
ENDBRANCH  10  14
BRANCH  11  16
HETATM   16  C21 UNL     1      21.676  30.661  12.749  1.00  0.00     0.043 C
BRANCH  16  17
HETATM   17  C22 UNL     1      22.100  29.209  12.745  1.00  0.00     0.035 C
BRANCH  17  18
HETATM   18  C23 UNL     1      21.966  28.710  11.324  1.00  0.00     0.272 C
BRANCH  18  19
HETATM   19  N4  UNL     1      23.049  27.781  11.074  1.00  0.00     0.088 N
HETATM   20  C24 UNL     1      24.008  27.774  12.168  1.00  0.00     0.272 C
HETATM   21  C25 UNL     1      24.857  26.570  11.794  1.00  0.00     0.032 C
HETATM   22  C26 UNL     1      23.957  25.670  10.984  1.00  0.00     0.032 C
HETATM   23  C27 UNL     1      22.610  26.396  11.105  1.00  0.00     0.272 C
ENDBRANCH  18  19
ENDBRANCH  17  18
ENDBRANCH  16  17
ENDBRANCH  11  16
ENDBRANCH   7   8
ENDBRANCH   1   7
BRANCH   4  24
HETATM   24  O2  UNL     1      20.193  36.419  20.468  1.00  0.00    -0.345 OA
ATOM     25  H2  UNL     1      19.810  37.286  20.540  1.00  0.00     0.219 HD
ENDBRANCH   4  24
BRANCH   5  26
HETATM   26  C9  UNL     1      20.290  37.996  18.129  1.00  0.00     0.023 C
BRANCH  26  27
HETATM   27  C10 UNL     1      18.917  38.299  18.567  1.00  0.00     0.143 C
HETATM   28  S1  UNL     1      18.892  39.957  19.280  1.00  0.00    -0.077 SA
BRANCH  27  29
HETATM   29  S2  UNL     1      17.782  38.305  17.137  1.00  0.00    -0.149 SA
BRANCH  29  30
HETATM   30  C11 UNL     1      16.060  38.045  17.671  1.00  0.00     0.077 C
BRANCH  30  31
HETATM   31  C12 UNL     1      16.098  37.191  18.894  1.00  0.00     0.030 C
BRANCH  31  32
HETATM   32  C13 UNL     1      15.459  35.857  18.790  1.00  0.00     0.128 C
BRANCH  32  33
HETATM   33  N2  UNL     1      16.099  34.926  17.882  1.00  0.00    -0.333 N
HETATM   34  C14 UNL     1      15.348  34.315  16.815  1.00  0.00     0.136 C
HETATM   35  C15 UNL     1      16.089  34.232  15.525  1.00  0.00     0.123 C
HETATM   36  C16 UNL     1      17.552  34.075  15.670  1.00  0.00     0.227 C
HETATM   37  O3  UNL     1      18.213  33.865  14.622  1.00  0.00    -0.273 OA
HETATM   38  N3  UNL     1      18.211  34.153  16.924  1.00  0.00    -0.279 N
HETATM   39  C17 UNL     1      17.465  34.585  18.043  1.00  0.00     0.325 C
ATOM     40  H3  UNL     1      19.196  33.904  17.014  1.00  0.00     0.173 HD
HETATM   41  O4  UNL     1      18.011  34.673  19.195  1.00  0.00    -0.247 OA
ENDBRANCH  32  33
ENDBRANCH  31  32
ENDBRANCH  30  31
ENDBRANCH  29  30
ENDBRANCH  27  29
ENDBRANCH  26  27
ENDBRANCH   5  26
TORSDOF 15
ENDMDL