MODEL 5
REMARK VINA RESULT: -8.884067478      1.997      2.585
REMARK  14 active torsions:
REMARK  status: ('A' for Active; 'I' for Inactive)
REMARK    1  A    between atoms: C4_4  and  C5_5
REMARK    2  A    between atoms: C5_5  and  C6_6
REMARK       I    between atoms: C6_6  and  N1_8
REMARK    3  A    between atoms: N1_8  and  C7_10
REMARK    4  A    between atoms: C8_15  and  C9_16
REMARK    5  A    between atoms: C9_16  and  C10_17
REMARK    6  A    between atoms: C10_17  and  C11_18
REMARK    7  A    between atoms: C11_18  and  C12_19
REMARK    8  A    between atoms: C12_19  and  C13_20
REMARK       I    between atoms: N6_26  and  C15_28
REMARK    9  A    between atoms: C15_28  and  C16_30
REMARK   10  A    between atoms: C20_36  and  C21_37
REMARK       I    between atoms: C21_37  and  N7_39
REMARK   11  A    between atoms: N7_39  and  C22_41
REMARK   12  A    between atoms: C22_41  and  C23_42
REMARK   13  A    between atoms: C23_42  and  C24_43
REMARK   14  A    between atoms: C24_43  and  C25_44
ROOT
HETATM    1  C25 UNL     1      17.373  30.705  13.363  1.00  0.00     0.124 C
HETATM    2  C26 UNL     1      17.729  29.296  13.322  1.00  0.00     0.059 C
HETATM    3  N8  UNL     1      18.030  28.174  13.293  1.00  0.00    -0.197 NA
ENDROOT
BRANCH   1   4
HETATM    4  C24 UNL     1      18.527  31.520  14.013  1.00  0.00     0.019 C
BRANCH   4   5
HETATM    5  C23 UNL     1      18.812  30.995  15.359  1.00  0.00     0.045 C
BRANCH   5   6
HETATM    6  C22 UNL     1      17.872  31.330  16.432  1.00  0.00     0.064 C
BRANCH   6   7
HETATM    7  N7  UNL     1      17.582  32.646  16.826  1.00  0.00    -0.337 N
HETATM    8  C21 UNL     1      16.413  33.410  16.775  1.00  0.00     0.255 C
HETATM    9  O3  UNL     1      15.357  32.915  16.281  1.00  0.00    -0.267 OA
ATOM     10  H7  UNL     1      18.380  33.140  17.228  1.00  0.00     0.168 HD
BRANCH   8  11
HETATM   11  C20 UNL     1      16.342  34.808  17.283  1.00  0.00     0.033 A
HETATM   12  C19 UNL     1      17.481  35.598  17.208  1.00  0.00     0.024 A
HETATM   13  C4  UNL     1      17.461  36.884  17.683  1.00  0.00    -0.048 A
HETATM   14  C3  UNL     1      16.299  37.379  18.236  1.00  0.00     0.014 A
HETATM   15  C2  UNL     1      15.165  36.616  18.321  1.00  0.00    -0.060 A
HETATM   16  C1  UNL     1      13.913  37.174  18.924  1.00  0.00     0.048 C
HETATM   17  C27 UNL     1      15.210  35.314  17.830  1.00  0.00     0.023 A
BRANCH  13  18
HETATM   18  C5  UNL     1      18.715  37.691  17.602  1.00  0.00     0.141 C
BRANCH  18  19
HETATM   19  C6  UNL     1      19.490  37.690  18.845  1.00  0.00     0.227 C
HETATM   20  O1  UNL     1      19.406  38.712  19.590  1.00  0.00    -0.273 OA
HETATM   21  N1  UNL     1      20.287  36.642  19.231  1.00  0.00    -0.306 N
ATOM     22  H1  UNL     1      20.447  36.542  20.233  1.00  0.00     0.171 HD
BRANCH  21  23
HETATM   23  C7  UNL     1      20.857  35.766  18.471  1.00  0.00     0.167 A
HETATM   24  N2  UNL     1      20.677  34.420  18.536  1.00  0.00    -0.279 N
HETATM   25  N3  UNL     1      21.308  33.696  17.720  1.00  0.00    -0.296 N
ATOM     26  H2  UNL     1      20.048  34.007  19.225  1.00  0.00     0.189 HD
HETATM   27  C8  UNL     1      22.126  34.220  16.824  1.00  0.00     0.069 A
ATOM     28  H3  UNL     1      21.184  32.684  17.752  1.00  0.00     0.187 HD
HETATM   29  S2  UNL     1      21.976  35.878  17.179  1.00  0.00    -0.038 SA
BRANCH  27  30
HETATM   30  C9  UNL     1      22.934  33.482  15.783  1.00  0.00     0.066 C
BRANCH  30  31
HETATM   31  C10 UNL     1      22.315  32.144  15.566  1.00  0.00     0.007 C
BRANCH  31  32
HETATM   32  C11 UNL     1      22.971  31.494  14.365  1.00  0.00     0.007 C
BRANCH  32  33
HETATM   33  C12 UNL     1      22.011  31.262  13.221  1.00  0.00     0.066 C
BRANCH  33  34
HETATM   34  C13 UNL     1      21.851  29.772  13.086  1.00  0.00     0.069 A
HETATM   35  N4  UNL     1      21.015  28.949  13.662  1.00  0.00    -0.296 N
HETATM   36  N5  UNL     1      21.022  27.708  13.418  1.00  0.00    -0.279 N
ATOM     37  H4  UNL     1      20.335  29.318  14.328  1.00  0.00     0.187 HD
HETATM   38  C14 UNL     1      21.916  27.233  12.540  1.00  0.00     0.167 A
ATOM     39  H5  UNL     1      20.361  27.083  13.879  1.00  0.00     0.189 HD
HETATM   40  N6  UNL     1      22.087  26.003  12.156  1.00  0.00    -0.306 N
HETATM   41  S1  UNL     1      22.745  28.671  12.087  1.00  0.00    -0.038 SA
HETATM   42  C15 UNL     1      23.083  25.672  11.213  1.00  0.00     0.227 C
ATOM     43  H6  UNL     1      21.494  25.268  12.542  1.00  0.00     0.171 HD
HETATM   44  O2  UNL     1      24.122  25.099  11.590  1.00  0.00    -0.273 OA
BRANCH  42  45
HETATM   45  C16 UNL     1      22.895  26.000   9.796  1.00  0.00     0.070 C
HETATM   46  C17 UNL     1      22.295  24.793   9.059  1.00  0.00     0.019 C
HETATM   47  C18 UNL     1      24.207  26.328   9.107  1.00  0.00     0.019 C
ENDBRANCH  42  45
ENDBRANCH  33  34
ENDBRANCH  32  33
ENDBRANCH  31  32
ENDBRANCH  30  31
ENDBRANCH  27  30
ENDBRANCH  21  23
ENDBRANCH  18  19
ENDBRANCH  13  18
ENDBRANCH   8  11
ENDBRANCH   6   7
ENDBRANCH   5   6
ENDBRANCH   4   5
ENDBRANCH   1   4
TORSDOF 14
ENDMDL