MODEL 2
REMARK VINA RESULT: -9.052175518      1.516      2.064
REMARK  13 active torsions:
REMARK  status: ('A' for Active; 'I' for Inactive)
REMARK    1  A    between atoms: C6_6  and  C7_7
REMARK       I    between atoms: C7_7  and  N1_9
REMARK    2  A    between atoms: N1_9  and  C8_11
REMARK    3  A    between atoms: C10_13  and  C11_14
REMARK       I    between atoms: C11_14  and  N2_16
REMARK    4  A    between atoms: N2_16  and  C12_18
REMARK    5  A    between atoms: C12_18  and  C13_19
REMARK    6  A    between atoms: C13_19  and  C14_20
REMARK    7  A    between atoms: C14_20  and  C15_21
REMARK    8  A    between atoms: N4_23  and  C16_24
REMARK    9  A    between atoms: C16_24  and  C17_25
REMARK   10  A    between atoms: C17_25  and  C18_26
REMARK   11  A    between atoms: C18_26  and  N5_27
REMARK   12  A    between atoms: C22_33  and  C23_34
REMARK   13  A    between atoms: C24_35  and  C25_36
REMARK       I    between atoms: C25_36  and  N7_38
ROOT
HETATM    1  C7  UNL     1      16.731  34.885  15.712  1.00  0.00     0.257 C
HETATM    2  O1  UNL     1      16.352  35.052  14.540  1.00  0.00    -0.267 OA
HETATM    3  N1  UNL     1      17.608  33.839  16.037  1.00  0.00    -0.308 N
ATOM      4  H1  UNL     1      17.892  33.744  17.012  1.00  0.00     0.170 HD
ENDROOT
BRANCH   3   5
HETATM    5  C8  UNL     1      18.131  32.895  15.099  1.00  0.00     0.125 A
HETATM    6  C9  UNL     1      19.400  32.699  14.624  1.00  0.00     0.086 A
HETATM    7  C10 UNL     1      19.411  31.640  13.705  1.00  0.00     0.122 A
HETATM    8  N4  UNL     1      18.132  31.226  13.655  1.00  0.00    -0.285 N
HETATM    9  N6  UNL     1      17.385  31.959  14.468  1.00  0.00    -0.283 N
ATOM     10  H6  UNL     1      16.382  31.833  14.602  1.00  0.00     0.189 HD
BRANCH   7  11
HETATM   11  C11 UNL     1      20.566  31.130  12.978  1.00  0.00     0.273 C
HETATM   12  O2  UNL     1      20.853  31.514  11.815  1.00  0.00    -0.266 OA
HETATM   13  N2  UNL     1      21.424  30.150  13.594  1.00  0.00    -0.332 N
ATOM     14  H2  UNL     1      21.168  29.878  14.543  1.00  0.00     0.168 HD
BRANCH  13  15
HETATM   15  C12 UNL     1      22.545  29.526  13.078  1.00  0.00     0.091 C
BRANCH  15  16
HETATM   16  C13 UNL     1      22.770  28.202  12.563  1.00  0.00     0.018 C
BRANCH  16  17
HETATM   17  C14 UNL     1      23.688  27.671  11.593  1.00  0.00     0.016 C
BRANCH  17  18
HETATM   18  C15 UNL     1      24.562  26.502  11.833  1.00  0.00     0.100 C
HETATM   19  N3  UNL     1      24.265  25.200  11.464  1.00  0.00    -0.115 NA
ENDBRANCH  17  18
ENDBRANCH  16  17
ENDBRANCH  15  16
ENDBRANCH  13  15
ENDBRANCH   7  11
BRANCH   8  20
HETATM   20  C16 UNL     1      17.592  30.160  12.854  1.00  0.00     0.151 C
BRANCH  20  21
HETATM   21  C17 UNL     1      18.063  28.851  13.489  1.00  0.00     0.052 C
BRANCH  21  22
HETATM   22  C18 UNL     1      17.524  27.693  12.704  1.00  0.00     0.273 C
BRANCH  22  23
HETATM   23  N5  UNL     1      18.594  26.937  12.123  1.00  0.00     0.080 N
HETATM   24  C19 UNL     1      18.241  25.621  11.714  1.00  0.00     0.309 C
HETATM   25  C20 UNL     1      19.326  27.716  11.189  1.00  0.00     0.309 C
ENDBRANCH  22  23
ENDBRANCH  21  22
ENDBRANCH  20  21
ENDBRANCH   8  20
ENDBRANCH   3   5
BRANCH   1  26
HETATM   26  C6  UNL     1      16.258  35.778  16.743  1.00  0.00     0.039 A
HETATM   27  C4  UNL     1      15.252  35.449  17.605  1.00  0.00    -0.046 A
HETATM   28  C3  UNL     1      14.816  36.315  18.585  1.00  0.00     0.015 A
HETATM   29  C5  UNL     1      14.598  34.142  17.505  1.00  0.00     0.049 C
HETATM   30  C2  UNL     1      15.415  37.533  18.687  1.00  0.00    -0.051 A
HETATM   31  C1  UNL     1      14.969  38.487  19.749  1.00  0.00     0.049 C
HETATM   32  C22 UNL     1      16.472  37.952  17.826  1.00  0.00    -0.029 A
HETATM   33  C21 UNL     1      16.853  37.047  16.876  1.00  0.00     0.029 A
BRANCH  32  34
HETATM   34  C23 UNL     1      16.952  39.284  17.967  1.00  0.00     0.017 C
HETATM   35  C24 UNL     1      18.113  39.806  18.200  1.00  0.00     0.075 C
BRANCH  35  36
HETATM   36  C25 UNL     1      19.425  39.334  18.434  1.00  0.00     0.243 C
HETATM   37  O3  UNL     1      19.828  38.845  19.496  1.00  0.00    -0.268 OA
HETATM   38  N7  UNL     1      20.425  39.397  17.388  1.00  0.00    -0.348 N
HETATM   39  C26 UNL     1      19.964  39.959  16.156  1.00  0.00     0.127 C
HETATM   40  C30 UNL     1      21.701  38.866  17.808  1.00  0.00     0.136 C
HETATM   41  C27 UNL     1      21.043  39.915  15.077  1.00  0.00     0.030 C
HETATM   42  C28 UNL     1      21.855  41.215  15.116  1.00  0.00     0.075 C
HETATM   43  S1  UNL     1      22.571  41.285  16.796  1.00  0.00    -0.167 SA
HETATM   44  C29 UNL     1      22.901  39.575  17.301  1.00  0.00     0.093 C
ENDBRANCH  35  36
ENDBRANCH  32  34
ENDBRANCH   1  26
TORSDOF 13
ENDMDL