MODEL 1
REMARK VINA RESULT: -9.340406125      0.000      0.000
REMARK  13 active torsions:
REMARK  status: ('A' for Active; 'I' for Inactive)
REMARK    1  A    between atoms: C2_3  and  N2_4
REMARK       I    between atoms: N2_4  and  C3_6
REMARK    2  A    between atoms: C3_6  and  C4_8
REMARK    3  A    between atoms: C4_8  and  N3_9
REMARK    4  A    between atoms: N4_12  and  C7_13
REMARK    5  A    between atoms: C7_13  and  C8_14
REMARK    6  A    between atoms: C8_14  and  C9_15
REMARK    7  A    between atoms: C9_15  and  C10_16
REMARK    8  A    between atoms: C10_16  and  C11_17
REMARK    9  A    between atoms: C11_17  and  C12_18
REMARK       I    between atoms: C12_18  and  N5_20
REMARK   10  A    between atoms: N5_20  and  C13_22
REMARK   11  A    between atoms: C20_30  and  O4_31
REMARK   12  A    between atoms: O4_31  and  C21_32
REMARK   13  A    between atoms: C21_32  and  C22_33
ROOT
HETATM    1  N1  UNL     1      21.050  24.877   5.932  1.00  0.00    -0.195 NA
HETATM    2  C1  UNL     1      20.149  25.552   6.142  1.00  0.00     0.091 C
HETATM    3  C2  UNL     1      18.977  26.409   6.413  1.00  0.00     0.122 A
HETATM    4  C30 UNL     1      17.813  26.178   5.500  1.00  0.00     0.050 A
HETATM    5  C31 UNL     1      18.590  27.479   5.463  1.00  0.00     0.050 A
ENDROOT
BRANCH   3   6
HETATM    6  N2  UNL     1      18.727  26.579   7.830  1.00  0.00    -0.338 N
HETATM    7  C3  UNL     1      18.364  25.445   8.594  1.00  0.00     0.247 C
HETATM    8  O1  UNL     1      18.260  24.304   8.052  1.00  0.00    -0.272 OA
ATOM      9  H2  UNL     1      18.811  27.496   8.267  1.00  0.00     0.164 HD
BRANCH   7  10
HETATM   10  C4  UNL     1      18.107  25.615  10.049  1.00  0.00     0.375 C
BRANCH  10  11
HETATM   11  N3  UNL     1      19.300  25.648  10.832  1.00  0.00     0.106 N
HETATM   12  C5  UNL     1      20.511  25.566  10.088  1.00  0.00     0.318 C
HETATM   13  C6  UNL     1      21.658  26.321  10.688  1.00  0.00     0.093 C
HETATM   14  N4  UNL     1      21.288  27.625  11.002  1.00  0.00    -0.370 N
HETATM   15  C28 UNL     1      19.999  27.921  11.448  1.00  0.00     0.093 C
HETATM   16  C29 UNL     1      19.256  26.689  11.807  1.00  0.00     0.318 C
BRANCH  14  17
HETATM   17  C7  UNL     1      22.343  28.485  11.492  1.00  0.00     0.127 C
BRANCH  17  18
HETATM   18  C8  UNL     1      22.597  28.350  12.936  1.00  0.00     0.020 C
BRANCH  18  19
HETATM   19  C9  UNL     1      22.008  29.422  13.765  1.00  0.00     0.002 C
BRANCH  19  20
HETATM   20  C10 UNL     1      22.235  30.833  13.458  1.00  0.00     0.009 C
BRANCH  20  21
HETATM   21  C11 UNL     1      22.438  31.862  14.472  1.00  0.00     0.103 C
BRANCH  21  22
HETATM   22  C12 UNL     1      21.226  32.080  15.331  1.00  0.00     0.222 C
HETATM   23  O2  UNL     1      21.400  31.990  16.544  1.00  0.00    -0.273 OA
HETATM   24  N5  UNL     1      20.012  32.366  14.688  1.00  0.00    -0.325 N
ATOM     25  H5  UNL     1      20.036  32.412  13.670  1.00  0.00     0.169 HD
BRANCH  24  26
HETATM   26  C13 UNL     1      18.755  32.597  15.300  1.00  0.00     0.069 A
HETATM   27  C14 UNL     1      18.296  33.831  15.679  1.00  0.00     0.047 A
HETATM   28  C15 UNL     1      17.057  34.031  16.293  1.00  0.00     0.009 A
HETATM   29  C16 UNL     1      16.368  35.121  16.764  1.00  0.00    -0.015 A
HETATM   30  C18 UNL     1      16.291  32.912  16.510  1.00  0.00     0.089 A
HETATM   31  C17 UNL     1      15.190  34.634  17.258  1.00  0.00     0.061 A
HETATM   32  C27 UNL     1      16.881  36.493  16.706  1.00  0.00     0.042 C
HETATM   33  O3  UNL     1      15.178  33.341  17.093  1.00  0.00    -0.314 OA
HETATM   34  C23 UNL     1      14.029  35.328  17.899  1.00  0.00     0.066 C
HETATM   35  C24 UNL     1      14.591  36.269  18.969  1.00  0.00     0.006 C
HETATM   36  C25 UNL     1      15.167  37.461  18.251  1.00  0.00     0.001 C
HETATM   37  C26 UNL     1      16.623  37.260  17.987  1.00  0.00     0.005 C
HETATM   38  C19 UNL     1      16.723  31.659  16.140  1.00  0.00     0.077 A
HETATM   39  C20 UNL     1      17.931  31.488  15.545  1.00  0.00     0.099 A
BRANCH  39  40
HETATM   40  O4  UNL     1      18.396  30.217  15.157  1.00  0.00    -0.338 OA
BRANCH  40  41
HETATM   41  C21 UNL     1      17.857  29.413  14.169  1.00  0.00     0.288 C
BRANCH  41  42
HETATM   42  C22 UNL     1      17.857  29.954  12.811  1.00  0.00     0.198 C
HETATM   43  O5  UNL     1      16.917  29.610  12.029  1.00  0.00    -0.646 OA
HETATM   44  O6  UNL     1      18.821  30.822  12.330  1.00  0.00    -0.646 OA
ENDBRANCH  41  42
ENDBRANCH  40  41
ENDBRANCH  39  40
ENDBRANCH  24  26
ENDBRANCH  21  22
ENDBRANCH  20  21
ENDBRANCH  19  20
ENDBRANCH  18  19
ENDBRANCH  17  18
ENDBRANCH  14  17
ENDBRANCH  10  11
ENDBRANCH   7  10
ENDBRANCH   3   6
TORSDOF 13
ENDMDL