MODEL 3
REMARK VINA RESULT: -8.650421153      3.718     11.118
REMARK  16 active torsions:
REMARK  status: ('A' for Active; 'I' for Inactive)
REMARK    1  A    between atoms: C6_6  and  N1_7
REMARK       I    between atoms: N1_7  and  C7_9
REMARK       I    between atoms: C7_9  and  N2_11
REMARK    2  A    between atoms: N2_11  and  C9_13
REMARK    3  A    between atoms: C9_13  and  C10_14
REMARK    4  A    between atoms: C10_14  and  C11_15
REMARK    5  A    between atoms: C11_15  and  N3_16
REMARK    6  A    between atoms: N3_16  and  C12_18
REMARK    7  A    between atoms: C12_18  and  C13_19
REMARK    8  A    between atoms: C13_19  and  S1_20
REMARK    9  A    between atoms: S1_20  and  C14_21
REMARK   10  A    between atoms: C14_21  and  C15_22
REMARK   11  A    between atoms: N5_28  and  O3_29
REMARK   12  A    between atoms: N6_31  and  C18_33
REMARK   13  A    between atoms: C18_33  and  C19_34
REMARK   14  A    between atoms: C19_34  and  C20_35
REMARK   15  A    between atoms: C20_35  and  N7_36
REMARK   16  A    between atoms: C25_41  and  O4_42
ROOT
HETATM    1  C12 UNL     1      20.748  28.854  12.778  1.00  0.00     0.082 C
HETATM    2  N6  UNL     1      21.928  28.741  12.485  1.00  0.00    -0.379 N
ATOM      3  H6  UNL     1      22.093  29.303  11.649  1.00  0.00     0.160 HD
ENDROOT
BRANCH   1   4
HETATM    4  N3  UNL     1      20.056  28.257  13.860  1.00  0.00    -0.379 N
ATOM      5  H3  UNL     1      19.326  27.569  13.675  1.00  0.00     0.160 HD
BRANCH   4   6
HETATM    6  C11 UNL     1      20.374  28.615  15.217  1.00  0.00     0.122 C
BRANCH   6   7
HETATM    7  C10 UNL     1      19.491  29.724  15.747  1.00  0.00     0.039 C
BRANCH   7   8
HETATM    8  C9  UNL     1      20.245  30.951  16.185  1.00  0.00     0.128 C
BRANCH   8   9
HETATM    9  N2  UNL     1      19.937  32.135  15.429  1.00  0.00    -0.338 N
HETATM   10  C7  UNL     1      18.906  33.005  15.823  1.00  0.00     0.322 C
HETATM   11  N1  UNL     1      18.147  32.781  16.993  1.00  0.00    -0.308 N
HETATM   12  O1  UNL     1      18.648  34.016  15.113  1.00  0.00    -0.247 OA
ATOM     13  H1  UNL     1      18.346  31.970  17.578  1.00  0.00     0.170 HD
HETATM   14  C8  UNL     1      20.712  32.397  14.222  1.00  0.00     0.154 C
BRANCH  11  15
HETATM   15  C6  UNL     1      17.088  33.697  17.368  1.00  0.00     0.048 A
HETATM   16  C4  UNL     1      17.438  34.759  18.191  1.00  0.00    -0.034 A
HETATM   17  C3  UNL     1      16.462  35.660  18.562  1.00  0.00     0.015 A
HETATM   18  C5  UNL     1      18.843  34.929  18.670  1.00  0.00     0.050 C
HETATM   19  C2  UNL     1      15.159  35.523  18.134  1.00  0.00    -0.061 A
HETATM   20  C1  UNL     1      14.105  36.496  18.530  1.00  0.00     0.048 C
HETATM   21  C28 UNL     1      14.832  34.452  17.311  1.00  0.00     0.015 A
HETATM   22  C26 UNL     1      15.795  33.537  16.926  1.00  0.00    -0.034 A
HETATM   23  C27 UNL     1      15.453  32.383  16.046  1.00  0.00     0.050 C
ENDBRANCH  11  15
ENDBRANCH   8   9
ENDBRANCH   7   8
ENDBRANCH   6   7
ENDBRANCH   4   6
ENDBRANCH   1   4
BRANCH   1  24
HETATM   24  C13 UNL     1      19.893  29.742  11.875  1.00  0.00     0.150 C
BRANCH  24  25
HETATM   25  S1  UNL     1      18.194  29.239  12.131  1.00  0.00    -0.155 SA
BRANCH  25  26
HETATM   26  C14 UNL     1      17.452  28.324  10.809  1.00  0.00     0.138 C
BRANCH  26  27
HETATM   27  C15 UNL     1      18.022  27.010  10.511  1.00  0.00     0.101 A
HETATM   28  C16 UNL     1      18.357  26.650   9.204  1.00  0.00     0.058 A
HETATM   29  C17 UNL     1      18.185  27.453   7.966  1.00  0.00     0.072 C
HETATM   30  N4  UNL     1      18.872  25.419   9.295  1.00  0.00    -0.242 N
HETATM   31  O2  UNL     1      18.874  25.015  10.528  1.00  0.00    -0.128 OA
ATOM     32  H4  UNL     1      19.214  24.873   8.504  1.00  0.00     0.196 HD
HETATM   33  N5  UNL     1      18.364  25.972  11.256  1.00  0.00    -0.104 N
BRANCH  33  34
HETATM   34  O3  UNL     1      18.248  25.869  12.610  1.00  0.00    -0.261 OA
ATOM     35  H3  UNL     1      17.450  25.702  13.099  1.00  0.00     0.247 HD
ENDBRANCH  33  34
ENDBRANCH  26  27
ENDBRANCH  25  26
ENDBRANCH  24  25
ENDBRANCH   1  24
BRANCH   2  36
HETATM   36  C18 UNL     1      23.126  28.154  12.838  1.00  0.00     0.122 C
BRANCH  36  37
HETATM   37  C19 UNL     1      23.868  27.743  11.550  1.00  0.00     0.050 C
BRANCH  37  38
HETATM   38  C20 UNL     1      24.198  26.287  11.709  1.00  0.00     0.277 C
BRANCH  38  39
HETATM   39  N7  UNL     1      23.804  25.553  10.555  1.00  0.00     0.117 N
HETATM   40  C21 UNL     1      24.300  26.267   9.384  1.00  0.00     0.276 C
HETATM   41  C22 UNL     1      23.972  25.619   8.087  1.00  0.00     0.030 C
HETATM   42  C23 UNL     1      22.557  25.104   8.013  1.00  0.00     0.006 C
HETATM   43  C24 UNL     1      22.277  24.273   9.248  1.00  0.00     0.064 C
HETATM   44  C25 UNL     1      22.416  25.238  10.441  1.00  0.00     0.356 C
BRANCH  44  45
HETATM   45  O4  UNL     1      21.631  26.360  10.168  1.00  0.00    -0.368 OA
ATOM     46  H4  UNL     1      21.022  26.214   9.453  1.00  0.00     0.212 HD
ENDBRANCH  44  45
ENDBRANCH  38  39
ENDBRANCH  37  38
ENDBRANCH  36  37
ENDBRANCH   2  36
TORSDOF 16
ENDMDL