MODEL 1
REMARK VINA RESULT: -5.246802952      0.000      0.000
REMARK  17 active torsions:
REMARK  status: ('A' for Active; 'I' for Inactive)
REMARK    1  A    between atoms: C2_2  and  C3_3
REMARK    2  A    between atoms: C3_3  and  O1_4
REMARK    3  A    between atoms: O1_4  and  C4_5
REMARK    4  A    between atoms: C4_5  and  C5_6
REMARK    5  A    between atoms: C6_7  and  O2_8
REMARK    6  A    between atoms: C9_12  and  C10_13
REMARK    7  A    between atoms: C10_13  and  O3_14
REMARK    8  A    between atoms: C15_19  and  O4_20
REMARK    9  A    between atoms: O4_20  and  C16_21
REMARK   10  A    between atoms: C18_24  and  O6_25
REMARK   11  A    between atoms: O6_25  and  C19_26
REMARK   12  A    between atoms: C22_30  and  O8_32
REMARK   13  A    between atoms: C26_36  and  C27_37
REMARK   14  A    between atoms: C27_37  and  O10_39
REMARK   15  A    between atoms: O10_39  and  C28_40
REMARK   16  A    between atoms: C28_40  and  C29_41
REMARK   17  A    between atoms: C29_41  and  C31_43
ROOT
HETATM    1  C5  UNL     1      19.241  39.283  18.248  1.00  0.00     0.069 C
HETATM    2  C6  UNL     1      19.137  37.894  17.833  1.00  0.00     0.132 C
HETATM    3  C7  UNL     1      20.185  36.996  17.502  1.00  0.00     0.035 C
HETATM    4  C8  UNL     1      21.131  37.059  16.389  1.00  0.00     0.013 C
HETATM    5  C9  UNL     1      21.764  38.357  16.001  1.00  0.00     0.016 C
HETATM    6  C12 UNL     1      21.813  39.381  17.036  1.00  0.00     0.021 C
HETATM    7  C13 UNL     1      21.739  39.125  18.465  1.00  0.00     0.011 C
HETATM    8  C14 UNL     1      22.836  40.017  19.112  1.00  0.00     0.020 C
HETATM    9  C15 UNL     1      20.453  39.722  19.008  1.00  0.00     0.151 C
HETATM   10  C18 UNL     1      21.943  37.799  19.115  1.00  0.00     0.155 C
HETATM   11  C21 UNL     1      21.288  36.617  18.419  1.00  0.00     0.036 C
HETATM   12  C22 UNL     1      20.946  35.516  19.355  1.00  0.00     0.066 C
HETATM   13  C23 UNL     1      19.619  34.829  19.235  1.00  0.00     0.047 C
HETATM   14  C24 UNL     1      21.977  34.400  19.339  1.00  0.00     0.043 C
HETATM   15  C25 UNL     1      21.870  33.772  17.996  1.00  0.00     0.044 C
HETATM   16  C26 UNL     1      22.109  34.737  16.854  1.00  0.00     0.005 C
HETATM   17  C33 UNL     1      22.091  36.173  17.191  1.00  0.00     0.003 C
HETATM   18  C34 UNL     1      23.532  36.653  17.151  1.00  0.00     0.021 C
ENDROOT
BRANCH  16  19
HETATM   19  C27 UNL     1      21.376  34.292  15.632  1.00  0.00     0.286 C
HETATM   20  O9  UNL     1      22.080  34.047  14.623  1.00  0.00    -0.260 OA
BRANCH  19  21
HETATM   21  O10 UNL     1      20.033  34.126  15.507  1.00  0.00    -0.314 OA
BRANCH  21  22
HETATM   22  C28 UNL     1      19.231  33.063  15.188  1.00  0.00     0.212 C
BRANCH  22  23
HETATM   23  C29 UNL     1      18.018  32.911  16.013  1.00  0.00    -0.066 C
HETATM   24  C30 UNL     1      17.604  31.656  16.316  1.00  0.00     0.016 C
BRANCH  23  25
HETATM   25  C31 UNL     1      17.181  34.016  16.520  1.00  0.00     0.031 C
HETATM   26  C32 UNL     1      16.429  34.718  15.395  1.00  0.00     0.010 C
ENDBRANCH  23  25
ENDBRANCH  22  23
ENDBRANCH  21  22
ENDBRANCH  19  21
ENDBRANCH  16  19
BRANCH  12  27
HETATM   27  O8  UNL     1      20.876  35.900  20.710  1.00  0.00    -0.389 OA
ATOM     28  H8  UNL     1      20.062  36.321  20.958  1.00  0.00     0.210 HD
ENDBRANCH  12  27
BRANCH   5  29
HETATM   29  C10 UNL     1      21.115  38.829  14.715  1.00  0.00     0.172 C
BRANCH  29  30
HETATM   30  O3  UNL     1      21.694  39.654  13.887  1.00  0.00    -0.396 OA
HETATM   31  C11 UNL     1      22.072  39.546  12.634  1.00  0.00     0.201 C
ENDBRANCH  29  30
ENDBRANCH   5  29
BRANCH  10  32
HETATM   32  O6  UNL     1      23.277  37.578  19.487  1.00  0.00    -0.315 OA
BRANCH  32  33
HETATM   33  C19 UNL     1      23.875  37.340  20.662  1.00  0.00     0.255 C
HETATM   34  C20 UNL     1      25.058  38.203  21.063  1.00  0.00     0.126 C
HETATM   35  O7  UNL     1      23.465  36.434  21.398  1.00  0.00    -0.266 OA
ENDBRANCH  32  33
ENDBRANCH  10  32
BRANCH   2  36
HETATM   36  O2  UNL     1      18.184  37.793  16.798  1.00  0.00    -0.395 OA
ATOM     37  H2  UNL     1      18.627  37.870  15.961  1.00  0.00     0.210 HD
ENDBRANCH   2  36
BRANCH   1  38
HETATM   38  C4  UNL     1      18.094  39.721  19.174  1.00  0.00     0.177 C
BRANCH  38  39
HETATM   39  O1  UNL     1      16.864  39.597  18.529  1.00  0.00    -0.387 OA
BRANCH  39  40
HETATM   40  C3  UNL     1      15.969  38.837  19.281  1.00  0.00     0.194 C
BRANCH  40  41
HETATM   41  C2  UNL     1      15.472  37.658  18.569  1.00  0.00    -0.011 C
HETATM   42  C1  UNL     1      15.829  36.436  18.922  1.00  0.00     0.009 C
ENDBRANCH  40  41
ENDBRANCH  39  40
ENDBRANCH  38  39
ENDBRANCH   1  38
BRANCH   9  43
HETATM   43  O4  UNL     1      20.590  41.125  18.859  1.00  0.00    -0.315 OA
BRANCH  43  44
HETATM   44  C16 UNL     1      20.097  42.073  19.686  1.00  0.00     0.255 C
HETATM   45  C17 UNL     1      20.565  42.152  21.085  1.00  0.00     0.126 C
HETATM   46  O5  UNL     1      19.246  42.886  19.275  1.00  0.00    -0.266 OA
ENDBRANCH  43  44
ENDBRANCH   9  43
TORSDOF 17
ENDMDL