MODEL 3
REMARK VINA RESULT: -8.832530691      2.546     10.502
REMARK  14 active torsions:
REMARK  status: ('A' for Active; 'I' for Inactive)
REMARK    1  A    between atoms: N2_5  and  C4_6
REMARK    2  A    between atoms: C6_8  and  O1_9
REMARK    3  A    between atoms: O1_9  and  C7_10
REMARK    4  A    between atoms: C7_10  and  C8_11
REMARK    5  A    between atoms: C8_11  and  C9_12
REMARK    6  A    between atoms: C9_12  and  C10_13
REMARK    7  A    between atoms: C11_14  and  C12_15
REMARK    8  A    between atoms: C12_15  and  C13_16
REMARK    9  A    between atoms: C13_16  and  C14_17
REMARK   10  A    between atoms: C14_17  and  O2_18
REMARK   11  A    between atoms: O2_18  and  C15_19
REMARK   12  A    between atoms: C15_19  and  O3_20
REMARK   13  A    between atoms: C15_19  and  C16_22
REMARK   14  A    between atoms: C25_34  and  C26_35
ROOT
HETATM    1  N1  UNL     1      22.738  30.355  13.391  1.00  0.00    -0.190 NA
HETATM    2  C1  UNL     1      22.470  30.984  14.339  1.00  0.00     0.119 C
HETATM    3  C2  UNL     1      22.164  31.752  15.510  1.00  0.00     0.130 A
HETATM    4  C3  UNL     1      21.256  32.795  15.608  1.00  0.00     0.133 A
HETATM    5  N2  UNL     1      21.261  33.253  16.868  1.00  0.00    -0.343 N
HETATM    6  C34 UNL     1      22.157  32.518  17.575  1.00  0.00     0.184 A
HETATM    7  N5  UNL     1      22.693  31.619  16.742  1.00  0.00    -0.343 N
ATOM      8  H5  UNL     1      23.400  30.932  17.002  1.00  0.00     0.167 HD
ENDROOT
BRANCH   5   9
HETATM    9  C4  UNL     1      20.491  34.323  17.464  1.00  0.00     0.118 C
HETATM   10  C5  UNL     1      19.103  34.418  16.843  1.00  0.00     0.069 C
HETATM   11  C6  UNL     1      18.267  35.252  17.834  1.00  0.00     0.215 C
HETATM   12  C23 UNL     1      18.960  36.544  17.981  1.00  0.00     0.256 C
HETATM   13  O4  UNL     1      18.307  37.624  18.119  1.00  0.00    -0.270 OA
HETATM   14  N3  UNL     1      20.377  36.652  17.974  1.00  0.00    -0.276 N
HETATM   15  C24 UNL     1      21.002  37.740  18.656  1.00  0.00     0.258 C
HETATM   16  C33 UNL     1      21.142  35.663  17.267  1.00  0.00     0.145 C
HETATM   17  O5  UNL     1      20.311  38.681  19.110  1.00  0.00    -0.271 OA
HETATM   18  C25 UNL     1      22.446  37.724  18.807  1.00  0.00     0.281 C
HETATM   19  N4  UNL     1      23.035  37.037  17.642  1.00  0.00    -0.060 N
HETATM   20  C32 UNL     1      22.594  35.660  17.707  1.00  0.00     0.261 C
ATOM     21  H42 UNL     1      22.816  37.490  16.754  1.00  0.00     0.278 HD
ATOM     22  H41 UNL     1      24.050  37.134  17.587  1.00  0.00     0.278 HD
BRANCH  11  23
HETATM   23  O1  UNL     1      16.991  35.383  17.508  1.00  0.00    -0.376 OA
BRANCH  23  24
HETATM   24  C7  UNL     1      15.968  34.806  18.140  1.00  0.00     0.169 C
BRANCH  24  25
HETATM   25  C8  UNL     1      15.234  33.655  17.616  1.00  0.00     0.030 C
BRANCH  25  26
HETATM   26  C9  UNL     1      15.587  33.366  16.148  1.00  0.00     0.029 C
BRANCH  26  27
HETATM   27  C10 UNL     1      15.632  31.877  16.055  1.00  0.00    -0.031 C
HETATM   28  C11 UNL     1      16.846  31.109  16.225  1.00  0.00    -0.031 C
BRANCH  28  29
HETATM   29  C12 UNL     1      18.002  31.212  15.348  1.00  0.00     0.029 C
BRANCH  29  30
HETATM   30  C13 UNL     1      17.757  31.532  13.929  1.00  0.00     0.030 C
BRANCH  30  31
HETATM   31  C14 UNL     1      19.053  31.335  13.131  1.00  0.00     0.171 C
BRANCH  31  32
HETATM   32  O2  UNL     1      19.071  30.290  12.284  1.00  0.00    -0.360 OA
BRANCH  32  33
HETATM   33  C15 UNL     1      19.569  29.095  12.689  1.00  0.00     0.273 C
BRANCH  33  34
HETATM   34  O3  UNL     1      20.677  28.689  11.912  1.00  0.00    -0.370 OA
ATOM     35  H3  UNL     1      20.888  27.772  12.040  1.00  0.00     0.212 HD
ENDBRANCH  33  34
BRANCH  33  36
HETATM   36  C16 UNL     1      18.618  27.925  12.673  1.00  0.00     0.051 A
HETATM   37  C17 UNL     1      17.756  27.774  13.845  1.00  0.00    -0.004 A
HETATM   38  C18 UNL     1      17.196  28.136  12.698  1.00  0.00    -0.065 A
HETATM   39  C19 UNL     1      16.534  28.551  11.401  1.00  0.00     0.035 C
HETATM   40  C20 UNL     1      17.391  28.016  10.256  1.00  0.00     0.004 C
HETATM   41  C21 UNL     1      17.821  26.617  10.707  1.00  0.00     0.002 C
HETATM   42  C22 UNL     1      18.903  26.735  11.775  1.00  0.00     0.023 C
ENDBRANCH  33  36
ENDBRANCH  32  33
ENDBRANCH  31  32
ENDBRANCH  30  31
ENDBRANCH  29  30
ENDBRANCH  28  29
ENDBRANCH  26  27
ENDBRANCH  25  26
ENDBRANCH  24  25
ENDBRANCH  23  24
ENDBRANCH  11  23
BRANCH  18  43
HETATM   43  C26 UNL     1      23.141  39.045  18.902  1.00  0.00     0.026 C
HETATM   44  C27 UNL     1      23.453  39.504  17.457  1.00  0.00     0.007 C
HETATM   45  C28 UNL     1      23.983  40.899  17.453  1.00  0.00     0.000 C
HETATM   46  C29 UNL     1      25.135  41.087  18.419  1.00  0.00     0.000 C
HETATM   47  C30 UNL     1      24.816  40.550  19.786  1.00  0.00     0.000 C
HETATM   48  C31 UNL     1      24.440  39.065  19.623  1.00  0.00     0.007 C
ENDBRANCH  18  43
ENDBRANCH   5   9
TORSDOF 14
ENDMDL