MODEL 4
REMARK VINA RESULT: -7.559615258      2.906      5.744
REMARK  14 active torsions:
REMARK  status: ('A' for Active; 'I' for Inactive)
REMARK    1  A    between atoms: C2_2  and  C4_4
REMARK    2  A    between atoms: C4_4  and  C5_5
REMARK    3  A    between atoms: C5_5  and  C6_6
REMARK    4  A    between atoms: C8_9  and  C9_10
REMARK    5  A    between atoms: C8_9  and  C14_17
REMARK    6  A    between atoms: C10_11  and  C11_12
REMARK    7  A    between atoms: C11_12  and  O3_14
REMARK    8  A    between atoms: O3_14  and  C12_15
REMARK    9  A    between atoms: C14_17  and  C15_18
REMARK   10  A    between atoms: C17_22  and  C18_23
REMARK   11  A    between atoms: C17_22  and  O6_25
REMARK   12  A    between atoms: O6_25  and  C20_26
REMARK   13  A    between atoms: C20_26  and  C21_27
REMARK       I    between atoms: C21_27  and  N1_29
REMARK   14  A    between atoms: N1_29  and  C22_31
ROOT
HETATM    1  C6  UNL     1      20.513  29.561  13.349  1.00  0.00     0.170 C
HETATM    2  C7  UNL     1      20.446  30.196  14.778  1.00  0.00     0.293 C
HETATM    3  O1  UNL     1      19.736  31.348  14.802  1.00  0.00    -0.344 OA
HETATM    4  C8  UNL     1      18.437  31.181  14.487  1.00  0.00     0.094 C
HETATM    5  C16 UNL     1      18.093  30.258  13.403  1.00  0.00     0.083 C
HETATM    6  C17 UNL     1      19.119  29.162  13.051  1.00  0.00     0.092 C
HETATM    7  O8  UNL     1      21.826  30.473  15.015  1.00  0.00    -0.323 OA
HETATM    8  C28 UNL     1      22.114  31.782  14.663  1.00  0.00     0.177 C
HETATM    9  C29 UNL     1      23.598  31.881  14.415  1.00  0.00     0.080 C
HETATM   10  C30 UNL     1      21.818  32.774  15.766  1.00  0.00     0.080 C
HETATM   11  O9  UNL     1      21.473  32.228  13.522  1.00  0.00    -0.236 OA
HETATM   12  S1  UNL     1      21.067  31.008  12.441  1.00  0.00     0.284 S
HETATM   13  O10 UNL     1      22.229  30.723  11.539  1.00  0.00    -0.197 OA
HETATM   14  O11 UNL     1      19.991  31.531  11.550  1.00  0.00    -0.197 OA
ENDROOT
BRANCH   6  15
HETATM   15  C18 UNL     1      18.508  27.953  13.622  1.00  0.00     0.036 C
HETATM   16  C19 UNL     1      17.071  27.736  13.765  1.00  0.00     0.008 C
ENDBRANCH   6  15
BRANCH   6  17
HETATM   17  O6  UNL     1      19.124  28.991  11.651  1.00  0.00    -0.369 OA
BRANCH  17  18
HETATM   18  C20 UNL     1      19.296  27.776  11.144  1.00  0.00     0.271 C
BRANCH  18  19
HETATM   19  C21 UNL     1      18.307  27.583  10.025  1.00  0.00     0.241 C
HETATM   20  O7  UNL     1      17.161  28.042  10.130  1.00  0.00    -0.271 OA
HETATM   21  N1  UNL     1      18.682  26.876   8.842  1.00  0.00    -0.355 N
ATOM     22  H1  UNL     1      19.626  26.502   8.754  1.00  0.00     0.162 HD
BRANCH  21  23
HETATM   23  C22 UNL     1      17.731  26.688   7.768  1.00  0.00     0.084 C
HETATM   24  C23 UNL     1      17.310  25.234   7.783  1.00  0.00     0.025 C
HETATM   25  C24 UNL     1      18.466  24.381   7.306  1.00  0.00     0.002 C
HETATM   26  C25 UNL     1      18.700  24.748   5.843  1.00  0.00     0.000 C
HETATM   27  C26 UNL     1      19.247  26.152   5.829  1.00  0.00     0.002 C
HETATM   28  C27 UNL     1      18.305  27.133   6.454  1.00  0.00     0.025 C
ENDBRANCH  21  23
ENDBRANCH  18  19
ENDBRANCH  17  18
ENDBRANCH   6  17
BRANCH   1  29
HETATM   29  C5  UNL     1      21.587  28.566  13.446  1.00  0.00     0.040 C
BRANCH  29  30
HETATM   30  C4  UNL     1      22.700  28.543  12.454  1.00  0.00     0.035 C
BRANCH  30  31
HETATM   31  C2  UNL     1      23.013  27.104  12.145  1.00  0.00    -0.093 C
HETATM   32  C1  UNL     1      22.131  26.137  12.026  1.00  0.00     0.014 C
HETATM   33  C3  UNL     1      24.451  26.781  11.951  1.00  0.00     0.042 C
ENDBRANCH  30  31
ENDBRANCH  29  30
ENDBRANCH   1  29
BRANCH   4  34
HETATM   34  C9  UNL     1      17.814  32.564  14.189  1.00  0.00     0.018 C
HETATM   35  C10 UNL     1      17.125  33.135  15.128  1.00  0.00     0.081 C
BRANCH  35  36
HETATM   36  C11 UNL     1      16.520  34.439  14.886  1.00  0.00     0.282 C
HETATM   37  O2  UNL     1      16.339  34.851  13.718  1.00  0.00    -0.260 OA
BRANCH  36  38
HETATM   38  O3  UNL     1      16.125  35.265  15.932  1.00  0.00    -0.319 OA
BRANCH  38  39
HETATM   39  C12 UNL     1      15.957  34.851  17.251  1.00  0.00     0.174 C
HETATM   40  C13 UNL     1      14.506  34.928  17.638  1.00  0.00     0.034 C
ENDBRANCH  38  39
ENDBRANCH  36  38
ENDBRANCH  35  36
ENDBRANCH   4  34
BRANCH   4  41
HETATM   41  C14 UNL     1      17.663  30.806  15.751  1.00  0.00     0.155 C
BRANCH  41  42
HETATM   42  C15 UNL     1      18.427  30.987  16.990  1.00  0.00     0.175 C
HETATM   43  O4  UNL     1      19.053  30.043  17.499  1.00  0.00    -0.648 OA
HETATM   44  O5  UNL     1      18.445  32.219  17.588  1.00  0.00    -0.648 OA
ENDBRANCH  41  42
ENDBRANCH   4  41
TORSDOF 14
ENDMDL