MODEL 5
REMARK VINA RESULT: -9.234051223      2.844     10.967
REMARK  15 active torsions:
REMARK  status: ('A' for Active; 'I' for Inactive)
REMARK    1  A    between atoms: O1_2  and  N1_3
REMARK    2  A    between atoms: C2_5  and  C3_6
REMARK    3  A    between atoms: C2_5  and  N4_31
REMARK    4  A    between atoms: C3_6  and  C4_7
REMARK    5  A    between atoms: C4_7  and  C5_8
REMARK    6  A    between atoms: C5_8  and  C6_9
REMARK    7  A    between atoms: C6_9  and  C7_10
REMARK    8  A    between atoms: C7_10  and  N2_11
REMARK    9  A    between atoms: N2_11  and  C8_12
REMARK   10  A    between atoms: N4_31  and  C23_33
REMARK   11  A    between atoms: C23_33  and  C24_34
REMARK   12  A    between atoms: C24_34  and  C25_35
REMARK   13  A    between atoms: C27_37  and  O4_38
REMARK   14  A    between atoms: C29_40  and  O5_41
REMARK   15  A    between atoms: C31_43  and  O6_44
ROOT
HETATM    1  C4  UNL     1      19.203  30.955  13.269  1.00  0.00     0.008 C
ENDROOT
BRANCH   1   2
HETATM    2  C3  UNL     1      20.620  31.426  13.176  1.00  0.00     0.078 C
BRANCH   2   3
HETATM    3  C2  UNL     1      21.483  30.751  14.152  1.00  0.00     0.097 C
HETATM    4  N1  UNL     1      22.625  31.115  14.476  1.00  0.00    -0.255 N
ATOM      5  H1  UNL     1      23.042  30.498  15.171  1.00  0.00     0.195 HD
BRANCH   4   6
HETATM    6  O1  UNL     1      23.434  32.105  14.142  1.00  0.00    -0.284 OA
HETATM    7  C1  UNL     1      24.247  32.749  15.107  1.00  0.00     0.237 C
ENDBRANCH   4   6
BRANCH   3   8
HETATM    8  N4  UNL     1      20.881  29.585  14.792  1.00  0.00    -0.378 N
ATOM      9  H4  UNL     1      20.149  29.743  15.484  1.00  0.00     0.160 HD
BRANCH   8  10
HETATM   10  C23 UNL     1      21.252  28.249  14.511  1.00  0.00     0.125 C
BRANCH  10  11
HETATM   11  C24 UNL     1      21.905  27.974  13.195  1.00  0.00     0.058 C
BRANCH  11  12
HETATM   12  C25 UNL     1      21.082  27.140  12.276  1.00  0.00    -0.051 A
HETATM   13  C26 UNL     1      21.569  26.065  11.576  1.00  0.00     0.047 A
HETATM   14  C27 UNL     1      20.799  25.285  10.733  1.00  0.00     0.104 A
HETATM   15  C29 UNL     1      19.483  25.610  10.596  1.00  0.00     0.135 A
HETATM   16  C31 UNL     1      18.942  26.703  11.293  1.00  0.00     0.104 A
HETATM   17  C33 UNL     1      19.729  27.453  12.118  1.00  0.00     0.047 A
BRANCH  14  18
HETATM   18  O4  UNL     1      21.360  24.213  10.058  1.00  0.00    -0.353 OA
HETATM   19  C28 UNL     1      22.376  24.452   9.126  1.00  0.00     0.210 C
ENDBRANCH  14  18
BRANCH  15  20
HETATM   20  O5  UNL     1      18.684  24.847   9.759  1.00  0.00    -0.351 OA
HETATM   21  C30 UNL     1      18.614  25.233   8.389  1.00  0.00     0.210 C
ENDBRANCH  15  20
BRANCH  16  22
HETATM   22  O6  UNL     1      17.593  26.940  11.077  1.00  0.00    -0.353 OA
HETATM   23  C32 UNL     1      17.183  28.231  10.693  1.00  0.00     0.210 C
ENDBRANCH  16  22
ENDBRANCH  11  12
ENDBRANCH  10  11
ENDBRANCH   8  10
ENDBRANCH   3   8
ENDBRANCH   2   3
ENDBRANCH   1   2
BRANCH   1  24
HETATM   24  C5  UNL     1      18.343  31.960  14.041  1.00  0.00     0.003 C
BRANCH  24  25
HETATM   25  C6  UNL     1      17.640  31.320  15.196  1.00  0.00     0.033 C
BRANCH  25  26
HETATM   26  C7  UNL     1      18.394  31.602  16.507  1.00  0.00     0.218 C
BRANCH  26  27
HETATM   27  N2  UNL     1      18.404  32.877  16.856  1.00  0.00    -0.446 NA
BRANCH  27  28
HETATM   28  C8  UNL     1      18.394  34.033  17.230  1.00  0.00     0.136 A
HETATM   29  C9  UNL     1      19.537  34.807  17.369  1.00  0.00     0.123 A
HETATM   30  C10 UNL     1      19.508  36.111  17.789  1.00  0.00     0.045 A
HETATM   31  S1  UNL     1      21.174  34.393  16.943  1.00  0.00     0.181 S
HETATM   32  N3  UNL     1      18.282  36.690  18.077  1.00  0.00    -0.351 N
HETATM   33  C19 UNL     1      20.831  36.612  18.011  1.00  0.00     0.010 C
HETATM   34  C11 UNL     1      18.192  38.084  18.255  1.00  0.00     0.156 C
HETATM   35  C12 UNL     1      17.139  35.985  17.969  1.00  0.00     0.054 A
HETATM   36  C13 UNL     1      15.932  36.573  18.319  1.00  0.00    -0.034 A
HETATM   37  C18 UNL     1      17.170  34.658  17.545  1.00  0.00     0.033 A
HETATM   38  C14 UNL     1      15.810  37.885  18.917  1.00  0.00     0.050 C
HETATM   39  C15 UNL     1      14.783  35.746  18.193  1.00  0.00     0.009 A
HETATM   40  C16 UNL     1      14.822  34.453  17.766  1.00  0.00     0.002 A
HETATM   41  C17 UNL     1      16.016  33.902  17.441  1.00  0.00     0.017 A
HETATM   42  C20 UNL     1      21.205  37.967  18.394  1.00  0.00     0.022 C
HETATM   43  C21 UNL     1      21.332  35.767  19.250  1.00  0.00     0.022 C
HETATM   44  C22 UNL     1      21.768  36.099  16.879  1.00  0.00     0.161 C
HETATM   45  O2  UNL     1      21.904  33.561  17.896  1.00  0.00    -0.222 OA
HETATM   46  O3  UNL     1      21.262  33.891  15.523  1.00  0.00    -0.222 OA
ENDBRANCH  27  28
ENDBRANCH  26  27
ENDBRANCH  25  26
ENDBRANCH  24  25
ENDBRANCH   1  24
TORSDOF 15
ENDMDL