MODEL 2
REMARK VINA RESULT: -8.526958062      0.920      1.827
REMARK  15 active torsions:
REMARK  status: ('A' for Active; 'I' for Inactive)
REMARK    1  A    between atoms: O1_2  and  C2_3
REMARK    2  A    between atoms: C4_5  and  C5_6
REMARK    3  A    between atoms: C5_6  and  C7_8
REMARK    4  A    between atoms: C5_6  and  N2_26
REMARK    5  A    between atoms: C7_8  and  N1_9
REMARK    6  A    between atoms: N1_9  and  C8_11
REMARK    7  A    between atoms: C8_11  and  O2_12
REMARK    8  A    between atoms: C8_11  and  C9_14
REMARK    9  A    between atoms: C12_17  and  O3_18
REMARK   10  A    between atoms: C14_20  and  O4_21
REMARK   11  A    between atoms: C16_23  and  O5_24
REMARK   12  A    between atoms: N2_26  and  S1_28
REMARK   13  A    between atoms: S1_28  and  C18_31
REMARK   14  A    between atoms: C28_41  and  O8_42
REMARK   15  A    between atoms: C30_44  and  O9_45
ROOT
HETATM    1  C5  UNL     1      21.544  34.252  17.138  1.00  0.00     0.080 C
HETATM    2  C6  UNL     1      21.679  34.779  15.713  1.00  0.00     0.046 C
ENDROOT
BRANCH   1   3
HETATM    3  C4  UNL     1      22.133  35.332  18.039  1.00  0.00    -0.023 A
HETATM    4  C3  UNL     1      22.393  36.574  17.456  1.00  0.00     0.049 A
HETATM    5  C2  UNL     1      22.921  37.619  18.156  1.00  0.00     0.104 A
HETATM    6  C30 UNL     1      23.207  37.430  19.498  1.00  0.00     0.135 A
HETATM    7  C28 UNL     1      22.970  36.233  20.110  1.00  0.00     0.104 A
HETATM    8  C27 UNL     1      22.424  35.188  19.351  1.00  0.00     0.049 A
BRANCH   5   9
HETATM    9  O1  UNL     1      23.176  38.865  17.559  1.00  0.00    -0.353 OA
HETATM   10  C1  UNL     1      22.053  39.625  17.094  1.00  0.00     0.210 C
ENDBRANCH   5   9
BRANCH   6  11
HETATM   11  O9  UNL     1      23.753  38.538  20.182  1.00  0.00    -0.351 OA
HETATM   12  C31 UNL     1      25.184  38.645  20.098  1.00  0.00     0.210 C
ENDBRANCH   6  11
BRANCH   7  13
HETATM   13  O8  UNL     1      23.258  36.050  21.441  1.00  0.00    -0.353 OA
HETATM   14  C29 UNL     1      24.491  35.478  21.809  1.00  0.00     0.210 C
ENDBRANCH   7  13
ENDBRANCH   1   3
BRANCH   1  15
HETATM   15  C7  UNL     1      22.439  33.053  17.219  1.00  0.00     0.158 C
BRANCH  15  16
HETATM   16  N1  UNL     1      21.847  31.800  16.784  1.00  0.00    -0.367 N
ATOM     17  H1  UNL     1      21.295  31.224  17.418  1.00  0.00     0.161 HD
BRANCH  16  18
HETATM   18  C8  UNL     1      22.069  31.418  15.453  1.00  0.00     0.149 C
BRANCH  18  19
HETATM   19  O2  UNL     1      23.309  31.507  15.018  1.00  0.00    -0.346 OA
ATOM     20  H2  UNL     1      23.490  32.209  14.403  1.00  0.00     0.219 HD
ENDBRANCH  18  19
BRANCH  18  21
HETATM   21  C9  UNL     1      21.138  30.925  14.462  1.00  0.00     0.051 A
HETATM   22  C10 UNL     1      20.064  31.791  14.112  1.00  0.00     0.021 A
HETATM   23  C11 UNL     1      19.095  31.318  13.264  1.00  0.00     0.041 A
HETATM   24  C12 UNL     1      19.131  30.034  12.746  1.00  0.00     0.104 A
HETATM   25  C14 UNL     1      20.171  29.194  13.082  1.00  0.00     0.136 A
HETATM   26  C16 UNL     1      21.159  29.660  13.934  1.00  0.00     0.118 A
BRANCH  24  27
HETATM   27  O3  UNL     1      18.105  29.637  11.895  1.00  0.00    -0.353 OA
HETATM   28  C13 UNL     1      17.040  28.833  12.360  1.00  0.00     0.210 C
ENDBRANCH  24  27
BRANCH  25  29
HETATM   29  O4  UNL     1      20.231  27.920  12.587  1.00  0.00    -0.351 OA
HETATM   30  C15 UNL     1      20.549  27.709  11.228  1.00  0.00     0.210 C
ENDBRANCH  25  29
BRANCH  26  31
HETATM   31  O5  UNL     1      22.174  28.778  14.213  1.00  0.00    -0.352 OA
HETATM   32  C17 UNL     1      23.233  28.542  13.273  1.00  0.00     0.210 C
ENDBRANCH  26  31
ENDBRANCH  18  21
ENDBRANCH  16  18
ENDBRANCH  15  16
ENDBRANCH   1  15
BRANCH   1  33
HETATM   33  N2  UNL     1      20.280  33.888  17.582  1.00  0.00    -0.300 N
ATOM     34  H2  UNL     1      20.098  32.885  17.590  1.00  0.00     0.173 HD
BRANCH  33  35
HETATM   35  S1  UNL     1      19.037  34.818  18.096  1.00  0.00     0.260 S
HETATM   36  O6  UNL     1      18.992  34.876  19.640  1.00  0.00    -0.200 OA
HETATM   37  O7  UNL     1      19.088  36.280  17.650  1.00  0.00    -0.200 OA
BRANCH  35  38
HETATM   38  C18 UNL     1      17.468  34.278  17.575  1.00  0.00     0.086 A
HETATM   39  C19 UNL     1      17.402  33.116  16.809  1.00  0.00     0.032 A
HETATM   40  C20 UNL     1      16.224  32.590  16.319  1.00  0.00    -0.060 A
HETATM   41  C21 UNL     1      16.187  31.343  15.503  1.00  0.00     0.048 C
HETATM   42  C22 UNL     1      15.051  33.230  16.586  1.00  0.00     0.014 A
HETATM   43  C23 UNL     1      15.078  34.364  17.329  1.00  0.00    -0.054 A
HETATM   44  C24 UNL     1      13.802  35.069  17.622  1.00  0.00     0.049 C
HETATM   45  C25 UNL     1      16.285  34.892  17.827  1.00  0.00    -0.033 A
HETATM   46  C26 UNL     1      16.206  36.116  18.652  1.00  0.00     0.050 C
ENDBRANCH  35  38
ENDBRANCH  33  35
ENDBRANCH   1  33
TORSDOF 15
ENDMDL