MODEL 4
REMARK VINA RESULT: -8.756390718      1.141      1.751
REMARK  15 active torsions:
REMARK  status: ('A' for Active; 'I' for Inactive)
REMARK    1  A    between atoms: C2_2  and  C3_3
REMARK    2  A    between atoms: C3_3  and  N1_4
REMARK       I    between atoms: N2_7  and  C6_8
REMARK    3  A    between atoms: C6_8  and  C7_10
REMARK    4  A    between atoms: C7_10  and  C8_11
REMARK    5  A    between atoms: C8_11  and  C9_12
REMARK    6  A    between atoms: C9_12  and  C10_13
REMARK       I    between atoms: N4_18  and  C14_19
REMARK    7  A    between atoms: C14_19  and  O3_21
REMARK    8  A    between atoms: O3_21  and  C15_22
REMARK    9  A    between atoms: C15_22  and  C16_23
REMARK   10  A    between atoms: C20_27  and  O4_28
REMARK   11  A    between atoms: O4_28  and  C21_29
REMARK   12  A    between atoms: C26_34  and  O5_35
REMARK   13  A    between atoms: C30_39  and  C31_40
REMARK   14  A    between atoms: C31_40  and  O6_41
REMARK   15  A    between atoms: N5_43  and  O7_45
ROOT
HETATM    1  C10 UNL     1      21.866  31.717  16.000  1.00  0.00     0.125 C
HETATM    2  C11 UNL     1      23.001  32.070  15.160  1.00  0.00     0.059 C
HETATM    3  N3  UNL     1      23.907  32.368  14.508  1.00  0.00    -0.197 NA
ENDROOT
BRANCH   1   4
HETATM    4  C9  UNL     1      20.535  31.929  15.502  1.00  0.00     0.028 C
BRANCH   4   5
HETATM    5  C8  UNL     1      19.388  31.040  15.487  1.00  0.00    -0.014 C
HETATM    6  C12 UNL     1      18.518  31.334  14.251  1.00  0.00     0.033 C
HETATM    7  C13 UNL     1      17.956  32.711  14.237  1.00  0.00     0.129 C
HETATM    8  N4  UNL     1      17.135  32.898  15.417  1.00  0.00    -0.328 N
HETATM    9  C14 UNL     1      16.401  34.071  15.702  1.00  0.00     0.363 C
HETATM   10  C28 UNL     1      17.105  31.778  16.322  1.00  0.00     0.129 C
HETATM   11  O2  UNL     1      16.429  35.066  14.887  1.00  0.00    -0.238 OA
HETATM   12  C29 UNL     1      18.512  31.481  16.701  1.00  0.00     0.033 C
BRANCH   5  13
HETATM   13  C7  UNL     1      19.522  29.582  15.626  1.00  0.00     0.057 C
BRANCH  13  14
HETATM   14  C6  UNL     1      19.257  28.665  14.528  1.00  0.00     0.241 C
HETATM   15  N2  UNL     1      20.358  28.175  13.717  1.00  0.00    -0.333 N
HETATM   16  C5  UNL     1      21.732  28.535  13.936  1.00  0.00     0.157 C
HETATM   17  C30 UNL     1      20.095  27.274  12.621  1.00  0.00     0.192 C
HETATM   18  C4  UNL     1      22.311  29.051  12.633  1.00  0.00     0.292 C
HETATM   19  N1  UNL     1      22.070  28.174  11.533  1.00  0.00     0.095 N
HETATM   20  C32 UNL     1      21.398  26.960  11.890  1.00  0.00     0.306 C
HETATM   21  O1  UNL     1      18.149  28.223  14.176  1.00  0.00    -0.269 OA
BRANCH  19  22
HETATM   22  C3  UNL     1      23.239  27.840  10.781  1.00  0.00     0.299 C
BRANCH  22  23
HETATM   23  C2  UNL     1      24.357  27.447  11.692  1.00  0.00    -0.007 C
HETATM   24  C1  UNL     1      25.016  26.327  11.524  1.00  0.00     0.008 C
ENDBRANCH  22  23
ENDBRANCH  19  22
BRANCH  17  25
HETATM   25  C31 UNL     1      19.042  27.705  11.703  1.00  0.00     0.160 C
HETATM   26  N5  UNL     1      18.245  26.875  11.125  1.00  0.00    -0.249 N
ATOM     27  H5  UNL     1      18.352  25.879  11.313  1.00  0.00     0.196 HD
BRANCH  25  28
HETATM   28  O6  UNL     1      18.883  29.055  11.436  1.00  0.00    -0.347 OA
ATOM     29  H6  UNL     1      18.104  29.504  11.745  1.00  0.00     0.219 HD
ENDBRANCH  25  28
BRANCH  26  30
HETATM   30  O7  UNL     1      17.270  27.279  10.275  1.00  0.00    -0.288 OA
ATOM     31  H7  UNL     1      16.406  27.533  10.578  1.00  0.00     0.244 HD
ENDBRANCH  26  30
ENDBRANCH  17  25
ENDBRANCH  13  14
ENDBRANCH   5  13
BRANCH   9  32
HETATM   32  O3  UNL     1      15.626  34.237  16.833  1.00  0.00    -0.299 OA
BRANCH  32  33
HETATM   33  C15 UNL     1      16.029  34.658  18.079  1.00  0.00     0.222 C
BRANCH  33  34
HETATM   34  C16 UNL     1      16.587  36.034  18.130  1.00  0.00     0.002 A
HETATM   35  C17 UNL     1      15.814  37.143  17.921  1.00  0.00     0.012 A
HETATM   36  C18 UNL     1      16.338  38.417  18.024  1.00  0.00     0.003 A
HETATM   37  C19 UNL     1      17.636  38.614  18.337  1.00  0.00     0.040 A
HETATM   38  C20 UNL     1      18.455  37.479  18.560  1.00  0.00     0.103 A
HETATM   39  C26 UNL     1      17.930  36.230  18.453  1.00  0.00     0.110 A
BRANCH  38  40
HETATM   40  O4  UNL     1      19.738  37.805  18.872  1.00  0.00    -0.343 OA
BRANCH  40  41
HETATM   41  C21 UNL     1      20.886  37.898  18.178  1.00  0.00     0.129 C
HETATM   42  C22 UNL     1      22.062  37.161  18.874  1.00  0.00     0.032 C
HETATM   43  C23 UNL     1      23.200  37.604  17.971  1.00  0.00     0.002 C
HETATM   44  C24 UNL     1      22.851  39.046  17.586  1.00  0.00     0.002 C
HETATM   45  C25 UNL     1      21.501  39.321  18.212  1.00  0.00     0.032 C
ENDBRANCH  40  41
ENDBRANCH  38  40
BRANCH  39  46
HETATM   46  O5  UNL     1      18.680  35.073  18.652  1.00  0.00    -0.352 OA
HETATM   47  C27 UNL     1      19.605  34.643  17.619  1.00  0.00     0.210 C
ENDBRANCH  39  46
ENDBRANCH  33  34
ENDBRANCH  32  33
ENDBRANCH   9  32
ENDBRANCH   4   5
ENDBRANCH   1   4
TORSDOF 15
ENDMDL