MODEL 1
REMARK VINA RESULT: -8.870679467      0.000      0.000
REMARK  18 active torsions:
REMARK  status: ('A' for Active; 'I' for Inactive)
REMARK    1  A    between atoms: O1_2  and  C2_3
REMARK       I    between atoms: C2_3  and  N1_5
REMARK    2  A    between atoms: N1_5  and  C3_6
REMARK    3  A    between atoms: N1_5  and  C6_9
REMARK    4  A    between atoms: C6_9  and  C7_10
REMARK    5  A    between atoms: C6_9  and  O6_27
REMARK    6  A    between atoms: C8_11  and  C9_12
REMARK    7  A    between atoms: C10_13  and  N2_14
REMARK       I    between atoms: N2_14  and  C11_16
REMARK    8  A    between atoms: O6_27  and  C16_28
REMARK    9  A    between atoms: C16_28  and  C17_30
REMARK   10  A    between atoms: C17_30  and  C18_31
REMARK   11  A    between atoms: C18_31  and  C19_32
REMARK   12  A    between atoms: C19_32  and  C20_33
REMARK   13  A    between atoms: C19_32  and  C27_40
REMARK   14  A    between atoms: C20_33  and  C21_34
REMARK   15  A    between atoms: C21_34  and  C22_35
REMARK   16  A    between atoms: C22_35  and  C23_36
REMARK   17  A    between atoms: C27_40  and  C28_41
REMARK   18  A    between atoms: C28_41  and  C29_43
ROOT
HETATM    1  C6  UNL     1      18.643  29.803  13.803  1.00  0.00     0.320 C
ENDROOT
BRANCH   1   2
HETATM    2  N1  UNL     1      20.091  30.040  13.676  1.00  0.00    -0.286 N
HETATM    3  C2  UNL     1      20.584  31.076  12.866  1.00  0.00     0.365 C
HETATM    4  O2  UNL     1      19.750  31.800  12.243  1.00  0.00    -0.238 OA
BRANCH   3   5
HETATM    5  O1  UNL     1      21.926  31.361  12.703  1.00  0.00    -0.309 OA
HETATM    6  C1  UNL     1      22.554  32.192  13.659  1.00  0.00     0.215 C
ENDBRANCH   3   5
BRANCH   2   7
HETATM    7  C3  UNL     1      20.983  29.185  14.407  1.00  0.00     0.084 C
HETATM    8  C4  UNL     1      20.220  28.319  15.408  1.00  0.00     0.032 C
HETATM    9  C5  UNL     1      21.607  28.245  13.367  1.00  0.00     0.032 C
ENDBRANCH   2   7
ENDBRANCH   1   2
BRANCH   1  10
HETATM   10  C7  UNL     1      18.071  30.816  14.682  1.00  0.00    -0.046 C
HETATM   11  C8  UNL     1      17.622  31.652  15.425  1.00  0.00    -0.053 C
BRANCH  11  12
HETATM   12  C9  UNL     1      17.100  32.640  16.347  1.00  0.00     0.130 A
HETATM   13  C10 UNL     1      17.968  33.301  17.266  1.00  0.00     0.138 A
HETATM   14  N3  UNL     1      17.382  34.184  18.065  1.00  0.00    -0.288 N
HETATM   15  C13 UNL     1      18.161  34.973  18.992  1.00  0.00     0.163 C
HETATM   16  C14 UNL     1      16.051  34.472  18.052  1.00  0.00     0.330 A
HETATM   17  O4  UNL     1      15.566  35.322  18.845  1.00  0.00    -0.246 OA
HETATM   18  N4  UNL     1      15.264  33.840  17.186  1.00  0.00    -0.274 N
HETATM   19  C15 UNL     1      15.777  32.941  16.350  1.00  0.00     0.272 A
ATOM     20  H4  UNL     1      14.265  34.046  17.162  1.00  0.00     0.173 HD
HETATM   21  O5  UNL     1      14.992  32.358  15.535  1.00  0.00    -0.266 OA
BRANCH  13  22
HETATM   22  N2  UNL     1      19.316  32.964  17.179  1.00  0.00    -0.312 N
HETATM   23  C11 UNL     1      20.508  33.445  16.683  1.00  0.00     0.219 C
HETATM   24  C12 UNL     1      21.761  32.517  16.771  1.00  0.00     0.117 C
HETATM   25  O3  UNL     1      20.817  34.518  16.149  1.00  0.00    -0.274 OA
ATOM     26  H2  UNL     1      19.473  32.065  17.634  1.00  0.00     0.170 HD
ENDBRANCH  13  22
ENDBRANCH  11  12
ENDBRANCH   1  10
BRANCH   1  27
HETATM   27  O6  UNL     1      18.085  29.871  12.503  1.00  0.00    -0.284 OA
BRANCH  27  28
HETATM   28  C16 UNL     1      17.680  28.718  11.816  1.00  0.00     0.261 C
HETATM   29  O7  UNL     1      16.969  28.877  10.807  1.00  0.00    -0.265 OA
BRANCH  28  30
HETATM   30  C17 UNL     1      18.116  27.367  12.325  1.00  0.00     0.111 C
BRANCH  30  31
HETATM   31  C18 UNL     1      17.592  26.354  11.328  1.00  0.00     0.015 C
BRANCH  31  32
HETATM   32  C19 UNL     1      18.678  25.657  10.581  1.00  0.00    -0.007 C
BRANCH  32  33
HETATM   33  C20 UNL     1      19.934  25.700  11.401  1.00  0.00     0.005 C
BRANCH  33  34
HETATM   34  C21 UNL     1      20.819  24.511  11.292  1.00  0.00     0.004 C
BRANCH  34  35
HETATM   35  C22 UNL     1      22.099  24.746  10.532  1.00  0.00     0.027 C
BRANCH  35  36
HETATM   36  C23 UNL     1      23.112  25.445  11.394  1.00  0.00    -0.025 C
HETATM   37  C24 UNL     1      24.153  26.076  10.869  1.00  0.00    -0.091 C
HETATM   38  C25 UNL     1      25.112  26.743  11.780  1.00  0.00     0.042 C
HETATM   39  C26 UNL     1      24.315  26.091   9.402  1.00  0.00     0.042 C
ENDBRANCH  35  36
ENDBRANCH  34  35
ENDBRANCH  33  34
ENDBRANCH  32  33
BRANCH  32  40
HETATM   40  C27 UNL     1      18.830  26.205   9.214  1.00  0.00     0.083 C
BRANCH  40  41
HETATM   41  C28 UNL     1      18.362  25.272   8.161  1.00  0.00     0.134 C
HETATM   42  O8  UNL     1      17.941  24.149   8.375  1.00  0.00    -0.297 OA
BRANCH  41  43
HETATM   43  C29 UNL     1      18.384  25.677   6.719  1.00  0.00     0.009 C
HETATM   44  C30 UNL     1      17.249  24.986   6.020  1.00  0.00     0.022 C
HETATM   45  C31 UNL     1      18.194  27.178   6.632  1.00  0.00     0.022 C
HETATM   46  C32 UNL     1      19.675  25.344   6.054  1.00  0.00     0.022 C
ENDBRANCH  41  43
ENDBRANCH  40  41
ENDBRANCH  32  40
ENDBRANCH  31  32
ENDBRANCH  30  31
ENDBRANCH  28  30
ENDBRANCH  27  28
ENDBRANCH   1  27
TORSDOF 18
ENDMDL