MODEL 4
REMARK VINA RESULT: -8.505900345      2.613      5.786
REMARK  16 active torsions:
REMARK  status: ('A' for Active; 'I' for Inactive)
REMARK    1  A    between atoms: O1_2  and  C2_3
REMARK    2  A    between atoms: C6_7  and  C7_8
REMARK    3  A    between atoms: C7_8  and  C8_9
REMARK    4  A    between atoms: N1_11  and  C10_12
REMARK    5  A    between atoms: C10_12  and  C11_13
REMARK    6  A    between atoms: C11_13  and  C14_16
REMARK    7  A    between atoms: C14_16  and  O2_17
REMARK    8  A    between atoms: C18_26  and  O5_27
REMARK    9  A    between atoms: O5_27  and  C19_28
REMARK   10  A    between atoms: C19_28  and  C20_29
REMARK   11  A    between atoms: C20_29  and  O7_31
REMARK   12  A    between atoms: O7_31  and  C21_32
REMARK   13  A    between atoms: C21_32  and  C22_33
REMARK   14  A    between atoms: C22_33  and  O8_34
REMARK   15  A    between atoms: O8_34  and  C23_35
REMARK   16  A    between atoms: C23_35  and  C26_38
ROOT
HETATM    1  C2  UNL     1      20.106  32.855  15.516  1.00  0.00     0.107 A
HETATM    2  C3  UNL     1      19.829  33.736  16.539  1.00  0.00    -0.025 A
HETATM    3  C4  UNL     1      20.915  34.157  17.492  1.00  0.00     0.051 C
HETATM    4  C5  UNL     1      18.552  34.215  16.668  1.00  0.00     0.017 A
HETATM    5  C6  UNL     1      17.563  33.827  15.796  1.00  0.00    -0.050 A
HETATM    6  C17 UNL     1      17.866  32.948  14.786  1.00  0.00     0.047 A
HETATM    7  C18 UNL     1      19.141  32.439  14.616  1.00  0.00     0.103 A
ENDROOT
BRANCH   7   8
HETATM    8  O5  UNL     1      19.457  31.543  13.591  1.00  0.00    -0.339 OA
BRANCH   8   9
HETATM    9  C19 UNL     1      18.584  30.485  13.272  1.00  0.00     0.286 C
BRANCH   9  10
HETATM   10  C20 UNL     1      18.866  29.324  14.163  1.00  0.00     0.283 C
HETATM   11  O6  UNL     1      18.117  28.322  14.109  1.00  0.00    -0.263 OA
BRANCH  10  12
HETATM   12  O7  UNL     1      19.925  29.329  15.036  1.00  0.00    -0.318 OA
BRANCH  12  13
HETATM   13  C21 UNL     1      21.036  28.533  14.880  1.00  0.00     0.205 C
BRANCH  13  14
HETATM   14  C22 UNL     1      22.111  29.135  13.940  1.00  0.00     0.195 C
BRANCH  14  15
HETATM   15  O8  UNL     1      22.429  28.419  12.983  1.00  0.00    -0.378 OA
BRANCH  15  16
HETATM   16  C23 UNL     1      22.780  27.702  12.032  1.00  0.00     0.057 C
HETATM   17  C24 UNL     1      24.231  27.186  12.240  1.00  0.00     0.046 C
HETATM   18  C25 UNL     1      22.780  28.260  10.616  1.00  0.00     0.046 C
BRANCH  16  19
HETATM   19  C26 UNL     1      21.939  26.401  11.986  1.00  0.00     0.020 C
HETATM   20  C27 UNL     1      22.351  25.473  10.908  1.00  0.00     0.008 C
HETATM   21  C28 UNL     1      21.120  25.118  10.103  1.00  0.00     0.010 C
HETATM   22  C29 UNL     1      19.958  25.795  10.770  1.00  0.00    -0.040 C
HETATM   23  C30 UNL     1      19.153  26.516   9.693  1.00  0.00     0.009 C
HETATM   24  C34 UNL     1      19.091  24.762  11.460  1.00  0.00     0.009 C
HETATM   25  C35 UNL     1      20.501  26.758  11.776  1.00  0.00     0.017 C
HETATM   26  C31 UNL     1      18.269  25.476   9.031  1.00  0.00     0.001 C
HETATM   27  C32 UNL     1      17.113  25.120   9.951  1.00  0.00     0.000 C
HETATM   28  C33 UNL     1      17.619  25.129  11.377  1.00  0.00     0.001 C
ENDBRANCH  16  19
ENDBRANCH  15  16
ENDBRANCH  14  15
ENDBRANCH  13  14
ENDBRANCH  12  13
ENDBRANCH  10  12
ENDBRANCH   9  10
ENDBRANCH   8   9
ENDBRANCH   7   8
BRANCH   1  29
HETATM   29  O1  UNL     1      21.401  32.360  15.371  1.00  0.00    -0.353 OA
HETATM   30  C1  UNL     1      22.310  32.926  14.451  1.00  0.00     0.210 C
ENDBRANCH   1  29
BRANCH   5  31
HETATM   31  C7  UNL     1      16.162  34.328  15.933  1.00  0.00     0.084 C
BRANCH  31  32
HETATM   32  C8  UNL     1      16.092  35.449  16.955  1.00  0.00     0.030 A
HETATM   33  C9  UNL     1      16.548  36.703  16.604  1.00  0.00     0.108 A
HETATM   34  N1  UNL     1      16.497  37.710  17.473  1.00  0.00    -0.308 N
HETATM   35  C15 UNL     1      15.996  37.488  18.695  1.00  0.00     0.329 A
HETATM   36  O3  UNL     1      15.917  38.403  19.572  1.00  0.00    -0.246 OA
HETATM   37  N2  UNL     1      15.540  36.288  19.084  1.00  0.00    -0.275 N
HETATM   38  C16 UNL     1      15.583  35.247  18.216  1.00  0.00     0.257 A
ATOM     39  H2  UNL     1      15.165  36.160  20.025  1.00  0.00     0.173 HD
HETATM   40  O4  UNL     1      15.159  34.103  18.564  1.00  0.00    -0.267 OA
BRANCH  34  41
HETATM   41  C10 UNL     1      16.962  39.021  17.146  1.00  0.00     0.144 C
BRANCH  41  42
HETATM   42  C11 UNL     1      18.387  39.312  17.444  1.00  0.00    -0.010 C
HETATM   43  C12 UNL     1      18.397  40.526  18.389  1.00  0.00     0.018 C
HETATM   44  C13 UNL     1      19.106  39.809  16.190  1.00  0.00     0.018 C
BRANCH  42  45
HETATM   45  C14 UNL     1      19.155  38.235  18.128  1.00  0.00     0.174 C
BRANCH  45  46
HETATM   46  O2  UNL     1      19.101  38.530  19.512  1.00  0.00    -0.400 OA
ATOM     47  H2  UNL     1      19.984  38.774  19.764  1.00  0.00     0.209 HD
ENDBRANCH  45  46
ENDBRANCH  42  45
ENDBRANCH  41  42
ENDBRANCH  34  41
ENDBRANCH  31  32
ENDBRANCH   5  31
TORSDOF 16
ENDMDL