MODEL 4
REMARK VINA RESULT: -8.386789277      2.699      8.374
REMARK  15 active torsions:
REMARK  status: ('A' for Active; 'I' for Inactive)
REMARK    1  A    between atoms: O1_2  and  C2_3
REMARK    2  A    between atoms: C2_3  and  C3_4
REMARK    3  A    between atoms: C3_4  and  O2_5
REMARK    4  A    between atoms: C3_4  and  N1_7
REMARK    5  A    between atoms: N1_7  and  C4_9
REMARK    6  A    between atoms: C5_10  and  O3_11
REMARK    7  A    between atoms: C8_14  and  O4_15
REMARK    8  A    between atoms: C12_19  and  O5_20
REMARK    9  A    between atoms: O5_20  and  C13_21
REMARK   10  A    between atoms: C13_21  and  C14_22
REMARK   11  A    between atoms: C14_22  and  N2_23
REMARK       I    between atoms: N2_23  and  C15_25
REMARK   12  A    between atoms: C15_25  and  C16_27
REMARK       I    between atoms: N3_30  and  C19_31
REMARK   13  A    between atoms: C23_36  and  C25_38
REMARK   14  A    between atoms: C28_41  and  O8_42
REMARK   15  A    between atoms: C30_44  and  O9_45
ROOT
HETATM    1  C4  UNL     1      20.137  30.044  14.517  1.00  0.00     0.102 A
HETATM    2  C5  UNL     1      21.470  29.737  14.394  1.00  0.00     0.100 A
HETATM    3  C7  UNL     1      22.363  30.628  14.954  1.00  0.00     0.076 A
HETATM    4  C8  UNL     1      21.937  31.756  15.598  1.00  0.00     0.079 A
HETATM    5  C10 UNL     1      20.568  32.030  15.701  1.00  0.00     0.007 A
HETATM    6  C11 UNL     1      20.182  33.270  16.411  1.00  0.00     0.054 C
HETATM    7  C12 UNL     1      19.647  31.165  15.154  1.00  0.00     0.107 A
ENDROOT
BRANCH   1   8
HETATM    8  N1  UNL     1      19.237  29.084  13.887  1.00  0.00    -0.330 N
ATOM      9  H1  UNL     1      18.826  28.320  14.423  1.00  0.00     0.168 HD
BRANCH   8  10
HETATM   10  C3  UNL     1      18.953  29.243  12.524  1.00  0.00     0.175 C
BRANCH  10  11
HETATM   11  C2  UNL     1      18.769  28.290  11.482  1.00  0.00     0.125 C
HETATM   12  C23 UNL     1      17.658  28.050  10.835  1.00  0.00    -0.014 C
HETATM   13  C24 UNL     1      16.349  28.713  11.050  1.00  0.00     0.052 C
BRANCH  11  14
HETATM   14  O1  UNL     1      19.861  27.512  11.073  1.00  0.00    -0.351 OA
HETATM   15  C1  UNL     1      20.335  26.340  11.607  1.00  0.00     0.210 C
ENDBRANCH  11  14
BRANCH  12  16
HETATM   16  C25 UNL     1      17.638  27.033   9.734  1.00  0.00    -0.025 A
HETATM   17  C26 UNL     1      17.001  25.838   9.958  1.00  0.00     0.015 A
HETATM   18  C27 UNL     1      16.930  24.858   8.963  1.00  0.00     0.040 A
HETATM   19  C28 UNL     1      17.514  25.109   7.737  1.00  0.00     0.101 A
HETATM   20  C30 UNL     1      18.158  26.310   7.504  1.00  0.00     0.102 A
HETATM   21  C32 UNL     1      18.217  27.276   8.518  1.00  0.00     0.051 A
BRANCH  19  22
HETATM   22  O8  UNL     1      17.478  24.174   6.708  1.00  0.00    -0.353 OA
HETATM   23  C29 UNL     1      16.245  23.974   6.045  1.00  0.00     0.210 C
ENDBRANCH  19  22
BRANCH  20  24
HETATM   24  O9  UNL     1      18.731  26.518   6.260  1.00  0.00    -0.353 OA
HETATM   25  C31 UNL     1      18.173  27.563   5.460  1.00  0.00     0.210 C
ENDBRANCH  20  24
ENDBRANCH  12  16
ENDBRANCH  10  11
BRANCH  10  26
HETATM   26  O2  UNL     1      18.842  30.490  12.168  1.00  0.00    -0.344 OA
ATOM     27  H2  UNL     1      18.209  31.000  12.659  1.00  0.00     0.219 HD
ENDBRANCH  10  26
ENDBRANCH   8  10
ENDBRANCH   1   8
BRANCH   2  28
HETATM   28  O3  UNL     1      21.904  28.577  13.732  1.00  0.00    -0.353 OA
HETATM   29  C6  UNL     1      22.772  28.735  12.651  1.00  0.00     0.210 C
ENDBRANCH   2  28
BRANCH   7  30
HETATM   30  O5  UNL     1      18.319  31.418  15.246  1.00  0.00    -0.346 OA
BRANCH  30  31
HETATM   31  C13 UNL     1      17.394  31.054  16.216  1.00  0.00     0.195 C
BRANCH  31  32
HETATM   32  C14 UNL     1      16.250  32.034  16.145  1.00  0.00     0.149 C
BRANCH  32  33
HETATM   33  N2  UNL     1      16.685  33.360  16.456  1.00  0.00    -0.359 N
HETATM   34  C15 UNL     1      16.178  34.069  17.562  1.00  0.00     0.222 C
HETATM   35  O6  UNL     1      15.318  33.558  18.313  1.00  0.00    -0.273 OA
ATOM     36  H2  UNL     1      17.383  33.805  15.859  1.00  0.00     0.162 HD
BRANCH  34  37
HETATM   37  C16 UNL     1      16.686  35.455  17.829  1.00  0.00     0.081 C
HETATM   38  C17 UNL     1      17.987  35.469  18.563  1.00  0.00     0.034 C
HETATM   39  C18 UNL     1      18.522  36.886  18.555  1.00  0.00     0.126 C
HETATM   40  N3  UNL     1      17.507  37.817  18.070  1.00  0.00    -0.352 N
HETATM   41  C19 UNL     1      17.804  38.800  17.089  1.00  0.00     0.215 C
HETATM   42  C21 UNL     1      16.184  37.702  18.633  1.00  0.00     0.126 C
HETATM   43  C20 UNL     1      19.186  38.872  16.557  1.00  0.00     0.117 C
HETATM   44  O7  UNL     1      16.892  39.578  16.701  1.00  0.00    -0.274 OA
HETATM   45  C22 UNL     1      15.671  36.292  18.561  1.00  0.00     0.034 C
ENDBRANCH  34  37
ENDBRANCH  32  33
ENDBRANCH  31  32
ENDBRANCH  30  31
ENDBRANCH   7  30
BRANCH   4  46
HETATM   46  O4  UNL     1      22.851  32.659  16.166  1.00  0.00    -0.355 OA
HETATM   47  C9  UNL     1      23.906  33.124  15.369  1.00  0.00     0.210 C
ENDBRANCH   4  46
TORSDOF 15
ENDMDL