MODEL 4
REMARK VINA RESULT: -8.766511186      1.029      1.451
REMARK  16 active torsions:
REMARK  status: ('A' for Active; 'I' for Inactive)
REMARK    1  A    between atoms: O1_2  and  C2_3
REMARK    2  A    between atoms: C2_3  and  C3_5
REMARK    3  A    between atoms: C3_5  and  C4_6
REMARK    4  A    between atoms: C4_6  and  C5_7
REMARK    5  A    between atoms: C5_7  and  C6_8
REMARK    6  A    between atoms: C6_8  and  C7_9
REMARK    7  A    between atoms: C7_9  and  O4_11
REMARK    8  A    between atoms: O4_11  and  C8_12
REMARK    9  A    between atoms: C18_23  and  C19_24
REMARK   10  A    between atoms: C19_24  and  C21_26
REMARK       I    between atoms: C21_26  and  N1_28
REMARK   11  A    between atoms: N1_28  and  C22_30
REMARK   12  A    between atoms: C22_30  and  C23_31
REMARK   13  A    between atoms: C23_31  and  C24_32
REMARK   14  A    between atoms: C24_32  and  O7_33
REMARK   15  A    between atoms: O7_33  and  C25_34
REMARK   16  A    between atoms: C33_43  and  O9_45
ROOT
HETATM    1  C8  UNL     1      21.285  27.410  11.826  1.00  0.00     0.166 C
HETATM    2  C9  UNL     1      22.124  28.584  11.558  1.00  0.00     0.036 C
HETATM    3  C10 UNL     1      21.534  29.924  11.813  1.00  0.00     0.013 C
HETATM    4  C11 UNL     1      20.457  29.825  12.832  1.00  0.00    -0.027 C
HETATM    5  C12 UNL     1      20.953  29.206  14.096  1.00  0.00     0.016 C
HETATM    6  C13 UNL     1      19.684  31.103  13.067  1.00  0.00     0.068 C
HETATM    7  C14 UNL     1      20.253  31.918  14.150  1.00  0.00     0.133 C
HETATM    8  O5  UNL     1      21.417  32.255  14.063  1.00  0.00    -0.298 OA
HETATM    9  C15 UNL     1      19.500  32.360  15.348  1.00  0.00     0.088 C
HETATM   10  C16 UNL     1      18.002  32.433  15.069  1.00  0.00    -0.029 C
HETATM   11  C17 UNL     1      17.792  33.591  14.125  1.00  0.00     0.016 C
HETATM   12  C18 UNL     1      17.295  32.492  16.364  1.00  0.00     0.007 C
HETATM   13  C27 UNL     1      16.926  31.098  16.713  1.00  0.00     0.007 C
HETATM   14  C28 UNL     1      17.551  30.204  15.630  1.00  0.00     0.006 C
HETATM   15  C29 UNL     1      17.551  31.139  14.446  1.00  0.00    -0.001 C
HETATM   16  C30 UNL     1      18.272  30.689  13.261  1.00  0.00     0.003 C
HETATM   17  C31 UNL     1      18.247  29.154  13.107  1.00  0.00     0.014 C
HETATM   18  C32 UNL     1      19.361  28.996  12.147  1.00  0.00     0.031 C
HETATM   19  C33 UNL     1      19.798  27.643  11.808  1.00  0.00     0.085 C
HETATM   20  C34 UNL     1      19.292  27.321  10.395  1.00  0.00     0.049 C
ENDROOT
BRANCH  12  21
HETATM   21  C19 UNL     1      16.172  33.469  16.505  1.00  0.00     0.078 C
HETATM   22  C20 UNL     1      14.940  32.737  17.126  1.00  0.00     0.020 C
BRANCH  21  23
HETATM   23  C21 UNL     1      16.453  34.524  17.557  1.00  0.00     0.221 C
HETATM   24  O6  UNL     1      15.867  34.466  18.657  1.00  0.00    -0.273 OA
HETATM   25  N1  UNL     1      17.361  35.565  17.305  1.00  0.00    -0.361 N
ATOM     26  H1  UNL     1      17.824  35.572  16.396  1.00  0.00     0.162 HD
BRANCH  25  27
HETATM   27  C22 UNL     1      17.700  36.640  18.238  1.00  0.00     0.125 C
BRANCH  27  28
HETATM   28  C23 UNL     1      19.152  36.716  18.499  1.00  0.00     0.046 C
BRANCH  28  29
HETATM   29  C24 UNL     1      19.815  35.452  18.910  1.00  0.00     0.180 C
BRANCH  29  30
HETATM   30  O7  UNL     1      20.351  34.669  17.946  1.00  0.00    -0.322 OA
BRANCH  30  31
HETATM   31  C25 UNL     1      21.588  34.512  17.453  1.00  0.00     0.254 C
HETATM   32  C26 UNL     1      22.308  33.183  17.443  1.00  0.00     0.126 C
HETATM   33  O8  UNL     1      22.217  35.471  16.972  1.00  0.00    -0.266 OA
ENDBRANCH  30  31
ENDBRANCH  29  30
ENDBRANCH  28  29
ENDBRANCH  27  28
ENDBRANCH  25  27
ENDBRANCH  21  23
ENDBRANCH  12  21
BRANCH  19  34
HETATM   34  O9  UNL     1      19.156  26.718  12.657  1.00  0.00    -0.387 OA
ATOM     35  H9  UNL     1      19.699  25.946  12.763  1.00  0.00     0.210 HD
ENDBRANCH  19  34
BRANCH   1  36
HETATM   36  O4  UNL     1      21.570  26.404  10.869  1.00  0.00    -0.313 OA
BRANCH  36  37
HETATM   37  C7  UNL     1      22.188  25.221  11.167  1.00  0.00     0.259 C
HETATM   38  O3  UNL     1      21.542  24.323  11.758  1.00  0.00    -0.265 OA
BRANCH  37  39
HETATM   39  C6  UNL     1      23.627  24.910  10.825  1.00  0.00     0.111 C
BRANCH  39  40
HETATM   40  C5  UNL     1      24.135  25.876   9.842  1.00  0.00     0.010 C
BRANCH  40  41
HETATM   41  C4  UNL     1      23.929  25.647   8.406  1.00  0.00     0.010 C
BRANCH  41  42
HETATM   42  C3  UNL     1      23.584  24.312   7.901  1.00  0.00     0.111 C
BRANCH  42  43
HETATM   43  C2  UNL     1      23.706  24.147   6.452  1.00  0.00     0.258 C
HETATM   44  O2  UNL     1      23.187  24.973   5.662  1.00  0.00    -0.265 OA
BRANCH  43  45
HETATM   45  O1  UNL     1      24.401  23.072   5.880  1.00  0.00    -0.326 OA
HETATM   46  C1  UNL     1      25.371  23.289   4.871  1.00  0.00     0.213 C
ENDBRANCH  43  45
ENDBRANCH  42  43
ENDBRANCH  41  42
ENDBRANCH  40  41
ENDBRANCH  39  40
ENDBRANCH  37  39
ENDBRANCH  36  37
ENDBRANCH   1  36
TORSDOF 16
ENDMDL