MODEL 4
REMARK VINA RESULT: -8.433614068      1.405      1.786
REMARK  14 active torsions:
REMARK  status: ('A' for Active; 'I' for Inactive)
REMARK    1  A    between atoms: N2_4  and  N3_6
REMARK       I    between atoms: C1_8  and  N5_10
REMARK    2  A    between atoms: N5_10  and  C2_12
REMARK    3  A    between atoms: C2_12  and  C3_13
REMARK    4  A    between atoms: C3_13  and  C4_14
REMARK    5  A    between atoms: C4_14  and  C5_15
REMARK    6  A    between atoms: C5_15  and  O1_16
REMARK    7  A    between atoms: O1_16  and  C6_17
REMARK    8  A    between atoms: C6_17  and  C7_18
REMARK    9  A    between atoms: C7_18  and  C8_19
REMARK   10  A    between atoms: C8_19  and  N6_20
REMARK       I    between atoms: N6_20  and  C9_22
REMARK   11  A    between atoms: C9_22  and  C10_24
REMARK   12  A    between atoms: C12_26  and  N7_27
REMARK   13  A    between atoms: C14_32  and  C15_33
REMARK   14  A    between atoms: C15_33  and  N8_34
REMARK       I    between atoms: N8_34  and  C16_35
ROOT
HETATM    1  C8  UNL     1      13.645  64.091  37.825  1.00  0.00     0.124 C
ENDROOT
BRANCH   1   2
HETATM    2  C7  UNL     1      13.383  63.436  36.498  1.00  0.00     0.046 C
BRANCH   2   3
HETATM    3  C6  UNL     1      14.121  64.196  35.427  1.00  0.00     0.169 C
BRANCH   3   4
HETATM    4  O1  UNL     1      15.426  63.817  35.245  1.00  0.00    -0.391 OA
BRANCH   4   5
HETATM    5  C5  UNL     1      16.292  64.868  35.032  1.00  0.00     0.167 C
BRANCH   5   6
HETATM    6  C4  UNL     1      15.576  66.160  34.733  1.00  0.00     0.028 C
BRANCH   6   7
HETATM    7  C3  UNL     1      15.963  67.275  35.660  1.00  0.00     0.022 C
BRANCH   7   8
HETATM    8  C2  UNL     1      14.670  67.824  36.257  1.00  0.00     0.122 C
BRANCH   8   9
HETATM    9  N5  UNL     1      14.421  69.169  35.784  1.00  0.00    -0.363 N
HETATM   10  C1  UNL     1      13.399  69.921  36.401  1.00  0.00     0.204 C
HETATM   11  N3  UNL     1      13.658  70.642  37.423  1.00  0.00    -0.260 N
HETATM   12  N4  UNL     1      12.088  69.874  35.885  1.00  0.00    -0.062 NA
ATOM     13  H3  UNL     1      12.886  71.167  37.834  1.00  0.00     0.191 HD
ATOM     14  H5  UNL     1      14.971  69.565  35.022  1.00  0.00     0.162 HD
BRANCH  11  15
HETATM   15  N2  UNL     1      14.901  70.769  38.018  1.00  0.00    -0.247 N
HETATM   16  N1  UNL     1      15.032  70.998  39.261  1.00  0.00    -0.331 N
ATOM     17  H12 UNL     1      14.186  71.089  39.822  1.00  0.00     0.178 HD
ATOM     18  H11 UNL     1      15.948  71.092  39.699  1.00  0.00     0.178 HD
ATOM     19  H2  UNL     1      15.737  70.676  37.441  1.00  0.00     0.207 HD
ENDBRANCH  11  15
ENDBRANCH   8   9
ENDBRANCH   7   8
ENDBRANCH   6   7
ENDBRANCH   5   6
ENDBRANCH   4   5
ENDBRANCH   3   4
ENDBRANCH   2   3
ENDBRANCH   1   2
BRANCH   1  20
HETATM   20  N6  UNL     1      13.626  63.131  38.913  1.00  0.00    -0.361 N
HETATM   21  C9  UNL     1      14.856  62.829  39.587  1.00  0.00     0.222 C
HETATM   22  O2  UNL     1      15.874  63.429  39.179  1.00  0.00    -0.273 OA
ATOM     23  H6  UNL     1      12.755  62.679  39.193  1.00  0.00     0.162 HD
BRANCH  21  24
HETATM   24  C10 UNL     1      14.788  61.862  40.670  1.00  0.00     0.090 C
HETATM   25  C11 UNL     1      14.007  60.649  40.106  1.00  0.00     0.047 C
HETATM   26  C12 UNL     1      13.569  59.985  41.418  1.00  0.00     0.185 C
HETATM   27  C13 UNL     1      13.062  61.200  42.152  1.00  0.00     0.044 C
HETATM   28  C14 UNL     1      14.167  62.205  41.941  1.00  0.00     0.053 C
BRANCH  26  29
HETATM   29  N7  UNL     1      12.557  58.986  41.201  1.00  0.00    -0.075 N
ATOM     30  H73 UNL     1      11.844  59.316  40.551  1.00  0.00     0.274 HD
ATOM     31  H72 UNL     1      12.919  58.203  40.657  1.00  0.00     0.274 HD
ATOM     32  H71 UNL     1      12.144  58.669  42.078  1.00  0.00     0.274 HD
ENDBRANCH  26  29
BRANCH  28  33
HETATM   33  C15 UNL     1      13.665  63.621  42.136  1.00  0.00     0.164 C
BRANCH  33  34
HETATM   34  N8  UNL     1      14.715  64.480  42.226  1.00  0.00    -0.393 NA
HETATM   35  C16 UNL     1      15.665  65.164  42.293  1.00  0.00     0.274 C
HETATM   36  N9  UNL     1      15.583  66.585  42.542  1.00  0.00    -0.052 NA
HETATM   37  N10 UNL     1      17.014  64.676  42.134  1.00  0.00    -0.052 NA
ENDBRANCH  33  34
ENDBRANCH  28  33
ENDBRANCH  21  24
ENDBRANCH   1  20
TORSDOF 14
ENDMDL