MODEL 4
REMARK VINA RESULT: -7.933355970      2.840      8.257
REMARK  13 active torsions:
REMARK  status: ('A' for Active; 'I' for Inactive)
REMARK    1  A    between atoms: N1_1  and  C1_5
REMARK    2  A    between atoms: C1_5  and  C2_6
REMARK    3  A    between atoms: C2_6  and  N2_7
REMARK    4  A    between atoms: C2_6  and  C10_23
REMARK    5  A    between atoms: N2_7  and  C3_9
REMARK    6  A    between atoms: C3_9  and  C4_10
REMARK    7  A    between atoms: C4_10  and  C5_11
REMARK    8  A    between atoms: C5_11  and  S1_12
REMARK    9  A    between atoms: S1_12  and  C6_15
REMARK   10  A    between atoms: C6_15  and  C7_16
REMARK   11  A    between atoms: C7_16  and  C8_17
REMARK   12  A    between atoms: C8_17  and  N3_18
REMARK   13  A    between atoms: C13_26  and  N6_27
REMARK       I    between atoms: N6_27  and  C14_28
ROOT
HETATM    1  N2  UNL     1      13.679  64.598  38.288  1.00  0.00    -0.396 N
ATOM      2  H2  UNL     1      13.471  65.554  37.996  1.00  0.00     0.159 HD
ENDROOT
BRANCH   1   3
HETATM    3  C2  UNL     1      14.162  64.446  39.540  1.00  0.00     0.110 C
BRANCH   3   4
HETATM    4  C1  UNL     1      13.757  65.439  40.612  1.00  0.00     0.254 C
BRANCH   4   5
HETATM    5  N1  UNL     1      13.385  66.724  39.954  1.00  0.00    -0.077 N
ATOM      6  H13 UNL     1      12.714  66.595  39.196  1.00  0.00     0.274 HD
ATOM      7  H12 UNL     1      12.808  67.316  40.552  1.00  0.00     0.274 HD
ATOM      8  H11 UNL     1      14.237  67.192  39.646  1.00  0.00     0.274 HD
ENDBRANCH   4   5
ENDBRANCH   3   4
BRANCH   3   9
HETATM    9  C10 UNL     1      14.051  63.043  40.131  1.00  0.00     0.013 C
HETATM   10  C11 UNL     1      15.344  62.351  40.348  1.00  0.00     0.010 C
HETATM   11  C12 UNL     1      15.374  61.989  41.843  1.00  0.00     0.040 C
HETATM   12  C13 UNL     1      13.865  61.718  42.032  1.00  0.00     0.166 C
HETATM   13  C15 UNL     1      13.329  63.047  41.458  1.00  0.00     0.046 C
BRANCH  12  14
HETATM   14  N6  UNL     1      13.487  60.705  41.240  1.00  0.00    -0.415 NA
HETATM   15  C14 UNL     1      13.166  59.811  40.548  1.00  0.00     0.270 C
HETATM   16  N7  UNL     1      11.917  59.763  39.869  1.00  0.00    -0.053 NA
HETATM   17  N8  UNL     1      14.020  58.667  40.319  1.00  0.00    -0.053 NA
ENDBRANCH  12  14
ENDBRANCH   3   9
ENDBRANCH   1   3
BRANCH   1  18
HETATM   18  C3  UNL     1      13.436  63.613  37.365  1.00  0.00     0.057 C
BRANCH  18  19
HETATM   19  C4  UNL     1      14.330  63.406  36.184  1.00  0.00     0.059 C
BRANCH  19  20
HETATM   20  C5  UNL     1      14.151  64.555  35.172  1.00  0.00     0.145 C
BRANCH  20  21
HETATM   21  S1  UNL     1      15.682  65.499  35.181  1.00  0.00     0.144 S
HETATM   22  O1  UNL     1      16.839  64.667  34.783  1.00  0.00    -0.228 OA
HETATM   23  O2  UNL     1      15.896  65.987  36.610  1.00  0.00    -0.228 OA
BRANCH  21  24
HETATM   24  C6  UNL     1      15.518  66.850  34.058  1.00  0.00     0.142 C
BRANCH  24  25
HETATM   25  C7  UNL     1      15.448  68.183  34.689  1.00  0.00     0.034 C
BRANCH  25  26
HETATM   26  C8  UNL     1      14.095  68.615  35.171  1.00  0.00     0.123 C
BRANCH  26  27
HETATM   27  N3  UNL     1      14.115  68.685  36.646  1.00  0.00    -0.367 N
HETATM   28  C9  UNL     1      13.231  69.422  37.216  1.00  0.00     0.196 C
HETATM   29  N4  UNL     1      12.264  70.150  36.490  1.00  0.00    -0.067 NA
HETATM   30  N5  UNL     1      13.237  69.502  38.644  1.00  0.00    -0.067 NA
ATOM     31  H3  UNL     1      14.804  68.167  37.190  1.00  0.00     0.161 HD
ENDBRANCH  26  27
ENDBRANCH  25  26
ENDBRANCH  24  25
ENDBRANCH  21  24
ENDBRANCH  20  21
ENDBRANCH  19  20
ENDBRANCH  18  19
ENDBRANCH   1  18
TORSDOF 13
ENDMDL