MODEL 3
REMARK VINA RESULT: -8.289203767      2.875      8.962
REMARK  13 active torsions:
REMARK  status: ('A' for Active; 'I' for Inactive)
REMARK    1  A    between atoms: N3_4  and  C2_6
REMARK    2  A    between atoms: C2_6  and  C3_7
REMARK    3  A    between atoms: C3_7  and  C4_8
REMARK    4  A    between atoms: C4_8  and  N4_9
REMARK    5  A    between atoms: C5_11  and  C6_13
REMARK    6  A    between atoms: C6_13  and  N6_14
REMARK    7  A    between atoms: N6_14  and  C7_16
REMARK    8  A    between atoms: C7_16  and  C8_17
REMARK    9  A    between atoms: C8_17  and  C9_18
REMARK   10  A    between atoms: C9_18  and  N7_19
REMARK       I    between atoms: N7_19  and  C10_21
REMARK       I    between atoms: C10_21  and  N8_23
REMARK   11  A    between atoms: N8_23  and  C11_25
REMARK   12  A    between atoms: C11_25  and  C12_26
REMARK   13  A    between atoms: C12_26  and  N9_27
ROOT
HETATM    1  C8  UNL     1      14.371  63.926  35.688  1.00  0.00     0.039 C
ENDROOT
BRANCH   1   2
HETATM    2  C7  UNL     1      15.867  64.016  35.984  1.00  0.00     0.115 C
BRANCH   2   3
HETATM    3  N6  UNL     1      16.392  65.161  35.337  1.00  0.00    -0.415 N
ATOM      4  H6  UNL     1      17.349  65.468  35.509  1.00  0.00     0.153 HD
BRANCH   3   5
HETATM    5  C6  UNL     1      15.546  65.873  34.439  1.00  0.00     0.186 C
BRANCH   5   6
HETATM    6  C5  UNL     1      15.274  67.257  34.865  1.00  0.00     0.106 C
HETATM    7  N4  UNL     1      14.525  67.997  34.093  1.00  0.00    -0.381 N
ATOM      8  H4  UNL     1      14.146  67.622  33.223  1.00  0.00     0.160 HD
HETATM    9  N5  UNL     1      15.773  67.828  36.060  1.00  0.00    -0.086 NA
BRANCH   7  10
HETATM   10  C4  UNL     1      14.244  69.343  34.490  1.00  0.00     0.122 C
BRANCH  10  11
HETATM   11  C3  UNL     1      12.753  69.390  34.821  1.00  0.00     0.039 C
BRANCH  11  12
HETATM   12  C2  UNL     1      12.627  69.605  36.315  1.00  0.00     0.123 C
BRANCH  12  13
HETATM   13  N3  UNL     1      13.802  70.317  36.768  1.00  0.00    -0.367 N
HETATM   14  C1  UNL     1      14.094  70.348  38.008  1.00  0.00     0.196 C
HETATM   15  N1  UNL     1      13.274  69.692  38.947  1.00  0.00    -0.067 NA
HETATM   16  N2  UNL     1      15.243  71.043  38.446  1.00  0.00    -0.067 NA
ATOM     17  H3  UNL     1      14.399  70.795  36.092  1.00  0.00     0.161 HD
ENDBRANCH  12  13
ENDBRANCH  11  12
ENDBRANCH  10  11
ENDBRANCH   7  10
ENDBRANCH   5   6
ENDBRANCH   3   5
ENDBRANCH   2   3
ENDBRANCH   1   2
BRANCH   1  18
HETATM   18  C9  UNL     1      13.594  63.736  36.977  1.00  0.00     0.126 C
BRANCH  18  19
HETATM   19  N7  UNL     1      14.413  63.933  38.136  1.00  0.00    -0.343 N
HETATM   20  C10 UNL     1      13.912  64.300  39.407  1.00  0.00     0.316 C
HETATM   21  O1  UNL     1      12.675  64.465  39.533  1.00  0.00    -0.247 OA
HETATM   22  N8  UNL     1      14.732  64.491  40.537  1.00  0.00    -0.342 N
ATOM     23  H8  UNL     1      15.736  64.353  40.418  1.00  0.00     0.164 HD
ATOM     24  H7  UNL     1      15.420  63.800  38.038  1.00  0.00     0.164 HD
BRANCH  22  25
HETATM   25  C11 UNL     1      14.268  64.865  41.840  1.00  0.00     0.144 C
BRANCH  25  26
HETATM   26  C12 UNL     1      14.152  63.770  42.813  1.00  0.00     0.154 C
BRANCH  26  27
HETATM   27  N9  UNL     1      13.675  62.510  42.392  1.00  0.00    -0.287 N
HETATM   28  C13 UNL     1      12.323  62.007  42.472  1.00  0.00     0.226 C
HETATM   29  O2  UNL     1      11.424  62.678  43.024  1.00  0.00    -0.273 OA
HETATM   30  C14 UNL     1      12.306  60.676  41.817  1.00  0.00     0.112 C
HETATM   31  C15 UNL     1      13.736  60.211  42.079  1.00  0.00     0.112 C
HETATM   32  C16 UNL     1      14.465  61.501  41.780  1.00  0.00     0.226 C
HETATM   33  O3  UNL     1      15.529  61.574  41.123  1.00  0.00    -0.273 OA
ENDBRANCH  26  27
ENDBRANCH  25  26
ENDBRANCH  22  25
ENDBRANCH  18  19
ENDBRANCH   1  18
TORSDOF 13
ENDMDL