MODEL 1
REMARK VINA RESULT: -7.602078281      0.000      0.000
REMARK  15 active torsions:
REMARK  status: ('A' for Active; 'I' for Inactive)
REMARK    1  A    between atoms: C3_3  and  S1_4
REMARK    2  A    between atoms: S1_4  and  C4_5
REMARK    3  A    between atoms: C4_5  and  C5_6
REMARK    4  A    between atoms: C5_6  and  C6_7
REMARK    5  A    between atoms: C5_6  and  N5_20
REMARK    6  A    between atoms: C6_7  and  N1_8
REMARK       I    between atoms: N1_8  and  C7_10
REMARK    7  A    between atoms: C7_10  and  C8_12
REMARK    8  A    between atoms: C8_12  and  N2_13
REMARK    9  A    between atoms: N2_13  and  N3_15
REMARK   10  A    between atoms: N5_20  and  C9_22
REMARK   11  A    between atoms: C9_22  and  C10_23
REMARK   12  A    between atoms: C10_23  and  C11_24
REMARK   13  A    between atoms: C11_24  and  N6_25
REMARK   14  A    between atoms: N6_25  and  C12_27
REMARK   15  A    between atoms: C15_32  and  N8_33
ROOT
HETATM    1  C1  UNL     1      13.899  60.326  40.376  1.00  0.00     0.098 C
HETATM    2  C2  UNL     1      14.337  61.279  40.998  1.00  0.00    -0.177 C
HETATM    3  C3  UNL     1      14.883  62.423  41.732  1.00  0.00     0.153 C
ENDROOT
BRANCH   3   4
HETATM    4  S1  UNL     1      13.585  63.658  42.004  1.00  0.00    -0.156 SA
BRANCH   4   5
HETATM    5  C4  UNL     1      14.175  65.264  41.466  1.00  0.00     0.101 C
BRANCH   5   6
HETATM    6  C5  UNL     1      13.955  65.515  39.991  1.00  0.00     0.103 C
BRANCH   6   7
HETATM    7  C6  UNL     1      13.128  66.735  39.846  1.00  0.00     0.148 C
BRANCH   7   8
HETATM    8  N1  UNL     1      13.654  67.597  38.825  1.00  0.00    -0.358 N
HETATM    9  C7  UNL     1      12.955  68.712  38.316  1.00  0.00     0.236 C
HETATM   10  O1  UNL     1      11.794  69.033  38.750  1.00  0.00    -0.272 OA
ATOM     11  H1  UNL     1      14.579  67.392  38.448  1.00  0.00     0.162 HD
BRANCH   9  12
HETATM   12  C8  UNL     1      13.476  69.613  37.251  1.00  0.00     0.243 C
BRANCH  12  13
HETATM   13  N2  UNL     1      13.961  70.873  37.698  1.00  0.00    -0.314 N
ATOM     14  H2  UNL     1      13.480  71.731  37.426  1.00  0.00     0.182 HD
BRANCH  13  15
HETATM   15  N3  UNL     1      15.091  70.935  38.508  1.00  0.00    -0.253 N
HETATM   16  N4  UNL     1      14.956  71.042  39.755  1.00  0.00    -0.331 N
ATOM     17  H42 UNL     1      14.018  71.081  40.153  1.00  0.00     0.178 HD
ATOM     18  H41 UNL     1      15.784  71.088  40.349  1.00  0.00     0.178 HD
ATOM     19  H3  UNL     1      16.022  70.895  38.094  1.00  0.00     0.207 HD
ENDBRANCH  13  15
ENDBRANCH  12  13
ENDBRANCH   9  12
ENDBRANCH   7   8
ENDBRANCH   6   7
BRANCH   6  20
HETATM   20  N5  UNL     1      13.396  64.357  39.325  1.00  0.00    -0.415 N
ATOM     21  H5  UNL     1      12.484  63.970  39.568  1.00  0.00     0.153 HD
BRANCH  20  22
HETATM   22  C9  UNL     1      14.220  63.797  38.305  1.00  0.00     0.115 C
BRANCH  22  23
HETATM   23  C10 UNL     1      13.323  63.577  37.090  1.00  0.00     0.039 C
BRANCH  23  24
HETATM   24  C11 UNL     1      14.066  63.882  35.808  1.00  0.00     0.123 C
BRANCH  24  25
HETATM   25  N6  UNL     1      15.222  64.665  36.115  1.00  0.00    -0.376 N
ATOM     26  H6  UNL     1      15.790  64.429  36.929  1.00  0.00     0.161 HD
BRANCH  25  27
HETATM   27  C12 UNL     1      15.550  65.657  35.378  1.00  0.00     0.118 A
HETATM   28  C13 UNL     1      14.794  66.798  35.405  1.00  0.00     0.066 A
HETATM   29  C14 UNL     1      15.184  67.856  34.588  1.00  0.00     0.110 A
HETATM   30  N7  UNL     1      16.277  67.683  33.829  1.00  0.00    -0.202 N
HETATM   31  C15 UNL     1      17.008  66.569  33.809  1.00  0.00     0.677 A
ATOM     32  H7  UNL     1      16.566  68.455  33.229  1.00  0.00     0.183 HD
HETATM   33  N9  UNL     1      16.634  65.531  34.605  1.00  0.00    -0.177 N
ATOM     34  H9  UNL     1      17.174  64.666  34.611  1.00  0.00     0.185 HD
BRANCH  31  35
HETATM   35  N8  UNL     1      18.041  66.483  33.055  1.00  0.00    -0.234 N
ATOM     36  H82 UNL     1      17.949  66.452  32.040  1.00  0.00     0.174 HD
ATOM     37  H81 UNL     1      18.975  66.445  33.461  1.00  0.00     0.174 HD
ENDBRANCH  31  35
ENDBRANCH  25  27
ENDBRANCH  24  25
ENDBRANCH  23  24
ENDBRANCH  22  23
ENDBRANCH  20  22
ENDBRANCH   6  20
ENDBRANCH   5   6
ENDBRANCH   4   5
ENDBRANCH   3   4
TORSDOF 15
ENDMDL