MODEL 5
REMARK VINA RESULT: -7.397725995      2.647      5.952
REMARK  15 active torsions:
REMARK  status: ('A' for Active; 'I' for Inactive)
REMARK    1  A    between atoms: C6_8  and  C7_9
REMARK    2  A    between atoms: C7_9  and  C8_10
REMARK    3  A    between atoms: C8_10  and  N2_11
REMARK    4  A    between atoms: C8_10  and  C9_15
REMARK    5  A    between atoms: C8_10  and  N7_30
REMARK    6  A    between atoms: C9_15  and  C10_16
REMARK    7  A    between atoms: C10_16  and  C11_17
REMARK    8  A    between atoms: C11_17  and  N3_18
REMARK       I    between atoms: N3_18  and  C12_20
REMARK    9  A    between atoms: C12_20  and  C13_22
REMARK   10  A    between atoms: C13_22  and  N4_23
REMARK   11  A    between atoms: N4_23  and  N5_25
REMARK   12  A    between atoms: N7_30  and  C14_32
REMARK   13  A    between atoms: C14_32  and  C15_33
REMARK   14  A    between atoms: C15_33  and  C16_34
REMARK   15  A    between atoms: C16_34  and  N8_35
ROOT
HETATM    1  C8  UNL     1      14.004  63.101  39.237  1.00  0.00     0.195 C
ENDROOT
BRANCH   1   2
HETATM    2  C7  UNL     1      13.518  63.537  40.571  1.00  0.00     0.101 C
BRANCH   2   3
HETATM    3  C6  UNL     1      14.458  64.243  41.440  1.00  0.00    -0.033 A
HETATM    4  C2  UNL     1      15.280  63.601  42.302  1.00  0.00    -0.053 A
HETATM    5  C1  UNL     1      15.410  62.149  42.368  1.00  0.00     0.049 C
HETATM    6  C3  UNL     1      16.114  64.345  43.144  1.00  0.00     0.024 A
HETATM    7  C4  UNL     1      16.133  65.720  43.129  1.00  0.00     0.088 A
HETATM    8  N1  UNL     1      15.317  66.331  42.268  1.00  0.00    -0.375 N
HETATM    9  C5  UNL     1      14.508  65.638  41.452  1.00  0.00     0.095 A
ATOM     10  H1  UNL     1      15.307  67.350  42.229  1.00  0.00     0.164 HD
ENDBRANCH   2   3
ENDBRANCH   1   2
BRANCH   1  11
HETATM   11  N2  UNL     1      15.433  63.024  39.175  1.00  0.00    -0.053 N
ATOM     12  H23 UNL     1      15.860  63.925  39.387  1.00  0.00     0.277 HD
ATOM     13  H22 UNL     1      15.805  62.479  39.953  1.00  0.00     0.277 HD
ATOM     14  H21 UNL     1      15.764  62.661  38.280  1.00  0.00     0.277 HD
ENDBRANCH   1  11
BRANCH   1  15
HETATM   15  C9  UNL     1      13.645  64.186  38.176  1.00  0.00     0.063 C
BRANCH  15  16
HETATM   16  C10 UNL     1      13.506  63.463  36.854  1.00  0.00     0.024 C
BRANCH  16  17
HETATM   17  C11 UNL     1      14.628  63.768  35.920  1.00  0.00     0.123 C
BRANCH  17  18
HETATM   18  N3  UNL     1      14.410  64.973  35.168  1.00  0.00    -0.360 N
HETATM   19  C12 UNL     1      15.077  66.193  35.388  1.00  0.00     0.236 C
HETATM   20  O1  UNL     1      15.937  66.210  36.326  1.00  0.00    -0.272 OA
ATOM     21  H3  UNL     1      13.720  64.942  34.418  1.00  0.00     0.162 HD
BRANCH  19  22
HETATM   22  C13 UNL     1      14.882  67.441  34.654  1.00  0.00     0.243 C
BRANCH  22  23
HETATM   23  N4  UNL     1      15.865  67.731  33.668  1.00  0.00    -0.314 N
ATOM     24  H4  UNL     1      15.632  68.255  32.824  1.00  0.00     0.182 HD
BRANCH  23  25
HETATM   25  N5  UNL     1      17.171  67.268  33.904  1.00  0.00    -0.253 N
HETATM   26  N6  UNL     1      17.686  66.476  33.083  1.00  0.00    -0.331 N
ATOM     27  H62 UNL     1      17.154  66.181  32.264  1.00  0.00     0.178 HD
ATOM     28  H61 UNL     1      18.634  66.140  33.254  1.00  0.00     0.178 HD
ATOM     29  H5  UNL     1      17.689  67.572  34.728  1.00  0.00     0.207 HD
ENDBRANCH  23  25
ENDBRANCH  22  23
ENDBRANCH  19  22
ENDBRANCH  17  18
ENDBRANCH  16  17
ENDBRANCH  15  16
ENDBRANCH   1  15
BRANCH   1  30
HETATM   30  N7  UNL     1      13.460  61.846  38.774  1.00  0.00    -0.391 N
ATOM     31  H7  UNL     1      12.864  61.785  37.948  1.00  0.00     0.155 HD
BRANCH  30  32
HETATM   32  C14 UNL     1      13.805  60.699  39.541  1.00  0.00     0.117 C
BRANCH  32  33
HETATM   33  C15 UNL     1      12.532  60.091  40.084  1.00  0.00     0.039 C
BRANCH  33  34
HETATM   34  C16 UNL     1      12.638  59.776  41.558  1.00  0.00     0.123 C
BRANCH  34  35
HETATM   35  N8  UNL     1      11.917  60.765  42.334  1.00  0.00    -0.367 N
HETATM   36  C17 UNL     1      11.410  60.592  43.485  1.00  0.00     0.196 C
HETATM   37  N9  UNL     1      10.734  61.677  44.104  1.00  0.00    -0.067 NA
HETATM   38  N10 UNL     1      11.488  59.348  44.197  1.00  0.00    -0.067 NA
ATOM     39  H8  UNL     1      11.806  61.688  41.915  1.00  0.00     0.161 HD
ENDBRANCH  34  35
ENDBRANCH  33  34
ENDBRANCH  32  33
ENDBRANCH  30  32
ENDBRANCH   1  30
TORSDOF 15
ENDMDL