MODEL 1
REMARK VINA RESULT: -8.415570901      0.000      0.000
REMARK  15 active torsions:
REMARK  status: ('A' for Active; 'I' for Inactive)
REMARK    1  A    between atoms: C2_3  and  C3_4
REMARK    2  A    between atoms: C3_4  and  N2_5
REMARK       I    between atoms: N2_5  and  C4_7
REMARK       I    between atoms: C4_7  and  N4_11
REMARK    3  A    between atoms: N4_11  and  C5_12
REMARK    4  A    between atoms: N4_11  and  C7_16
REMARK    5  A    between atoms: C5_12  and  C6_13
REMARK    6  A    between atoms: C6_13  and  O1_14
REMARK    7  A    between atoms: C7_16  and  C8_17
REMARK    8  A    between atoms: C8_17  and  C9_18
REMARK    9  A    between atoms: C9_18  and  C10_19
REMARK   10  A    between atoms: C10_19  and  C11_20
REMARK   11  A    between atoms: C11_20  and  C12_21
REMARK   12  A    between atoms: C12_21  and  N5_22
REMARK       I    between atoms: N5_22  and  C13_24
REMARK   13  A    between atoms: C15_31  and  N9_32
REMARK   14  A    between atoms: N9_32  and  C16_33
REMARK   15  A    between atoms: C16_33  and  O3_34
ROOT
HETATM    1  N2  UNL     1      14.296  60.902  40.227  1.00  0.00    -0.198 N
ATOM      2  H2  UNL     1      14.830  60.698  39.383  1.00  0.00     0.183 HD
HETATM    3  C4  UNL     1      14.835  61.926  41.073  1.00  0.00     0.681 C
HETATM    4  N3  UNL     1      15.354  61.640  42.148  1.00  0.00    -0.234 N
ATOM      5  H31 UNL     1      15.737  62.370  42.750  1.00  0.00     0.174 HD
ATOM      6  H32 UNL     1      15.463  60.688  42.497  1.00  0.00     0.174 HD
HETATM    7  N4  UNL     1      14.673  63.337  40.557  1.00  0.00    -0.175 N
ENDROOT
BRANCH   1   8
HETATM    8  C3  UNL     1      13.132  60.145  40.408  1.00  0.00     0.154 C
BRANCH   8   9
HETATM    9  C2  UNL     1      12.427  60.181  41.692  1.00  0.00     0.124 C
HETATM   10  N1  UNL     1      12.072  58.976  42.348  1.00  0.00    -0.331 N
HETATM   11  C1  UNL     1      11.998  57.605  41.897  1.00  0.00     0.155 C
HETATM   12  C15 UNL     1      11.701  59.337  43.728  1.00  0.00     0.360 C
HETATM   13  C14 UNL     1      11.299  60.748  43.520  1.00  0.00     0.279 C
HETATM   14  N8  UNL     1      12.004  61.192  42.340  1.00  0.00    -0.308 N
HETATM   15  O2  UNL     1      10.504  61.421  44.228  1.00  0.00    -0.267 OA
ATOM     16  H8  UNL     1      12.142  62.166  42.068  1.00  0.00     0.170 HD
BRANCH  12  17
HETATM   17  N9  UNL     1      10.463  58.514  44.003  1.00  0.00    -0.401 NA
BRANCH  17  18
HETATM   18  C16 UNL     1       9.491  57.867  44.221  1.00  0.00     0.312 C
BRANCH  18  19
HETATM   19  O3  UNL     1       9.088  57.143  45.246  1.00  0.00    -0.346 OA
ATOM     20  H3  UNL     1       8.632  56.314  45.326  1.00  0.00     0.219 HD
ENDBRANCH  18  19
ENDBRANCH  17  18
ENDBRANCH  12  17
ENDBRANCH   8   9
ENDBRANCH   1   8
BRANCH   7  21
HETATM   21  C5  UNL     1      15.195  64.313  41.425  1.00  0.00     0.113 C
BRANCH  21  22
HETATM   22  C6  UNL     1      14.255  65.184  42.195  1.00  0.00     0.209 C
BRANCH  22  23
HETATM   23  O1  UNL     1      13.846  64.401  43.320  1.00  0.00    -0.396 OA
ATOM     24  H1  UNL     1      13.135  63.855  43.003  1.00  0.00     0.209 HD
ENDBRANCH  22  23
ENDBRANCH  21  22
ENDBRANCH   7  21
BRANCH   7  25
HETATM   25  C7  UNL     1      14.057  63.407  39.308  1.00  0.00     0.087 C
BRANCH  25  26
HETATM   26  C8  UNL     1      14.575  63.810  38.020  1.00  0.00     0.046 C
BRANCH  26  27
HETATM   27  C9  UNL     1      13.681  63.740  36.846  1.00  0.00     0.005 C
BRANCH  27  28
HETATM   28  C10 UNL     1      14.466  64.197  35.586  1.00  0.00     0.005 C
BRANCH  28  29
HETATM   29  C11 UNL     1      15.013  65.576  35.937  1.00  0.00     0.044 C
BRANCH  29  30
HETATM   30  C12 UNL     1      14.846  66.490  34.737  1.00  0.00     0.063 C
BRANCH  30  31
HETATM   31  N5  UNL     1      14.413  67.747  35.048  1.00  0.00    -0.347 N
HETATM   32  C13 UNL     1      14.368  68.931  34.731  1.00  0.00     0.200 C
HETATM   33  N6  UNL     1      14.959  69.521  33.547  1.00  0.00    -0.067 NA
HETATM   34  N7  UNL     1      13.686  69.847  35.605  1.00  0.00    -0.067 NA
ATOM     35  H5  UNL     1      13.904  67.666  35.928  1.00  0.00     0.167 HD
ENDBRANCH  30  31
ENDBRANCH  29  30
ENDBRANCH  28  29
ENDBRANCH  27  28
ENDBRANCH  26  27
ENDBRANCH  25  26
ENDBRANCH   7  25
TORSDOF 15
ENDMDL