MODEL 1
REMARK VINA RESULT: -8.090213428      0.000      0.000
REMARK  14 active torsions:
REMARK  status: ('A' for Active; 'I' for Inactive)
REMARK    1  A    between atoms: N3_5  and  C3_6
REMARK    2  A    between atoms: C3_6  and  N4_7
REMARK    3  A    between atoms: N4_7  and  N5_9
REMARK    4  A    between atoms: N6_12  and  C4_13
REMARK    5  A    between atoms: C4_13  and  C5_14
REMARK    6  A    between atoms: C5_14  and  C6_15
REMARK    7  A    between atoms: C6_15  and  C7_16
REMARK    8  A    between atoms: C7_16  and  C8_17
REMARK    9  A    between atoms: C8_17  and  C9_18
REMARK   10  A    between atoms: C9_18  and  S1_19
REMARK   11  A    between atoms: S1_19  and  C11_21
REMARK   12  A    between atoms: C11_21  and  C12_22
REMARK   13  A    between atoms: C12_22  and  N7_23
REMARK   14  A    between atoms: C14_28  and  C15_29
ROOT
HETATM    1  C1  UNL     1      11.194  62.291  44.052  1.00  0.00     0.161 C
HETATM    2  N1  UNL     1      12.102  61.615  43.104  1.00  0.00    -0.305 N
HETATM    3  C2  UNL     1      12.121  60.296  42.932  1.00  0.00     0.218 A
HETATM    4  N2  UNL     1      11.326  59.306  43.575  1.00  0.00    -0.061 NA
HETATM    5  N3  UNL     1      13.089  60.049  41.977  1.00  0.00    -0.217 N
HETATM    6  N6  UNL     1      13.614  61.193  41.608  1.00  0.00    -0.262 N
HETATM    7  C14 UNL     1      13.017  62.206  42.299  1.00  0.00     0.193 A
ENDROOT
BRANCH   6   8
HETATM    8  C4  UNL     1      14.692  61.527  40.683  1.00  0.00     0.152 C
BRANCH   8   9
HETATM    9  C5  UNL     1      14.313  61.935  39.314  1.00  0.00     0.022 C
BRANCH   9  10
HETATM   10  C6  UNL     1      14.776  63.201  38.765  1.00  0.00     0.002 C
BRANCH  10  11
HETATM   11  C7  UNL     1      14.002  64.105  37.905  1.00  0.00     0.001 C
BRANCH  11  12
HETATM   12  C8  UNL     1      13.757  63.773  36.494  1.00  0.00     0.009 C
BRANCH  12  13
HETATM   13  C9  UNL     1      14.360  64.490  35.366  1.00  0.00     0.063 C
BRANCH  13  14
HETATM   14  S1  UNL     1      16.004  65.004  35.449  1.00  0.00    -0.222 SA
HETATM   15  C10 UNL     1      17.171  64.223  34.496  1.00  0.00     0.078 C
BRANCH  14  16
HETATM   16  C11 UNL     1      16.122  66.765  35.491  1.00  0.00     0.082 C
BRANCH  16  17
HETATM   17  C12 UNL     1      14.762  67.371  35.224  1.00  0.00     0.131 C
BRANCH  17  18
HETATM   18  N7  UNL     1      14.886  68.274  34.106  1.00  0.00    -0.366 N
HETATM   19  C13 UNL     1      14.379  69.446  34.180  1.00  0.00     0.196 C
HETATM   20  N8  UNL     1      13.702  69.851  35.354  1.00  0.00    -0.067 NA
HETATM   21  N9  UNL     1      14.503  70.325  33.084  1.00  0.00    -0.067 NA
ATOM     22  H7  UNL     1      15.375  67.979  33.261  1.00  0.00     0.161 HD
ENDBRANCH  17  18
ENDBRANCH  16  17
ENDBRANCH  14  16
ENDBRANCH  13  14
ENDBRANCH  12  13
ENDBRANCH  11  12
ENDBRANCH  10  11
ENDBRANCH   9  10
ENDBRANCH   8   9
ENDBRANCH   6   8
BRANCH   5  23
HETATM   23  C3  UNL     1      13.470  58.735  41.574  1.00  0.00     0.225 C
BRANCH  23  24
HETATM   24  N4  UNL     1      12.479  57.904  41.020  1.00  0.00    -0.301 N
ATOM     25  H4  UNL     1      12.094  58.087  40.093  1.00  0.00     0.187 HD
BRANCH  24  26
HETATM   26  N5  UNL     1      12.053  56.852  41.759  1.00  0.00    -0.344 N
ATOM     27  H52 UNL     1      11.974  55.927  41.338  1.00  0.00     0.176 HD
ATOM     28  H51 UNL     1      11.821  57.024  42.738  1.00  0.00     0.176 HD
ENDBRANCH  24  26
ENDBRANCH  23  24
ENDBRANCH   5  23
BRANCH   7  29
HETATM   29  C15 UNL     1      13.241  63.641  42.283  1.00  0.00     0.300 C
HETATM   30  N10 UNL     1      13.923  64.409  43.227  1.00  0.00    -0.054 NA
HETATM   31  O1  UNL     1      12.766  64.327  41.296  1.00  0.00    -0.268 OA
ENDBRANCH   7  29
TORSDOF 14
ENDMDL