MODEL 3
REMARK VINA RESULT: -7.875754211      1.396      1.796
REMARK  14 active torsions:
REMARK  status: ('A' for Active; 'I' for Inactive)
REMARK    1  A    between atoms: C2_2  and  C3_3
REMARK    2  A    between atoms: C2_2  and  N4_15
REMARK    3  A    between atoms: N1_4  and  C4_6
REMARK    4  A    between atoms: C4_6  and  C5_10
REMARK    5  A    between atoms: C5_10  and  C6_11
REMARK    6  A    between atoms: N4_15  and  C7_17
REMARK    7  A    between atoms: C7_17  and  C8_18
REMARK    8  A    between atoms: C8_18  and  C9_19
REMARK    9  A    between atoms: C9_19  and  N5_20
REMARK       I    between atoms: N5_20  and  C10_22
REMARK   10  A    between atoms: C10_22  and  C11_24
REMARK   11  A    between atoms: C13_29  and  O3_30
REMARK   12  A    between atoms: O3_30  and  C14_31
REMARK   13  A    between atoms: C14_31  and  C15_32
REMARK   14  A    between atoms: N7_33  and  N8_35
ROOT
HETATM    1  N5  UNL     1      13.894  63.075  39.058  1.00  0.00    -0.359 N
ATOM      2  H5  UNL     1      14.466  62.234  38.985  1.00  0.00     0.162 HD
HETATM    3  C10 UNL     1      13.681  63.682  40.314  1.00  0.00     0.243 C
HETATM    4  O1  UNL     1      12.974  64.717  40.385  1.00  0.00    -0.271 OA
ENDROOT
BRANCH   1   5
HETATM    5  C9  UNL     1      13.297  63.654  37.876  1.00  0.00     0.124 C
BRANCH   5   6
HETATM    6  C8  UNL     1      14.331  64.505  37.169  1.00  0.00     0.039 C
BRANCH   6   7
HETATM    7  C7  UNL     1      14.628  63.883  35.843  1.00  0.00     0.121 C
BRANCH   7   8
HETATM    8  N4  UNL     1      14.517  64.834  34.756  1.00  0.00    -0.389 N
ATOM      9  H4  UNL     1      13.704  64.851  34.141  1.00  0.00     0.159 HD
BRANCH   8  10
HETATM   10  C2  UNL     1      15.589  65.738  34.591  1.00  0.00     0.034 C
HETATM   11  C1  UNL     1      16.788  65.280  34.345  1.00  0.00     0.044 C
BRANCH  10  12
HETATM   12  C3  UNL     1      15.348  67.151  34.697  1.00  0.00     0.117 C
HETATM   13  N1  UNL     1      14.182  67.624  34.448  1.00  0.00    -0.354 N
ATOM     14  H1  UNL     1      13.417  67.007  34.174  1.00  0.00     0.166 HD
BRANCH  13  15
HETATM   15  C4  UNL     1      13.981  69.016  34.562  1.00  0.00     0.079 C
HETATM   16  N2  UNL     1      14.675  69.806  33.828  1.00  0.00    -0.389 N
ATOM     17  H22 UNL     1      15.364  69.441  33.170  1.00  0.00     0.157 HD
ATOM     18  H21 UNL     1      14.530  70.812  33.910  1.00  0.00     0.157 HD
BRANCH  15  19
HETATM   19  C5  UNL     1      12.989  69.540  35.510  1.00  0.00     0.119 C
BRANCH  19  20
HETATM   20  C6  UNL     1      13.632  69.755  36.821  1.00  0.00     0.060 C
HETATM   21  N3  UNL     1      13.983  70.897  37.257  1.00  0.00    -0.411 N
ATOM     22  H32 UNL     1      13.803  71.699  36.654  1.00  0.00     0.155 HD
ATOM     23  H31 UNL     1      14.427  71.045  38.163  1.00  0.00     0.155 HD
ENDBRANCH  19  20
ENDBRANCH  15  19
ENDBRANCH  13  15
ENDBRANCH  10  12
ENDBRANCH   8  10
ENDBRANCH   7   8
ENDBRANCH   6   7
ENDBRANCH   5   6
ENDBRANCH   1   5
BRANCH   3  24
HETATM   24  C11 UNL     1      14.286  63.097  41.522  1.00  0.00     0.214 C
HETATM   25  N6  UNL     1      13.732  63.698  42.745  1.00  0.00    -0.343 N
HETATM   26  C12 UNL     1      12.621  62.795  42.570  1.00  0.00     0.250 C
ATOM     27  H6  UNL     1      14.007  64.420  43.410  1.00  0.00     0.163 HD
HETATM   28  O2  UNL     1      11.412  62.896  42.833  1.00  0.00    -0.271 OA
HETATM   29  C13 UNL     1      13.601  61.836  41.987  1.00  0.00     0.245 C
BRANCH  29  30
HETATM   30  O3  UNL     1      13.114  61.004  41.010  1.00  0.00    -0.369 OA
BRANCH  30  31
HETATM   31  C14 UNL     1      13.561  59.702  41.220  1.00  0.00     0.215 C
BRANCH  31  32
HETATM   32  C15 UNL     1      12.813  59.018  42.289  1.00  0.00     0.107 C
HETATM   33  N7  UNL     1      12.512  57.784  42.157  1.00  0.00    -0.300 N
ATOM     34  H7  UNL     1      11.994  57.323  42.905  1.00  0.00     0.187 HD
BRANCH  33  35
HETATM   35  N8  UNL     1      12.862  57.042  41.032  1.00  0.00    -0.250 N
HETATM   36  N9  UNL     1      12.477  55.828  40.972  1.00  0.00    -0.331 N
ATOM     37  H92 UNL     1      11.931  55.427  41.734  1.00  0.00     0.178 HD
ATOM     38  H91 UNL     1      12.734  55.284  40.148  1.00  0.00     0.178 HD
ATOM     39  H8  UNL     1      13.409  57.458  40.278  1.00  0.00     0.207 HD
ENDBRANCH  33  35
ENDBRANCH  31  32
ENDBRANCH  30  31
ENDBRANCH  29  30
ENDBRANCH   3  24
TORSDOF 14
ENDMDL