MODEL 1
REMARK VINA RESULT: -8.469444508      0.000      0.000
REMARK  14 active torsions:
REMARK  status: ('A' for Active; 'I' for Inactive)
REMARK    1  A    between atoms: N3_4  and  C2_6
REMARK    2  A    between atoms: C2_6  and  C3_7
REMARK    3  A    between atoms: C3_7  and  C4_8
REMARK    4  A    between atoms: C4_8  and  N4_9
REMARK    5  A    between atoms: N4_9  and  C5_10
REMARK    6  A    between atoms: C5_10  and  C6_12
REMARK    7  A    between atoms: C6_12  and  O1_13
REMARK    8  A    between atoms: C6_12  and  C7_15
REMARK    9  A    between atoms: C7_15  and  C8_16
REMARK       I    between atoms: C8_16  and  N6_18
REMARK   10  A    between atoms: N6_18  and  C9_19
REMARK   11  A    between atoms: N6_18  and  C13_27
REMARK   12  A    between atoms: C10_20  and  C11_21
REMARK   13  A    between atoms: C11_21  and  N7_22
REMARK   14  A    between atoms: C13_27  and  C14_28
ROOT
HETATM    1  C7  UNL     1      13.631  64.109  38.282  1.00  0.00     0.144 C
ENDROOT
BRANCH   1   2
HETATM    2  C6  UNL     1      14.655  64.612  37.335  1.00  0.00     0.206 C
BRANCH   2   3
HETATM    3  C5  UNL     1      14.510  64.223  35.911  1.00  0.00     0.193 C
HETATM    4  N5  UNL     1      13.391  63.470  35.461  1.00  0.00    -0.069 NA
BRANCH   3   5
HETATM    5  N4  UNL     1      15.349  64.546  35.107  1.00  0.00    -0.409 NA
BRANCH   5   6
HETATM    6  C4  UNL     1      16.370  65.022  34.397  1.00  0.00     0.158 C
BRANCH   6   7
HETATM    7  C3  UNL     1      16.157  66.334  33.612  1.00  0.00     0.079 C
BRANCH   7   8
HETATM    8  C2  UNL     1      16.092  67.509  34.530  1.00  0.00     0.128 C
BRANCH   8   9
HETATM    9  N3  UNL     1      14.767  67.877  34.951  1.00  0.00    -0.367 N
HETATM   10  C1  UNL     1      14.228  68.936  34.479  1.00  0.00     0.196 C
HETATM   11  N1  UNL     1      14.944  69.730  33.551  1.00  0.00    -0.067 NA
HETATM   12  N2  UNL     1      12.908  69.355  34.861  1.00  0.00    -0.067 NA
ATOM     13  H3  UNL     1      14.261  67.297  35.621  1.00  0.00     0.161 HD
ENDBRANCH   8   9
ENDBRANCH   7   8
ENDBRANCH   6   7
ENDBRANCH   5   6
ENDBRANCH   3   5
ENDBRANCH   2   3
BRANCH   2  14
HETATM   14  O1  UNL     1      14.525  66.038  37.440  1.00  0.00    -0.387 OA
ATOM     15  H1  UNL     1      14.944  66.324  38.244  1.00  0.00     0.210 HD
ENDBRANCH   2  14
ENDBRANCH   1   2
BRANCH   1  16
HETATM   16  C8  UNL     1      13.618  64.570  39.642  1.00  0.00     0.230 C
HETATM   17  O2  UNL     1      13.307  65.722  39.975  1.00  0.00    -0.273 OA
HETATM   18  N6  UNL     1      13.986  63.654  40.715  1.00  0.00    -0.307 N
BRANCH  18  19
HETATM   19  C9  UNL     1      14.394  62.324  40.374  1.00  0.00     0.096 C
HETATM   20  C10 UNL     1      13.639  61.102  40.538  1.00  0.00     0.010 C
BRANCH  20  21
HETATM   21  C11 UNL     1      13.264  60.568  41.867  1.00  0.00     0.150 C
BRANCH  21  22
HETATM   22  N7  UNL     1      12.248  61.424  42.507  1.00  0.00    -0.363 N
HETATM   23  C12 UNL     1      11.546  60.899  43.433  1.00  0.00     0.197 C
HETATM   24  N8  UNL     1      11.725  59.564  43.831  1.00  0.00    -0.067 NA
HETATM   25  N9  UNL     1      10.561  61.694  44.070  1.00  0.00    -0.067 NA
ATOM     26  H7  UNL     1      12.113  62.394  42.221  1.00  0.00     0.162 HD
ENDBRANCH  21  22
ENDBRANCH  20  21
ENDBRANCH  18  19
BRANCH  18  27
HETATM   27  C13 UNL     1      14.134  64.100  42.062  1.00  0.00     0.077 C
BRANCH  27  28
HETATM   28  C14 UNL     1      15.262  64.799  42.634  1.00  0.00     0.025 A
HETATM   29  C15 UNL     1      16.317  64.186  43.556  1.00  0.00     0.010 A
HETATM   30  C16 UNL     1      16.677  64.611  42.204  1.00  0.00     0.010 A
ENDBRANCH  27  28
ENDBRANCH  18  27
ENDBRANCH   1  16
TORSDOF 14
ENDMDL