MODEL 1
REMARK VINA RESULT: -8.781445078      0.000      0.000
REMARK  12 active torsions:
REMARK  status: ('A' for Active; 'I' for Inactive)
REMARK    1  A    between atoms: N3_4  and  C2_6
REMARK    2  A    between atoms: C2_6  and  C3_7
REMARK    3  A    between atoms: C3_7  and  C4_8
REMARK    4  A    between atoms: C4_8  and  N4_9
REMARK       I    between atoms: N4_9  and  C5_11
REMARK       I    between atoms: C5_11  and  N5_13
REMARK    5  A    between atoms: N5_13  and  C6_15
REMARK    6  A    between atoms: C6_15  and  C7_16
REMARK    7  A    between atoms: C7_16  and  C8_17
REMARK    8  A    between atoms: C8_17  and  N6_18
REMARK    9  A    between atoms: C10_23  and  C11_24
REMARK   10  A    between atoms: C11_24  and  C12_25
REMARK   11  A    between atoms: C12_25  and  C13_26
REMARK   12  A    between atoms: C13_26  and  N8_27
ROOT
HETATM    1  C8  UNL     1      13.621  63.587  37.836  1.00  0.00     0.129 C
ENDROOT
BRANCH   1   2
HETATM    2  C7  UNL     1      14.377  63.561  39.148  1.00  0.00     0.040 C
BRANCH   2   3
HETATM    3  C6  UNL     1      14.617  62.140  39.603  1.00  0.00     0.126 C
BRANCH   3   4
HETATM    4  N5  UNL     1      13.358  61.461  39.704  1.00  0.00    -0.343 N
HETATM    5  C5  UNL     1      13.313  60.075  40.088  1.00  0.00     0.316 C
HETATM    6  N4  UNL     1      12.059  59.406  40.186  1.00  0.00    -0.343 N
HETATM    7  O1  UNL     1      14.418  59.534  40.317  1.00  0.00    -0.247 OA
ATOM      8  H4  UNL     1      11.200  59.913  39.974  1.00  0.00     0.164 HD
ATOM      9  H5  UNL     1      12.492  61.961  39.503  1.00  0.00     0.164 HD
BRANCH   6  10
HETATM   10  C4  UNL     1      11.990  58.032  40.578  1.00  0.00     0.126 C
BRANCH  10  11
HETATM   11  C3  UNL     1      11.411  57.890  41.946  1.00  0.00     0.039 C
BRANCH  11  12
HETATM   12  C2  UNL     1      12.253  58.743  42.896  1.00  0.00     0.123 C
BRANCH  12  13
HETATM   13  N3  UNL     1      11.423  59.608  43.690  1.00  0.00    -0.367 N
HETATM   14  C1  UNL     1      11.394  60.893  43.540  1.00  0.00     0.196 C
HETATM   15  N1  UNL     1      10.576  61.737  44.323  1.00  0.00    -0.067 NA
HETATM   16  N2  UNL     1      12.226  61.485  42.538  1.00  0.00    -0.067 NA
ATOM     17  H3  UNL     1      10.830  59.189  44.405  1.00  0.00     0.161 HD
ENDBRANCH  12  13
ENDBRANCH  11  12
ENDBRANCH  10  11
ENDBRANCH   6  10
ENDBRANCH   3   4
ENDBRANCH   2   3
ENDBRANCH   1   2
BRANCH   1  18
HETATM   18  N6  UNL     1      14.265  64.379  36.838  1.00  0.00    -0.327 N
HETATM   19  C9  UNL     1      14.644  63.906  35.499  1.00  0.00     0.360 C
HETATM   20  N7  UNL     1      15.089  65.094  34.793  1.00  0.00    -0.046 N
HETATM   21  C10 UNL     1      15.674  65.895  35.805  1.00  0.00     0.279 C
ATOM     22  H72 UNL     1      15.701  64.905  33.999  1.00  0.00     0.280 HD
ATOM     23  H71 UNL     1      14.357  65.562  34.258  1.00  0.00     0.280 HD
HETATM   24  C15 UNL     1      14.665  65.743  36.915  1.00  0.00     0.252 C
HETATM   25  O2  UNL     1      14.247  66.579  37.731  1.00  0.00    -0.271 OA
BRANCH  21  26
HETATM   26  C11 UNL     1      15.964  67.306  35.494  1.00  0.00     0.044 C
BRANCH  26  27
HETATM   27  C12 UNL     1      15.191  67.955  34.412  1.00  0.00     0.022 C
BRANCH  27  28
HETATM   28  C13 UNL     1      14.047  68.805  34.850  1.00  0.00     0.122 C
BRANCH  28  29
HETATM   29  N8  UNL     1      14.191  69.285  36.205  1.00  0.00    -0.367 N
HETATM   30  C14 UNL     1      13.292  69.900  36.854  1.00  0.00     0.196 C
HETATM   31  N9  UNL     1      12.010  70.221  36.376  1.00  0.00    -0.067 NA
HETATM   32  N10 UNL     1      13.609  70.304  38.195  1.00  0.00    -0.067 NA
ATOM     33  H8  UNL     1      15.081  69.116  36.675  1.00  0.00     0.161 HD
ENDBRANCH  28  29
ENDBRANCH  27  28
ENDBRANCH  26  27
ENDBRANCH  21  26
ENDBRANCH   1  18
TORSDOF 12
ENDMDL