MODEL 3
REMARK VINA RESULT: -6.513686688      3.048      4.463
REMARK  7 active torsions:
REMARK  status: ('A' for Active; 'I' for Inactive)
REMARK    1  A    between atoms: S1_2  and  C2_3
REMARK    2  A    between atoms: C3_5  and  C4_6
REMARK    3  A    between atoms: C6_10  and  C7_11
REMARK    4  A    between atoms: C7_11  and  O1_12
REMARK    5  A    between atoms: C7_11  and  N1_14
REMARK    6  A    between atoms: N1_14  and  O2_16
REMARK    7  A    between atoms: C8_18  and  N2_19
ROOT
HETATM    1  C2  UNL     1      -4.511 -16.527  -2.481  1.00  0.00     0.075 A
HETATM    2  S2  UNL     1      -5.564 -17.392  -3.472  1.00  0.00    -0.080 SA
HETATM    3  C3  UNL     1      -5.815 -18.778  -2.460  1.00  0.00     0.051 A
HETATM    4  C6  UNL     1      -5.049 -18.506  -1.368  1.00  0.00     0.069 A
HETATM    5  C8  UNL     1      -4.363 -17.319  -1.379  1.00  0.00     0.142 A
ENDROOT
BRANCH   4   6
HETATM    6  C7  UNL     1      -4.945 -19.475  -0.235  1.00  0.00     0.174 C
BRANCH   6   7
HETATM    7  O1  UNL     1      -5.686 -19.410   0.887  1.00  0.00    -0.344 OA
ATOM      8  H1  UNL     1      -6.636 -19.407   0.900  1.00  0.00     0.219 HD
ENDBRANCH   6   7
BRANCH   6   9
HETATM    9  N1  UNL     1      -4.079 -20.464  -0.314  1.00  0.00    -0.247 N
ATOM     10  H1  UNL     1      -4.420 -21.424  -0.282  1.00  0.00     0.196 HD
BRANCH   9  11
HETATM   11  O2  UNL     1      -2.733 -20.240  -0.436  1.00  0.00    -0.288 OA
ATOM     12  H2  UNL     1      -2.378 -19.671  -1.108  1.00  0.00     0.244 HD
ENDBRANCH   9  11
ENDBRANCH   6   9
ENDBRANCH   4   6
BRANCH   3  13
HETATM   13  C4  UNL     1      -6.714 -19.931  -2.820  1.00  0.00     0.191 C
HETATM   14  C5  UNL     1      -5.802 -21.025  -3.451  1.00  0.00     0.071 C
HETATM   15  F1  UNL     1      -7.377 -20.474  -1.776  1.00  0.00    -0.225 F
HETATM   16 BR1  UNL     1      -7.944 -19.360  -4.200  1.00  0.00    -0.043 Br
ENDBRANCH   3  13
BRANCH   5  17
HETATM   17  N2  UNL     1      -3.516 -16.853  -0.277  1.00  0.00    -0.113 N
HETATM   18  O3  UNL     1      -2.322 -17.174  -0.271  1.00  0.00    -0.532 OA
HETATM   19  O4  UNL     1      -3.996 -16.087   0.742  1.00  0.00    -0.532 OA
ENDBRANCH   5  17
BRANCH   1  20
HETATM   20  S1  UNL     1      -3.737 -14.904  -2.758  1.00  0.00    -0.125 SA
HETATM   21  C1  UNL     1      -4.621 -13.646  -1.793  1.00  0.00     0.096 C
ENDBRANCH   1  20
TORSDOF 7
ENDMDL