MODEL 5
REMARK VINA RESULT: -8.039830359      2.308      4.421
REMARK  5 active torsions:
REMARK  status: ('A' for Active; 'I' for Inactive)
REMARK    1  A    between atoms: C2_2  and  O1_4
REMARK    2  A    between atoms: O1_4  and  C4_5
REMARK    3  A    between atoms: C4_5  and  N2_9
REMARK    4  A    between atoms: C5_12  and  C6_13
REMARK    5  A    between atoms: C8_17  and  C9_18
ROOT
HETATM    1  N2  UNL     1      -5.135 -16.972  -3.113  1.00  0.00    -0.221 N
HETATM    2  N3  UNL     1      -5.901 -16.965  -4.229  1.00  0.00    -0.289 N
ATOM      3  H3  UNL     1      -5.794 -16.327  -5.018  1.00  0.00     0.187 HD
HETATM    4  C5  UNL     1      -6.817 -17.926  -4.131  1.00  0.00     0.092 A
HETATM    5  C7  UNL     1      -6.625 -18.553  -2.927  1.00  0.00     0.062 A
HETATM    6  C8  UNL     1      -5.553 -17.941  -2.288  1.00  0.00     0.068 A
ENDROOT
BRANCH   6   7
HETATM    7  C9  UNL     1      -5.041 -18.326  -0.982  1.00  0.00     0.074 C
HETATM    8  C10 UNL     1      -5.809 -19.560  -0.550  1.00  0.00     0.045 C
HETATM    9  C11 UNL     1      -4.985 -17.271   0.072  1.00  0.00     0.048 C
HETATM   10  C12 UNL     1      -4.920 -17.908   1.467  1.00  0.00     0.085 C
HETATM   11  S1  UNL     1      -3.556 -19.075   1.605  1.00  0.00    -0.095 SA
HETATM   12  C13 UNL     1      -3.026 -19.496  -0.065  1.00  0.00     0.134 C
HETATM   13  N4  UNL     1      -2.151 -20.413  -0.268  1.00  0.00    -0.380 N
HETATM   14  N5  UNL     1      -3.634 -18.760  -1.139  1.00  0.00    -0.356 N
ATOM     15  H42 UNL     1      -1.720 -20.935   0.494  1.00  0.00     0.158 HD
ATOM     16  H41 UNL     1      -1.851 -20.652  -1.214  1.00  0.00     0.158 HD
ATOM     17  H5  UNL     1      -3.111 -18.543  -1.987  1.00  0.00     0.162 HD
ENDBRANCH   6   7
BRANCH   1  18
HETATM   18  C4  UNL     1      -4.104 -16.010  -2.972  1.00  0.00     0.239 C
HETATM   19  N1  UNL     1      -4.279 -14.800  -3.403  1.00  0.00    -0.364 N
ATOM     20  H12 UNL     1      -3.537 -14.108  -3.302  1.00  0.00     0.159 HD
ATOM     21  H11 UNL     1      -5.186 -14.604  -3.828  1.00  0.00     0.159 HD
BRANCH  18  22
HETATM   22  O1  UNL     1      -2.881 -16.275  -2.400  1.00  0.00    -0.316 OA
BRANCH  22  23
HETATM   23  C2  UNL     1      -2.128 -15.343  -1.663  1.00  0.00     0.123 C
HETATM   24  C1  UNL     1      -2.078 -15.675  -0.210  1.00  0.00     0.040 C
HETATM   25  C3  UNL     1      -0.762 -15.089  -2.271  1.00  0.00     0.040 C
ENDBRANCH  22  23
ENDBRANCH  18  22
ENDBRANCH   1  18
BRANCH   4  26
HETATM   26  C6  UNL     1      -7.869 -18.261  -5.159  1.00  0.00     0.404 C
HETATM   27  F1  UNL     1      -7.299 -18.742  -6.288  1.00  0.00    -0.207 F
HETATM   28  F2  UNL     1      -8.826 -19.103  -4.620  1.00  0.00    -0.207 F
ENDBRANCH   4  26
TORSDOF 5
ENDMDL