MODEL 4
REMARK VINA RESULT: -6.408782778      3.091      4.699
REMARK  8 active torsions:
REMARK  status: ('A' for Active; 'I' for Inactive)
REMARK    1  A    between atoms: C2_2  and  N1_5
REMARK    2  A    between atoms: N1_5  and  C4_7
REMARK    3  A    between atoms: C8_12  and  O1_13
REMARK    4  A    between atoms: N2_15  and  C9_16
REMARK    5  A    between atoms: C9_16  and  C10_17
REMARK    6  A    between atoms: C10_17  and  C11_18
REMARK    7  A    between atoms: C11_18  and  O2_19
REMARK    8  A    between atoms: C12_21  and  O3_22
ROOT
HETATM    1  C4  UNL     1      -1.992 -15.797  -1.709  1.00  0.00     0.082 C
HETATM    2  S1  UNL     1      -2.033 -16.608  -3.326  1.00  0.00    -0.107 SA
HETATM    3  C5  UNL     1      -2.016 -18.307  -2.652  1.00  0.00     0.125 C
HETATM    4  C6  UNL     1      -2.432 -18.087  -1.258  1.00  0.00     0.020 A
HETATM    5  C7  UNL     1      -2.417 -16.837  -0.795  1.00  0.00     0.059 A
HETATM    6  C8  UNL     1      -2.848 -16.876   0.541  1.00  0.00     0.158 A
HETATM    7  N2  UNL     1      -3.121 -18.148   0.884  1.00  0.00    -0.307 N
HETATM    8  C12 UNL     1      -2.872 -18.902  -0.201  1.00  0.00     0.152 A
ENDROOT
BRANCH   1   9
HETATM    9  N1  UNL     1      -1.652 -14.593  -1.541  1.00  0.00    -0.362 N
ATOM     10  H1  UNL     1      -0.698 -14.433  -1.217  1.00  0.00     0.162 HD
BRANCH   9  11
HETATM   11  C2  UNL     1      -2.447 -13.441  -1.752  1.00  0.00     0.101 C
HETATM   12  C1  UNL     1      -1.585 -12.228  -2.113  1.00  0.00     0.056 C
HETATM   13  C3  UNL     1      -3.362 -13.057  -0.644  1.00  0.00     0.056 C
HETATM   14 CL1  UNL     1      -3.467 -13.747  -3.201  1.00  0.00    -0.096 Cl
ENDBRANCH   9  11
ENDBRANCH   1   9
BRANCH   6  15
HETATM   15  O1  UNL     1      -2.997 -15.825   1.432  1.00  0.00    -0.345 OA
ATOM     16  H1  UNL     1      -2.952 -14.892   1.260  1.00  0.00     0.219 HD
ENDBRANCH   6  15
BRANCH   8  17
HETATM   17  O3  UNL     1      -3.032 -20.273  -0.257  1.00  0.00    -0.345 OA
ATOM     18  H3  UNL     1      -2.844 -20.879   0.450  1.00  0.00     0.219 HD
ENDBRANCH   8  17
BRANCH   7  19
HETATM   19  C9  UNL     1      -3.592 -18.634   2.167  1.00  0.00     0.135 C
BRANCH  19  20
HETATM   20  C10 UNL     1      -2.568 -19.506   2.852  1.00  0.00     0.046 C
BRANCH  20  21
HETATM   21  C11 UNL     1      -2.500 -19.064   4.301  1.00  0.00     0.165 C
BRANCH  21  22
HETATM   22  O2  UNL     1      -3.368 -19.793   5.104  1.00  0.00    -0.401 OA
ATOM     23  H2  UNL     1      -3.024 -19.906   5.982  1.00  0.00     0.209 HD
ENDBRANCH  21  22
ENDBRANCH  20  21
ENDBRANCH  19  20
ENDBRANCH   7  19
TORSDOF 8
ENDMDL