MODEL 4
REMARK VINA RESULT: -7.867634443      2.371      3.396
REMARK  5 active torsions:
REMARK  status: ('A' for Active; 'I' for Inactive)
REMARK    1  A    between atoms: C2_2  and  C5_5
REMARK    2  A    between atoms: N1_10  and  N2_12
REMARK    3  A    between atoms: N2_12  and  N3_14
REMARK    4  A    between atoms: C10_15  and  C11_16
REMARK    5  A    between atoms: C11_16  and  O1_17
ROOT
HETATM    1  C5  UNL     1      -4.365 -16.156  -0.546  1.00  0.00     0.072 C
HETATM    2  C6  UNL     1      -4.286 -14.845  -1.299  1.00  0.00     0.012 C
HETATM    3  C7  UNL     1      -3.315 -14.850  -2.439  1.00  0.00     0.006 C
HETATM    4  C8  UNL     1      -3.592 -15.921  -3.471  1.00  0.00     0.060 C
HETATM    5  C9  UNL     1      -4.655 -16.765  -2.870  1.00  0.00     0.076 C
HETATM    6  N1  UNL     1      -5.709 -16.976  -3.531  1.00  0.00    -0.288 N
ATOM      7  H1  UNL     1      -5.759 -16.542  -4.453  1.00  0.00     0.188 HD
HETATM    8  C13 UNL     1      -4.340 -17.283  -1.508  1.00  0.00     0.287 C
HETATM    9  F1  UNL     1      -5.284 -18.261  -1.241  1.00  0.00    -0.199 F
HETATM   10  F2  UNL     1      -3.148 -17.936  -1.650  1.00  0.00    -0.199 F
ENDROOT
BRANCH   6  11
HETATM   11  N2  UNL     1      -6.805 -17.730  -3.145  1.00  0.00    -0.232 N
ATOM     12  H2  UNL     1      -7.138 -17.667  -2.183  1.00  0.00     0.209 HD
BRANCH  11  13
HETATM   13  N3  UNL     1      -7.463 -18.571  -4.038  1.00  0.00    -0.198 N
HETATM   14  C10 UNL     1      -8.470 -18.175  -4.859  1.00  0.00     0.146 A
HETATM   15  N4  UNL     1      -8.823 -19.273  -5.549  1.00  0.00    -0.283 N
HETATM   16  N5  UNL     1      -8.074 -20.291  -5.173  1.00  0.00    -0.273 N
ATOM     17  H4  UNL     1      -9.557 -19.312  -6.255  1.00  0.00     0.188 HD
HETATM   18  C12 UNL     1      -7.210 -19.880  -4.223  1.00  0.00     0.215 A
ATOM     19  H5  UNL     1      -8.139 -21.239  -5.543  1.00  0.00     0.189 HD
HETATM   20  S1  UNL     1      -6.081 -20.770  -3.448  1.00  0.00    -0.037 SA
BRANCH  14  21
HETATM   21  C11 UNL     1      -9.050 -16.797  -4.960  1.00  0.00     0.244 C
BRANCH  21  22
HETATM   22  O1  UNL     1      -8.060 -15.827  -4.853  1.00  0.00    -0.393 OA
ATOM     23  H1  UNL     1      -7.434 -15.898  -5.564  1.00  0.00     0.209 HD
ENDBRANCH  21  22
ENDBRANCH  14  21
ENDBRANCH  11  13
ENDBRANCH   6  11
BRANCH   1  24
HETATM   24  C2  UNL     1      -3.463 -16.209   0.630  1.00  0.00    -0.042 C
HETATM   25  C1  UNL     1      -3.464 -17.445   1.440  1.00  0.00     0.015 C
HETATM   26  C3  UNL     1      -3.882 -15.092   1.614  1.00  0.00     0.015 C
HETATM   27  C4  UNL     1      -2.015 -15.870   0.343  1.00  0.00     0.015 C
ENDBRANCH   1  24
TORSDOF 5
ENDMDL