MODEL 4
REMARK VINA RESULT: -7.457830021      2.774      3.988
REMARK  4 active torsions:
REMARK  status: ('A' for Active; 'I' for Inactive)
REMARK    1  A    between atoms: C1_2  and  C2_4
REMARK    2  A    between atoms: C2_4  and  O3_5
REMARK    3  A    between atoms: C2_4  and  C3_7
REMARK    4  A    between atoms: C3_7  and  N1_8
ROOT
HETATM    1  N1  UNL     1      -5.119 -18.556  -2.581  1.00  0.00    -0.304 N
HETATM    2  C4  UNL     1      -5.563 -19.247  -1.518  1.00  0.00     0.223 A
HETATM    3  S1  UNL     1      -6.595 -20.501  -1.686  1.00  0.00    -0.032 SA
HETATM    4  O4  UNL     1      -5.194 -18.955  -0.280  1.00  0.00    -0.280 OA
HETATM    5  C5  UNL     1      -4.383 -17.985  -0.027  1.00  0.00     0.157 A
HETATM    6  C6  UNL     1      -3.888 -17.233  -1.089  1.00  0.00     0.103 A
HETATM    7  C7  UNL     1      -4.270 -17.536  -2.372  1.00  0.00     0.135 A
HETATM    8  S2  UNL     1      -3.656 -16.612  -3.570  1.00  0.00    -0.058 SA
HETATM    9  N2  UNL     1      -2.983 -16.121  -1.055  1.00  0.00    -0.385 N
ATOM     10  H2  UNL     1      -2.940 -15.505  -1.867  1.00  0.00     0.159 HD
HETATM   11  C8  UNL     1      -2.125 -15.828   0.080  1.00  0.00     0.120 C
HETATM   12  C9  UNL     1      -2.886 -15.473   1.297  1.00  0.00     0.026 C
HETATM   13  C10 UNL     1      -3.987 -16.298   1.750  1.00  0.00     0.088 C
HETATM   14  C11 UNL     1      -4.034 -17.744   1.398  1.00  0.00     0.294 C
HETATM   15  F1  UNL     1      -2.895 -18.432   1.767  1.00  0.00    -0.199 F
HETATM   16  F2  UNL     1      -5.068 -18.313   2.138  1.00  0.00    -0.199 F
ENDROOT
BRANCH   1  17
HETATM   17  C3  UNL     1      -5.523 -18.876  -3.914  1.00  0.00     0.175 C
BRANCH  17  18
HETATM   18  C2  UNL     1      -6.596 -17.973  -4.477  1.00  0.00     0.237 C
BRANCH  18  19
HETATM   19  C1  UNL     1      -6.891 -18.452  -5.843  1.00  0.00     0.204 C
HETATM   20  O1  UNL     1      -6.999 -17.675  -6.813  1.00  0.00    -0.646 OA
HETATM   21  O2  UNL     1      -7.052 -19.805  -6.055  1.00  0.00    -0.646 OA
ENDBRANCH  18  19
BRANCH  18  22
HETATM   22  O3  UNL     1      -7.742 -17.921  -3.715  1.00  0.00    -0.383 OA
ATOM     23  H3  UNL     1      -7.577 -18.225  -2.831  1.00  0.00     0.210 HD
ENDBRANCH  18  22
ENDBRANCH  17  18
ENDBRANCH   1  17
TORSDOF 4
ENDMDL