MODEL 4
REMARK VINA RESULT: -8.418460578      0.912      1.758
REMARK  4 active torsions:
REMARK  status: ('A' for Active; 'I' for Inactive)
REMARK    1  A    between atoms: C7_7  and  N1_8
REMARK    2  A    between atoms: N1_8  and  N2_10
REMARK    3  A    between atoms: C8_12  and  C10_15
REMARK    4  A    between atoms: C12_22  and  C13_23
ROOT
HETATM    1  N2  UNL     1      -8.608 -18.766  -4.313  1.00  0.00    -0.287 N
ATOM      2  H2  UNL     1      -9.210 -18.158  -3.756  1.00  0.00     0.188 HD
HETATM    3  C8  UNL     1      -8.768 -18.811  -5.613  1.00  0.00     0.169 C
HETATM    4  C9  UNL     1      -7.941 -19.653  -6.425  1.00  0.00     0.122 C
HETATM    5  N3  UNL     1      -7.266 -20.331  -7.060  1.00  0.00    -0.190 NA
ENDROOT
BRANCH   3   6
HETATM    6  C10 UNL     1      -9.788 -18.009  -6.265  1.00  0.00     0.149 C
HETATM    7  N4  UNL     1     -10.190 -18.301  -7.450  1.00  0.00    -0.385 N
ATOM      8  H42 UNL     1      -9.780 -19.105  -7.924  1.00  0.00     0.157 HD
ATOM      9  H41 UNL     1     -10.907 -17.737  -7.908  1.00  0.00     0.157 HD
HETATM   10  N5  UNL     1     -10.357 -16.893  -5.608  1.00  0.00    -0.080 NA
ENDBRANCH   3   6
BRANCH   1  11
HETATM   11  N1  UNL     1      -7.645 -19.522  -3.683  1.00  0.00    -0.293 N
ATOM     12  H1  UNL     1      -7.690 -20.539  -3.735  1.00  0.00     0.187 HD
BRANCH  11  13
HETATM   13  C7  UNL     1      -6.570 -18.891  -2.950  1.00  0.00     0.089 A
HETATM   14  C6  UNL     1      -6.443 -18.755  -1.596  1.00  0.00     0.047 A
HETATM   15  C5  UNL     1      -5.349 -18.127  -1.141  1.00  0.00    -0.036 A
HETATM   16  C4  UNL     1      -4.955 -17.838   0.300  1.00  0.00     0.077 C
HETATM   17  C11 UNL     1      -4.454 -17.678  -2.083  1.00  0.00     0.029 A
HETATM   18  C2  UNL     1      -3.497 -18.039   0.461  1.00  0.00     0.059 C
HETATM   19  C1  UNL     1      -3.281 -19.509   0.858  1.00  0.00     0.046 C
HETATM   20  C3  UNL     1      -3.005 -17.231   1.669  1.00  0.00     0.046 C
HETATM   21  O1  UNL     1      -2.702 -17.795  -0.613  1.00  0.00    -0.361 OA
HETATM   22  C12 UNL     1      -3.221 -16.972  -1.588  1.00  0.00     0.270 C
HETATM   23  S1  UNL     1      -5.166 -18.143  -3.555  1.00  0.00    -0.072 SA
BRANCH  22  24
HETATM   24  C13 UNL     1      -2.239 -17.002  -2.766  1.00  0.00     0.418 C
HETATM   25  F1  UNL     1      -1.099 -16.338  -2.299  1.00  0.00    -0.168 F
HETATM   26  F2  UNL     1      -2.706 -16.277  -3.828  1.00  0.00    -0.168 F
HETATM   27  F3  UNL     1      -1.869 -18.281  -3.086  1.00  0.00    -0.168 F
ENDBRANCH  22  24
ENDBRANCH  11  13
ENDBRANCH   1  11
TORSDOF 4
ENDMDL