MODEL 5
REMARK VINA RESULT: -7.291779581      3.599      4.573
REMARK  7 active torsions:
REMARK  status: ('A' for Active; 'I' for Inactive)
REMARK    1  A    between atoms: C3_3  and  C4_4
REMARK    2  A    between atoms: C5_5  and  C6_6
REMARK    3  A    between atoms: C6_6  and  O2_8
REMARK    4  A    between atoms: O2_8  and  C7_9
REMARK    5  A    between atoms: C10_12  and  O3_13
REMARK    6  A    between atoms: C11_16  and  O5_17
REMARK    7  A    between atoms: C14_21  and  S1_23
ROOT
HETATM    1  C7  UNL     1      -4.195 -17.797  -1.875  1.00  0.00     0.158 C
HETATM    2  C8  UNL     1      -3.883 -17.454  -0.636  1.00  0.00     0.031 C
HETATM    3  C9  UNL     1      -3.474 -18.369   0.420  1.00  0.00     0.046 A
HETATM    4  C10 UNL     1      -2.958 -19.636   0.673  1.00  0.00     0.197 A
HETATM    5  O4  UNL     1      -2.848 -19.775   1.988  1.00  0.00    -0.264 OA
HETATM    6  C11 UNL     1      -3.264 -18.667   2.584  1.00  0.00     0.193 A
HETATM    7  C12 UNL     1      -3.671 -17.746   1.636  1.00  0.00     0.020 A
HETATM    8  C13 UNL     1      -4.224 -16.385   1.408  1.00  0.00     0.106 C
HETATM    9  C14 UNL     1      -3.868 -16.104  -0.016  1.00  0.00     0.199 C
HETATM   10  F1  UNL     1      -4.752 -15.249  -0.641  1.00  0.00    -0.224 F
ENDROOT
BRANCH   1  11
HETATM   11  O2  UNL     1      -4.559 -16.780  -2.731  1.00  0.00    -0.287 OA
BRANCH  11  12
HETATM   12  C6  UNL     1      -5.896 -16.755  -3.211  1.00  0.00     0.287 C
HETATM   13  O1  UNL     1      -6.221 -15.685  -3.745  1.00  0.00    -0.260 OA
BRANCH  12  14
HETATM   14  C5  UNL     1      -6.728 -17.929  -3.041  1.00  0.00     0.082 C
HETATM   15  C4  UNL     1      -7.154 -18.668  -3.992  1.00  0.00     0.006 C
BRANCH  15  16
HETATM   16  C3  UNL     1      -6.920 -18.518  -5.396  1.00  0.00    -0.004 C
HETATM   17  C2  UNL     1      -7.921 -18.067  -6.193  1.00  0.00    -0.031 C
HETATM   18  C1  UNL     1      -7.665 -17.917  -7.641  1.00  0.00     0.036 C
ENDBRANCH  15  16
ENDBRANCH  12  14
ENDBRANCH  11  12
ENDBRANCH   1  11
BRANCH   9  19
HETATM   19  S1  UNL     1      -2.162 -15.472  -0.189  1.00  0.00    -0.010 SA
HETATM   20 CL1  UNL     1      -2.044 -14.313  -1.945  1.00  0.00    -0.040 Cl
ENDBRANCH   9  19
BRANCH   4  21
HETATM   21  O3  UNL     1      -2.628 -20.567  -0.307  1.00  0.00    -0.340 OA
ATOM     22  H3  UNL     1      -3.240 -20.927  -0.939  1.00  0.00     0.220 HD
ENDBRANCH   4  21
BRANCH   6  23
HETATM   23  O5  UNL     1      -3.273 -18.501   3.951  1.00  0.00    -0.340 OA
ATOM     24  H5  UNL     1      -3.742 -17.800   4.388  1.00  0.00     0.220 HD
ENDBRANCH   6  23
TORSDOF 7
ENDMDL