MODEL 2
REMARK VINA RESULT: -7.523921064      2.888      3.600
REMARK  7 active torsions:
REMARK  status: ('A' for Active; 'I' for Inactive)
REMARK    1  A    between atoms: C2_2  and  C5_5
REMARK    2  A    between atoms: C5_5  and  N1_6
REMARK       I    between atoms: N1_6  and  C6_8
REMARK    3  A    between atoms: C6_8  and  C7_10
REMARK    4  A    between atoms: C8_11  and  O2_12
REMARK    5  A    between atoms: N2_15  and  S1_16
REMARK    6  A    between atoms: S1_16  and  C10_17
REMARK    7  A    between atoms: C13_23  and  O3_24
ROOT
HETATM    1  C7  UNL     1      -4.757 -18.320  -2.936  1.00  0.00     0.120 A
HETATM    2  C8  UNL     1      -4.135 -17.077  -2.821  1.00  0.00     0.131 A
HETATM    3  C9  UNL     1      -3.510 -17.042  -1.554  1.00  0.00     0.161 A
HETATM    4  N2  UNL     1      -2.771 -16.291  -0.728  1.00  0.00    -0.273 N
HETATM    5  C11 UNL     1      -2.544 -16.980   0.396  1.00  0.00     0.124 A
HETATM    6  C12 UNL     1      -3.159 -18.196   0.271  1.00  0.00     0.119 A
HETATM    7  N3  UNL     1      -3.741 -18.200  -0.936  1.00  0.00    -0.283 N
HETATM    8  C13 UNL     1      -4.500 -18.981  -1.775  1.00  0.00     0.167 A
ENDROOT
BRANCH   1   9
HETATM    9  C6  UNL     1      -5.514 -18.753  -4.111  1.00  0.00     0.258 C
HETATM   10  N1  UNL     1      -6.223 -17.899  -4.978  1.00  0.00    -0.356 N
ATOM     11  H1  UNL     1      -6.190 -16.910  -4.730  1.00  0.00     0.162 HD
HETATM   12  O1  UNL     1      -5.559 -19.993  -4.408  1.00  0.00    -0.267 OA
BRANCH  10  13
HETATM   13  C5  UNL     1      -6.972 -18.196  -6.136  1.00  0.00     0.131 C
BRANCH  13  14
HETATM   14  C2  UNL     1      -8.408 -18.498  -6.059  1.00  0.00    -0.035 C
HETATM   15  C1  UNL     1      -9.076 -18.555  -7.434  1.00  0.00     0.016 C
HETATM   16  C3  UNL     1      -8.916 -19.550  -5.158  1.00  0.00     0.016 C
HETATM   17  C4  UNL     1      -9.037 -17.172  -5.464  1.00  0.00     0.016 C
ENDBRANCH  13  14
ENDBRANCH  10  13
ENDBRANCH   1   9
BRANCH   2  18
HETATM   18  O2  UNL     1      -4.071 -16.031  -3.679  1.00  0.00    -0.356 OA
ATOM     19  H2  UNL     1      -4.386 -15.139  -3.600  1.00  0.00     0.218 HD
ENDBRANCH   2  18
BRANCH   8  20
HETATM   20  O3  UNL     1      -4.923 -20.261  -1.439  1.00  0.00    -0.345 OA
ATOM     21  H3  UNL     1      -5.819 -20.542  -1.297  1.00  0.00     0.219 HD
ENDBRANCH   8  20
BRANCH   4  22
HETATM   22  S1  UNL     1      -2.203 -14.651  -1.107  1.00  0.00     0.024 SA
BRANCH  22  23
HETATM   23  C10 UNL     1      -0.859 -14.764  -2.304  1.00  0.00     0.436 C
HETATM   24  F1  UNL     1       0.257 -14.108  -1.862  1.00  0.00    -0.201 F
HETATM   25  F2  UNL     1      -0.482 -16.093  -2.518  1.00  0.00    -0.201 F
ENDBRANCH  22  23
ENDBRANCH   4  22
TORSDOF 7
ENDMDL