MODEL 4
REMARK VINA RESULT: -8.278725898      1.617      1.758
REMARK  6 active torsions:
REMARK  status: ('A' for Active; 'I' for Inactive)
REMARK    1  A    between atoms: C2_2  and  O1_3
REMARK    2  A    between atoms: O1_3  and  C3_4
REMARK    3  A    between atoms: C3_4  and  C4_6
REMARK    4  A    between atoms: N1_8  and  N2_9
REMARK    5  A    between atoms: C10_15  and  C11_16
REMARK    6  A    between atoms: C12_21  and  N4_22
ROOT
HETATM    1  C4  UNL     1      -5.849 -18.771  -3.946  1.00  0.00     0.142 A
HETATM    2  C5  UNL     1      -5.342 -17.636  -3.329  1.00  0.00     0.171 A
HETATM    3  N1  UNL     1      -4.782 -18.014  -2.169  1.00  0.00    -0.096 N
HETATM    4  C12 UNL     1      -4.914 -19.342  -2.023  1.00  0.00     0.697 A
HETATM    5  N5  UNL     1      -5.561 -19.779  -3.110  1.00  0.00    -0.183 N
ATOM      6  H5  UNL     1      -5.806 -20.754  -3.280  1.00  0.00     0.184 HD
ENDROOT
BRANCH   3   7
HETATM    7  N2  UNL     1      -4.158 -17.176  -1.245  1.00  0.00    -0.287 N
HETATM    8  C6  UNL     1      -2.907 -16.903  -1.261  1.00  0.00     0.015 C
HETATM    9  C7  UNL     1      -1.820 -17.346  -2.175  1.00  0.00     0.055 C
HETATM   10  C10 UNL     1      -2.216 -16.012  -0.290  1.00  0.00     0.096 C
HETATM   11  C8  UNL     1      -1.110 -16.035  -2.449  1.00  0.00     0.007 C
HETATM   12  C9  UNL     1      -1.379 -15.153  -1.246  1.00  0.00     0.018 C
ATOM     13  H2  UNL     1      -4.732 -16.755  -0.514  1.00  0.00     0.187 HD
BRANCH  10  14
HETATM   14  C11 UNL     1      -3.122 -15.217   0.522  1.00  0.00     0.100 C
HETATM   15 CL1  UNL     1      -3.684 -13.661  -0.037  1.00  0.00    -0.068 Cl
HETATM   16  N3  UNL     1      -3.525 -15.632   1.656  1.00  0.00    -0.291 N
HETATM   17 CL2  UNL     1      -3.034 -17.155   2.311  1.00  0.00     0.011 Cl
ATOM     18  H3  UNL     1      -4.159 -15.045   2.197  1.00  0.00     0.181 HD
ENDBRANCH  10  14
ENDBRANCH   3   7
BRANCH   4  19
HETATM   19  N4  UNL     1      -4.490 -20.070  -1.014  1.00  0.00    -0.233 N
ATOM     20  H42 UNL     1      -3.824 -20.841  -1.055  1.00  0.00     0.174 HD
ATOM     21  H41 UNL     1      -4.761 -19.974  -0.036  1.00  0.00     0.174 HD
ENDBRANCH   4  19
BRANCH   1  22
HETATM   22  C3  UNL     1      -6.549 -18.843  -5.237  1.00  0.00     0.312 C
HETATM   23  O2  UNL     1      -6.848 -19.975  -5.679  1.00  0.00    -0.258 OA
BRANCH  22  24
HETATM   24  O1  UNL     1      -6.889 -17.733  -5.981  1.00  0.00    -0.317 OA
BRANCH  24  25
HETATM   25  C2  UNL     1      -8.243 -17.312  -6.062  1.00  0.00     0.175 C
HETATM   26  C1  UNL     1      -8.647 -16.529  -4.824  1.00  0.00     0.034 C
ENDBRANCH  24  25
ENDBRANCH  22  24
ENDBRANCH   1  22
TORSDOF 6
ENDMDL