MODEL 2
REMARK VINA RESULT: -5.665954988      1.007      1.007
REMARK  5 active torsions:
REMARK  status: ('A' for Active; 'I' for Inactive)
REMARK    1  A    between atoms: N2_5  and  O2_6
REMARK    2  A    between atoms: N3_17  and  C8_18
REMARK    3  A    between atoms: C8_18  and  O5_19
REMARK    4  A    between atoms: C8_18  and  C9_21
REMARK    5  A    between atoms: C9_21  and  N4_22
ROOT
HETATM    1  C1  UNL     1       2.113  40.457  20.439  1.00  0.00     0.162 C
HETATM    2  N1  UNL     1       1.117  40.069  21.412  1.00  0.00    -0.295 N
HETATM    3  C2  UNL     1      -0.175  40.217  21.159  1.00  0.00     0.356 A
HETATM    4  O1  UNL     1      -0.598  40.695  20.077  1.00  0.00    -0.244 OA
HETATM    5  N2  UNL     1      -1.038  39.855  22.061  1.00  0.00    -0.133 N
HETATM    6  C3  UNL     1      -0.628  39.332  23.248  1.00  0.00     0.291 A
HETATM    7  O3  UNL     1      -1.608  39.053  23.950  1.00  0.00    -0.265 OA
HETATM    8  C4  UNL     1       0.696  39.142  23.604  1.00  0.00     0.097 A
HETATM    9  C5  UNL     1       1.544  39.545  22.601  1.00  0.00     0.099 A
HETATM   10  S1  UNL     1       3.133  39.244  23.095  1.00  0.00    -0.061 SA
HETATM   11  C6  UNL     1       2.702  38.586  24.625  1.00  0.00     0.081 A
HETATM   12  S2  UNL     1       3.361  37.895  26.046  1.00  0.00    -0.019 SA
HETATM   13  C7  UNL     1       1.875  37.646  26.774  1.00  0.00     0.294 A
HETATM   14  O4  UNL     1       1.845  37.115  27.919  1.00  0.00    -0.259 OA
HETATM   15  N3  UNL     1       0.918  38.081  25.956  1.00  0.00    -0.277 N
HETATM   16  C10 UNL     1       1.336  38.603  24.751  1.00  0.00     0.083 A
ENDROOT
BRANCH  15  17
HETATM   17  C8  UNL     1      -0.439  37.997  26.470  1.00  0.00     0.254 C
BRANCH  17  18
HETATM   18  O5  UNL     1      -0.654  38.511  27.738  1.00  0.00    -0.374 OA
ATOM     19  H5  UNL     1      -1.418  38.191  28.202  1.00  0.00     0.212 HD
ENDBRANCH  17  18
BRANCH  17  20
HETATM   20  C9  UNL     1      -1.086  36.649  26.501  1.00  0.00     0.283 C
BRANCH  20  21
HETATM   21  N4  UNL     1      -1.994  36.439  25.387  1.00  0.00    -0.075 N
ATOM     22  H43 UNL     1      -2.862  36.959  25.518  1.00  0.00     0.274 HD
ATOM     23  H42 UNL     1      -1.652  36.900  24.543  1.00  0.00     0.274 HD
ATOM     24  H41 UNL     1      -2.181  35.451  25.214  1.00  0.00     0.274 HD
ENDBRANCH  20  21
ENDBRANCH  17  20
ENDBRANCH  15  17
BRANCH   5  25
HETATM   25  O2  UNL     1      -2.408  40.006  21.804  1.00  0.00    -0.276 OA
ATOM     26  H2  UNL     1      -2.711  40.761  21.313  1.00  0.00     0.245 HD
ENDBRANCH   5  25
TORSDOF 5
ENDMDL