MODEL 2
REMARK VINA RESULT: -6.319974441      1.968      4.827
REMARK  3 active torsions:
REMARK  status: ('A' for Active; 'I' for Inactive)
REMARK    1  A    between atoms: C5_6  and  N2_7
REMARK    2  A    between atoms: C6_10  and  N3_11
REMARK    3  A    between atoms: C9_21  and  O5_22
ROOT
HETATM    1  N1  UNL     1       2.937  35.840  27.054  1.00  0.00    -0.191 NA
HETATM    2  C1  UNL     1       2.079  36.418  26.486  1.00  0.00     0.103 C
HETATM    3  C2  UNL     1       0.993  37.114  25.810  1.00  0.00     0.088 A
HETATM    4  C3  UNL     1       1.242  37.888  24.771  1.00  0.00     0.033 A
HETATM    5  C4  UNL     1       0.190  38.562  24.117  1.00  0.00     0.051 A
HETATM    6  C5  UNL     1       0.526  39.357  23.053  1.00  0.00     0.152 A
HETATM    7  C6  UNL     1       1.844  39.510  22.620  1.00  0.00     0.166 A
HETATM    8  C7  UNL     1       2.861  38.858  23.249  1.00  0.00     0.110 A
HETATM    9  N4  UNL     1       4.184  38.834  23.029  1.00  0.00    -0.279 N
ATOM     10  H4  UNL     1       4.682  39.341  22.298  1.00  0.00     0.184 HD
HETATM   11  N5  UNL     1       4.728  38.029  23.937  1.00  0.00    -0.022 NA
HETATM   12  N6  UNL     1       3.752  37.564  24.706  1.00  0.00    -0.281 N
ATOM     13  H6  UNL     1       3.895  36.921  25.485  1.00  0.00     0.184 HD
HETATM   14  C8  UNL     1       2.554  38.042  24.333  1.00  0.00     0.089 A
HETATM   15  C9  UNL     1      -1.055  38.447  24.515  1.00  0.00     0.132 A
HETATM   16  C10 UNL     1      -1.443  37.611  25.666  1.00  0.00     0.233 A
HETATM   17  O6  UNL     1      -2.625  37.494  26.057  1.00  0.00    -0.283 OA
HETATM   18  C11 UNL     1      -0.369  36.918  26.337  1.00  0.00     0.101 A
HETATM   19  N7  UNL     1      -0.553  36.142  27.369  1.00  0.00    -0.395 N
ATOM     20  H71 UNL     1      -1.495  36.006  27.733  1.00  0.00     0.156 HD
ATOM     21  H72 UNL     1       0.206  35.652  27.842  1.00  0.00     0.156 HD
ENDROOT
BRANCH   6  22
HETATM   22  N2  UNL     1      -0.469  40.070  22.336  1.00  0.00    -0.112 N
HETATM   23  O1  UNL     1      -0.911  39.548  21.277  1.00  0.00    -0.532 OA
HETATM   24  O2  UNL     1      -0.927  41.297  22.706  1.00  0.00    -0.532 OA
ENDBRANCH   6  22
BRANCH  15  25
HETATM   25  O5  UNL     1      -2.107  39.112  23.875  1.00  0.00    -0.356 OA
ATOM     26  H5  UNL     1      -3.010  39.015  24.152  1.00  0.00     0.218 HD
ENDBRANCH  15  25
BRANCH   7  27
HETATM   27  N3  UNL     1       2.105  40.377  21.519  1.00  0.00    -0.111 N
HETATM   28  O3  UNL     1       2.148  41.607  21.598  1.00  0.00    -0.532 OA
HETATM   29  O4  UNL     1       2.318  39.784  20.295  1.00  0.00    -0.532 OA
ENDBRANCH   7  27
TORSDOF 3
ENDMDL