MODEL 2
REMARK VINA RESULT: -8.355450037      1.977      2.141
REMARK  3 active torsions:
REMARK  status: ('A' for Active; 'I' for Inactive)
REMARK       I    between atoms: C2_2  and  N1_4
REMARK    1  A    between atoms: C3_7  and  N3_8
REMARK    2  A    between atoms: N4_10  and  C4_12
REMARK    3  A    between atoms: C6_20  and  N8_21
ROOT
HETATM    1  C4  UNL     1      -1.405  39.469  23.101  1.00  0.00     0.171 A
HETATM    2  N5  UNL     1      -2.023  40.050  22.065  1.00  0.00    -0.271 N
ATOM      3  H5  UNL     1      -2.992  40.326  21.905  1.00  0.00     0.189 HD
HETATM    4  N6  UNL     1      -0.934  40.142  21.324  1.00  0.00    -0.194 N
HETATM    5  C5  UNL     1      -0.459  40.558  20.134  1.00  0.00     0.360 C
HETATM    6  O2  UNL     1      -1.195  41.371  19.518  1.00  0.00    -0.244 OA
HETATM    7  N7  UNL     1       0.683  40.227  19.521  1.00  0.00    -0.140 N
ATOM      8  H7  UNL     1       0.781  40.554  18.560  1.00  0.00     0.189 HD
HETATM    9  C6  UNL     1       1.718  39.522  20.004  1.00  0.00     0.682 C
HETATM   10  N9  UNL     1       1.970  39.253  21.303  1.00  0.00    -0.154 N
ATOM     11  H9  UNL     1       2.934  39.009  21.532  1.00  0.00     0.187 HD
HETATM   12  C7  UNL     1       1.092  39.268  22.345  1.00  0.00     0.292 C
HETATM   13  O3  UNL     1       1.549  38.984  23.472  1.00  0.00    -0.265 OA
HETATM   14  C8  UNL     1      -0.253  39.555  22.341  1.00  0.00     0.176 A
ENDROOT
BRANCH   1  15
HETATM   15  N4  UNL     1      -1.736  38.971  24.408  1.00  0.00    -0.268 N
HETATM   16  N3  UNL     1      -1.320  37.831  24.701  1.00  0.00    -0.129 N
ATOM     17  H3  UNL     1      -0.775  37.337  23.995  1.00  0.00     0.205 HD
ATOM     18  H4  UNL     1      -2.286  39.524  25.065  1.00  0.00     0.189 HD
BRANCH  16  19
HETATM   19  C3  UNL     1      -1.540  37.170  25.929  1.00  0.00     0.718 A
HETATM   20  N2  UNL     1      -2.140  35.975  26.035  1.00  0.00    -0.117 N
HETATM   21  N1  UNL     1      -2.214  35.588  27.318  1.00  0.00    -0.157 N
ATOM     22  H2  UNL     1      -2.492  35.433  25.246  1.00  0.00     0.206 HD
HETATM   23  C2  UNL     1      -2.781  34.386  27.814  1.00  0.00     0.243 C
HETATM   24  C10 UNL     1      -1.636  36.591  28.010  1.00  0.00     0.365 A
HETATM   25  C1  UNL     1      -3.363  33.422  26.865  1.00  0.00     0.119 C
HETATM   26  O1  UNL     1      -2.786  34.147  29.033  1.00  0.00    -0.272 OA
HETATM   27  N10 UNL     1      -1.224  37.555  27.175  1.00  0.00    -0.133 N
HETATM   28  O4  UNL     1      -1.507  36.607  29.266  1.00  0.00    -0.244 OA
HETATM   29  C9  UNL     1      -0.552  38.804  27.534  1.00  0.00     0.180 C
ENDBRANCH  16  19
ENDBRANCH   1  15
BRANCH   9  30
HETATM   30  N8  UNL     1       2.564  39.047  19.166  1.00  0.00    -0.234 N
ATOM     31  H82 UNL     1       3.100  39.739  18.642  1.00  0.00     0.174 HD
ATOM     32  H81 UNL     1       2.639  38.033  19.086  1.00  0.00     0.174 HD
ENDBRANCH   9  30
TORSDOF 3
ENDMDL