MODEL 2
REMARK VINA RESULT: -7.338268908      2.496      3.427
REMARK  3 active torsions:
REMARK  status: ('A' for Active; 'I' for Inactive)
REMARK    1  A    between atoms: C2_2  and  N1_3
REMARK    2  A    between atoms: C7_17  and  N6_18
REMARK    3  A    between atoms: C8_21  and  O1_22
ROOT
HETATM    1  N1  UNL     1       0.608  37.510  26.837  1.00  0.00    -0.325 N
HETATM    2  C3  UNL     1      -0.303  36.940  27.779  1.00  0.00     0.201 C
HETATM    3  N2  UNL     1      -1.511  37.673  27.990  1.00  0.00    -0.294 N
ATOM      4  H2  UNL     1      -2.077  37.558  28.831  1.00  0.00     0.187 HD
HETATM    5  N3  UNL     1      -1.861  38.548  26.984  1.00  0.00    -0.281 N
ATOM      6  H3  UNL     1      -2.643  39.181  27.156  1.00  0.00     0.188 HD
HETATM    7  C4  UNL     1      -1.210  38.629  25.723  1.00  0.00     0.167 A
HETATM    8  N4  UNL     1      -1.802  39.203  24.647  1.00  0.00    -0.321 N
ATOM      9  H4  UNL     1      -2.741  39.599  24.697  1.00  0.00     0.169 HD
HETATM   10  C5  UNL     1      -1.083  39.222  23.512  1.00  0.00     0.154 A
HETATM   11  N5  UNL     1      -1.745  39.832  22.478  1.00  0.00    -0.319 N
ATOM     12  H5  UNL     1      -2.758  39.727  22.447  1.00  0.00     0.169 HD
HETATM   13  C6  UNL     1      -1.159  40.576  21.480  1.00  0.00     0.165 A
HETATM   14  S1  UNL     1      -1.802  41.933  20.672  1.00  0.00    -0.032 SA
HETATM   15  C7  UNL     1      -0.504  42.260  19.614  1.00  0.00     0.123 A
HETATM   16  C8  UNL     1       0.410  41.292  19.920  1.00  0.00     0.187 A
HETATM   17  N7  UNL     1       0.098  40.427  20.863  1.00  0.00    -0.220 N
HETATM   18  C9  UNL     1       0.976  39.426  21.219  1.00  0.00     0.336 C
HETATM   19  O2  UNL     1       1.908  39.186  20.388  1.00  0.00    -0.246 OA
HETATM   20  N8  UNL     1       0.993  38.659  22.329  1.00  0.00    -0.291 N
ATOM     21  H8  UNL     1       1.721  37.946  22.350  1.00  0.00     0.172 HD
HETATM   22  C10 UNL     1       0.194  38.693  23.412  1.00  0.00     0.156 A
HETATM   23  N9  UNL     1       0.766  38.121  24.503  1.00  0.00    -0.322 N
ATOM     24  H9  UNL     1       1.704  37.724  24.455  1.00  0.00     0.169 HD
HETATM   25  C11 UNL     1       0.060  38.094  25.648  1.00  0.00     0.156 A
ENDROOT
BRANCH  15  26
HETATM   26  N6  UNL     1      -0.381  43.211  18.710  1.00  0.00    -0.390 N
ATOM     27  H62 UNL     1      -0.690  44.180  18.791  1.00  0.00     0.157 HD
ATOM     28  H61 UNL     1       0.033  43.169  17.779  1.00  0.00     0.157 HD
ENDBRANCH  15  26
BRANCH  16  29
HETATM   29  O1  UNL     1       1.535  41.274  19.267  1.00  0.00    -0.344 OA
ATOM     30  H1  UNL     1       1.927  42.102  19.016  1.00  0.00     0.219 HD
ENDBRANCH  16  29
BRANCH   1  31
HETATM   31  C2  UNL     1       2.052  37.530  27.015  1.00  0.00     0.127 C
HETATM   32  C1  UNL     1       2.665  36.176  26.951  1.00  0.00     0.027 C
ENDBRANCH   1  31
TORSDOF 3
ENDMDL