MODEL 3
REMARK VINA RESULT: -6.303333784      2.677      3.695
REMARK  5 active torsions:
REMARK  status: ('A' for Active; 'I' for Inactive)
REMARK    1  A    between atoms: C2_2  and  O1_3
REMARK    2  A    between atoms: O1_3  and  C3_4
REMARK       I    between atoms: C3_4  and  N1_6
REMARK    3  A    between atoms: N2_9  and  O4_10
REMARK    4  A    between atoms: C10_20  and  N5_21
REMARK    5  A    between atoms: N6_26  and  N7_27
ROOT
HETATM    1  C3  UNL     1      -1.880  35.621  26.329  1.00  0.00     0.377 C
HETATM    2  O2  UNL     1      -2.809  35.670  25.493  1.00  0.00    -0.237 OA
HETATM    3  N1  UNL     1      -0.818  36.594  26.296  1.00  0.00    -0.189 N
HETATM    4  C4  UNL     1       0.240  36.678  27.114  1.00  0.00     0.363 A
HETATM    5  O3  UNL     1       0.455  35.882  28.063  1.00  0.00    -0.243 OA
HETATM    6  N2  UNL     1       1.014  37.715  26.775  1.00  0.00    -0.166 N
HETATM    7  C5  UNL     1       0.414  38.291  25.712  1.00  0.00     0.145 A
HETATM    8  C6  UNL     1       0.510  39.337  24.788  1.00  0.00     0.137 A
HETATM    9  C7  UNL     1      -0.577  39.254  23.943  1.00  0.00     0.142 A
HETATM   10  N3  UNL     1      -1.295  38.200  24.347  1.00  0.00    -0.324 N
ATOM     11  H3  UNL     1      -2.162  37.892  23.906  1.00  0.00     0.169 HD
HETATM   12  C8  UNL     1      -0.727  37.599  25.408  1.00  0.00     0.155 A
HETATM   13  N4  UNL     1      -0.687  40.175  22.966  1.00  0.00    -0.317 N
HETATM   14  C9  UNL     1      -1.818  40.107  22.070  1.00  0.00     0.159 C
HETATM   15  C10 UNL     1       0.241  41.162  22.805  1.00  0.00     0.174 A
HETATM   16  C11 UNL     1       1.315  41.215  23.666  1.00  0.00     0.310 A
HETATM   17  O5  UNL     1       2.176  42.119  23.530  1.00  0.00    -0.262 OA
HETATM   18  N6  UNL     1       1.432  40.313  24.634  1.00  0.00    -0.218 N
ENDROOT
BRANCH   1  19
HETATM   19  O1  UNL     1      -1.887  34.628  27.278  1.00  0.00    -0.304 OA
BRANCH  19  20
HETATM   20  C2  UNL     1      -2.928  34.451  28.221  1.00  0.00     0.176 C
HETATM   21  C1  UNL     1      -2.907  35.633  29.180  1.00  0.00     0.034 C
ENDBRANCH  19  20
ENDBRANCH   1  19
BRANCH   6  22
HETATM   22  O4  UNL     1       2.200  38.125  27.389  1.00  0.00    -0.278 OA
ATOM     23  H4  UNL     1       2.339  38.904  27.915  1.00  0.00     0.245 HD
ENDBRANCH   6  22
BRANCH  18  24
HETATM   24  N7  UNL     1       2.555  40.425  25.479  1.00  0.00    -0.335 N
ATOM     25  H72 UNL     1       3.009  41.338  25.525  1.00  0.00     0.177 HD
ATOM     26  H71 UNL     1       2.906  39.637  26.022  1.00  0.00     0.177 HD
ENDBRANCH  18  24
BRANCH  15  27
HETATM   27  N5  UNL     1       0.053  41.993  21.846  1.00  0.00    -0.381 N
ATOM     28  H52 UNL     1      -0.859  42.183  21.431  1.00  0.00     0.157 HD
ATOM     29  H51 UNL     1       0.872  42.484  21.489  1.00  0.00     0.157 HD
ENDBRANCH  15  27
TORSDOF 5
ENDMDL