MODEL 5
REMARK VINA RESULT: -6.604762282      1.474      1.674
REMARK  2 active torsions:
REMARK  status: ('A' for Active; 'I' for Inactive)
REMARK    1  A    between atoms: N1_1  and  C1_4
REMARK    2  A    between atoms: C3_9  and  N3_10
ROOT
HETATM    1  C1  UNL     1      -1.283  37.240  27.532  1.00  0.00     0.183 A
HETATM    2  S1  UNL     1      -1.930  36.127  26.412  1.00  0.00     0.026 SA
HETATM    3  N2  UNL     1      -1.675  37.016  25.003  1.00  0.00    -0.305 N
ATOM      4  H2  UNL     1      -1.902  36.763  24.042  1.00  0.00     0.176 HD
HETATM    5  C2  UNL     1      -1.105  38.126  25.457  1.00  0.00     0.185 A
HETATM    6  C3  UNL     1      -0.614  39.316  24.896  1.00  0.00     0.192 A
HETATM    7  N7  UNL     1      -0.135  40.102  25.882  1.00  0.00    -0.266 N
ATOM      8  H7  UNL     1       0.285  41.026  25.781  1.00  0.00     0.190 HD
HETATM    9  N8  UNL     1      -0.317  39.443  26.986  1.00  0.00    -0.231 N
ATOM     10  H8  UNL     1      -0.054  39.781  27.911  1.00  0.00     0.209 HD
HETATM   11  N9  UNL     1      -0.904  38.246  26.745  1.00  0.00    -0.197 N
ENDROOT
BRANCH   6  12
HETATM   12  N3  UNL     1      -0.586  39.707  23.531  1.00  0.00    -0.214 N
HETATM   13  N4  UNL     1      -1.536  40.413  22.936  1.00  0.00    -0.241 N
HETATM   14  C4  UNL     1      -1.196  40.609  21.647  1.00  0.00     0.349 A
ATOM     15  H4  UNL     1      -2.388  40.753  23.383  1.00  0.00     0.192 HD
HETATM   16  O1  UNL     1      -1.820  41.221  20.763  1.00  0.00    -0.244 OA
HETATM   17  N5  UNL     1       0.007  40.009  21.417  1.00  0.00    -0.221 N
HETATM   18  C5  UNL     1       0.765  39.919  20.307  1.00  0.00     0.191 A
HETATM   19  C8  UNL     1       0.354  39.466  22.590  1.00  0.00     0.147 A
HETATM   20  S2  UNL     1       0.313  40.595  18.889  1.00  0.00    -0.040 SA
HETATM   21  N6  UNL     1       1.923  39.260  20.357  1.00  0.00    -0.299 N
HETATM   22  C6  UNL     1       2.311  38.698  21.515  1.00  0.00     0.251 A
ATOM     23  H6  UNL     1       2.508  39.183  19.525  1.00  0.00     0.171 HD
HETATM   24  O2  UNL     1       3.406  38.064  21.599  1.00  0.00    -0.268 OA
HETATM   25  C7  UNL     1       1.545  38.781  22.666  1.00  0.00     0.125 A
ENDBRANCH   6  12
BRANCH   1  26
HETATM   26  N1  UNL     1      -1.197  37.107  28.837  1.00  0.00    -0.377 N
ATOM     27  H12 UNL     1      -0.504  37.471  29.490  1.00  0.00     0.158 HD
ATOM     28  H11 UNL     1      -1.830  36.599  29.454  1.00  0.00     0.158 HD
ENDBRANCH   1  26
TORSDOF 2
ENDMDL