MODEL 3
REMARK VINA RESULT: -7.710310789      1.371      1.391
REMARK  3 active torsions:
REMARK  status: ('A' for Active; 'I' for Inactive)
REMARK    1  A    between atoms: N1_1  and  C1_4
REMARK    2  A    between atoms: C2_7  and  N3_8
REMARK    3  A    between atoms: C4_13  and  N4_14
ROOT
HETATM    1  C1  UNL     1      -2.909  33.877  27.630  1.00  0.00     0.679 A
HETATM    2  N2  UNL     1      -2.781  34.471  28.829  1.00  0.00    -0.176 N
ATOM      3  H2  UNL     1      -2.995  33.979  29.696  1.00  0.00     0.186 HD
HETATM    4  C2  UNL     1      -2.359  35.742  28.825  1.00  0.00     0.135 A
HETATM    5  C3  UNL     1      -2.068  36.413  27.633  1.00  0.00     0.097 A
HETATM    6  S1  UNL     1      -1.526  37.964  27.162  1.00  0.00    -0.044 SA
HETATM    7  C4  UNL     1      -1.505  37.729  25.457  1.00  0.00     0.177 A
HETATM    8  N7  UNL     1      -1.912  36.486  25.356  1.00  0.00    -0.319 N
ATOM      9  H7  UNL     1      -2.001  36.059  24.435  1.00  0.00     0.169 HD
HETATM   10  C9  UNL     1      -2.203  35.792  26.416  1.00  0.00     0.144 A
HETATM   11  N8  UNL     1      -2.639  34.489  26.475  1.00  0.00    -0.175 N
ATOM     12  H8  UNL     1      -2.760  33.971  25.604  1.00  0.00     0.186 HD
ENDROOT
BRANCH   7  13
HETATM   13  N4  UNL     1      -1.136  38.662  24.418  1.00  0.00    -0.179 N
HETATM   14  N5  UNL     1      -1.714  39.802  24.093  1.00  0.00    -0.266 N
HETATM   15  C5  UNL     1      -1.059  40.370  23.065  1.00  0.00     0.173 A
ATOM     16  H5  UNL     1      -2.535  40.195  24.552  1.00  0.00     0.190 HD
HETATM   17  N6  UNL     1      -0.038  39.592  22.713  1.00  0.00    -0.209 N
HETATM   18  S2  UNL     1      -1.015  41.777  21.954  1.00  0.00    -0.083 SA
HETATM   19  C6  UNL     1      -0.104  38.526  23.573  1.00  0.00     0.359 A
HETATM   20  C7  UNL     1       0.763  40.027  21.663  1.00  0.00     0.243 C
HETATM   21  O1  UNL     1       0.686  37.523  23.602  1.00  0.00    -0.244 OA
HETATM   22  O2  UNL     1       1.979  39.682  21.443  1.00  0.00    -0.272 OA
HETATM   23  C8  UNL     1       0.113  40.981  20.729  1.00  0.00     0.186 C
ENDBRANCH   7  13
BRANCH   4  24
HETATM   24  N3  UNL     1      -2.208  36.389  29.916  1.00  0.00    -0.384 N
ATOM     25  H32 UNL     1      -2.193  37.408  29.858  1.00  0.00     0.157 HD
ATOM     26  H31 UNL     1      -2.107  35.903  30.807  1.00  0.00     0.157 HD
ENDBRANCH   4  24
BRANCH   1  27
HETATM   27  N1  UNL     1      -3.324  32.623  27.607  1.00  0.00    -0.234 N
ATOM     28  H12 UNL     1      -3.204  32.049  28.442  1.00  0.00     0.174 HD
ATOM     29  H11 UNL     1      -3.750  32.281  26.746  1.00  0.00     0.174 HD
ENDBRANCH   1  27
TORSDOF 3
ENDMDL