MODEL 1
REMARK VINA RESULT: -8.160412762      0.000      0.000
REMARK  7 active torsions:
REMARK  status: ('A' for Active; 'I' for Inactive)
REMARK    1  A    between atoms: C3_3  and  O1_4
REMARK    2  A    between atoms: C4_6  and  N1_7
REMARK    3  A    between atoms: N2_9  and  C5_11
REMARK    4  A    between atoms: C5_11  and  O2_12
REMARK    5  A    between atoms: N3_14  and  N4_16
REMARK    6  A    between atoms: N4_16  and  C6_18
REMARK    7  A    between atoms: C10_33  and  O5_34
ROOT
HETATM    1  C5  UNL     1      -1.164  39.425  24.385  1.00  0.00     0.251 C
HETATM    2  N3  UNL     1      -0.190  40.241  24.272  1.00  0.00    -0.250 N
ATOM      3  H3  UNL     1       0.501  40.274  25.022  1.00  0.00     0.191 HD
ENDROOT
BRANCH   1   4
HETATM    4  N2  UNL     1      -1.238  38.609  25.540  1.00  0.00    -0.262 N
HETATM    5  N1  UNL     1      -2.001  37.591  25.482  1.00  0.00    -0.280 N
ATOM      6  H1  UNL     1      -2.535  37.372  24.641  1.00  0.00     0.188 HD
ATOM      7  H2  UNL     1      -0.705  38.827  26.381  1.00  0.00     0.190 HD
BRANCH   5   8
HETATM    8  C4  UNL     1      -2.075  36.775  26.642  1.00  0.00     0.157 A
HETATM    9  C3  UNL     1      -2.525  35.465  26.543  1.00  0.00     0.120 A
HETATM   10  C2  UNL     1      -2.606  34.656  27.644  1.00  0.00     0.014 A
HETATM   11  C1  UNL     1      -3.087  33.262  27.528  1.00  0.00     0.054 C
HETATM   12  C10 UNL     1      -2.232  35.157  28.874  1.00  0.00     0.143 A
HETATM   13  C9  UNL     1      -1.788  36.459  28.955  1.00  0.00     0.281 A
HETATM   14  N9  UNL     1      -1.721  37.224  27.858  1.00  0.00    -0.304 N
HETATM   15  O4  UNL     1      -1.436  36.948  30.073  1.00  0.00    -0.265 OA
ATOM     16  H9  UNL     1      -1.388  38.184  27.948  1.00  0.00     0.171 HD
BRANCH   9  17
HETATM   17  O1  UNL     1      -2.893  34.985  25.312  1.00  0.00    -0.356 OA
ATOM     18  H1  UNL     1      -3.185  35.586  24.636  1.00  0.00     0.218 HD
ENDBRANCH   9  17
BRANCH  12  19
HETATM   19  O5  UNL     1      -2.318  34.335  29.970  1.00  0.00    -0.355 OA
ATOM     20  H5  UNL     1      -1.886  33.489  29.937  1.00  0.00     0.218 HD
ENDBRANCH  12  19
ENDBRANCH   5   8
ENDBRANCH   1   4
BRANCH   1  21
HETATM   21  O2  UNL     1      -2.148  39.313  23.413  1.00  0.00    -0.330 OA
ATOM     22  H2  UNL     1      -2.136  38.565  22.827  1.00  0.00     0.221 HD
ENDBRANCH   1  21
BRANCH   2  23
HETATM   23  N4  UNL     1      -0.021  41.082  23.191  1.00  0.00    -0.127 N
ATOM     24  H4  UNL     1      -0.260  42.067  23.307  1.00  0.00     0.205 HD
BRANCH  23  25
HETATM   25  C6  UNL     1       0.423  40.694  22.041  1.00  0.00     0.718 A
HETATM   26  N5  UNL     1       1.560  40.022  21.889  1.00  0.00    -0.116 N
HETATM   27  N6  UNL     1       1.945  39.663  20.687  1.00  0.00    -0.224 N
ATOM     28  H5  UNL     1       2.130  39.788  22.702  1.00  0.00     0.207 HD
HETATM   29  N7  UNL     1       1.240  39.943  19.598  1.00  0.00    -0.236 N
ATOM     30  H6  UNL     1       2.819  39.148  20.587  1.00  0.00     0.209 HD
HETATM   31  C7  UNL     1       0.088  40.619  19.710  1.00  0.00     0.356 A
ATOM     32  H7  UNL     1       1.574  39.646  18.681  1.00  0.00     0.193 HD
HETATM   33  O3  UNL     1      -0.620  40.909  18.710  1.00  0.00    -0.244 OA
HETATM   34  N8  UNL     1      -0.309  40.989  20.947  1.00  0.00    -0.133 N
HETATM   35  C8  UNL     1      -1.551  41.722  21.114  1.00  0.00     0.180 C
ENDBRANCH  23  25
ENDBRANCH   2  23
TORSDOF 7
ENDMDL