MODEL 2
REMARK VINA RESULT: -6.680940899      1.614      2.192
REMARK  3 active torsions:
REMARK  status: ('A' for Active; 'I' for Inactive)
REMARK    1  A    between atoms: N1_1  and  C1_4
REMARK       I    between atoms: N3_7  and  C2_8
REMARK       I    between atoms: C2_8  and  N4_10
REMARK    2  A    between atoms: N7_17  and  N8_18
REMARK    3  A    between atoms: C6_20  and  C7_21
ROOT
HETATM    1  C1  UNL     1      -1.543  39.066  24.252  1.00  0.00     0.716 A
HETATM    2  N2  UNL     1      -1.906  37.979  25.000  1.00  0.00    -0.116 N
ATOM      3  H2  UNL     1      -2.627  37.300  24.759  1.00  0.00     0.206 HD
HETATM    4  N3  UNL     1      -1.158  37.964  26.088  1.00  0.00    -0.135 N
HETATM    5  C2  UNL     1      -1.162  37.031  27.167  1.00  0.00     0.365 C
HETATM    6  O1  UNL     1      -0.313  37.270  28.104  1.00  0.00    -0.243 OA
HETATM    7  N4  UNL     1      -2.006  35.908  27.269  1.00  0.00    -0.227 N
HETATM    8  C3  UNL     1      -1.995  34.972  28.373  1.00  0.00     0.169 C
HETATM    9  C4  UNL     1      -2.268  33.669  27.621  1.00  0.00     0.153 C
HETATM   10  N5  UNL     1      -3.189  34.123  26.604  1.00  0.00    -0.124 NA
HETATM   11  N6  UNL     1      -2.976  35.465  26.397  1.00  0.00    -0.025 NA
HETATM   12  C5  UNL     1      -0.331  39.042  26.013  1.00  0.00     0.386 A
HETATM   13  O2  UNL     1       0.557  39.409  26.857  1.00  0.00    -0.242 OA
HETATM   14  N7  UNL     1      -0.562  39.728  24.885  1.00  0.00    -0.029 N
ENDROOT
BRANCH  14  15
HETATM   15  N8  UNL     1       0.079  40.894  24.444  1.00  0.00    -0.284 N
HETATM   16  C6  UNL     1       1.091  40.858  23.649  1.00  0.00     0.146 C
ATOM     17  H8  UNL     1      -0.267  41.799  24.763  1.00  0.00     0.187 HD
BRANCH  16  18
HETATM   18  C7  UNL     1       1.760  42.106  23.189  1.00  0.00     0.101 A
HETATM   19  C8  UNL     1       2.652  42.061  22.140  1.00  0.00     0.091 A
HETATM   20  S1  UNL     1       3.103  43.712  22.040  1.00  0.00    -0.062 SA
HETATM   21  C9  UNL     1       2.132  44.290  23.320  1.00  0.00     0.184 A
HETATM   22  S2  UNL     1       1.962  45.830  23.914  1.00  0.00    -0.044 SA
HETATM   23  O3  UNL     1       1.548  43.223  23.726  1.00  0.00    -0.290 OA
ENDBRANCH  16  18
ENDBRANCH  14  15
BRANCH   1  24
HETATM   24  N1  UNL     1      -2.082  39.378  23.120  1.00  0.00    -0.231 N
ATOM     25  H12 UNL     1      -2.230  38.759  22.323  1.00  0.00     0.174 HD
ATOM     26  H11 UNL     1      -2.430  40.308  22.889  1.00  0.00     0.174 HD
ENDBRANCH   1  24
TORSDOF 3
ENDMDL