MODEL 1
REMARK VINA RESULT: -6.839462851      0.000      0.000
REMARK  4 active torsions:
REMARK  status: ('A' for Active; 'I' for Inactive)
REMARK    1  A    between atoms: O1_2  and  C2_3
REMARK       I    between atoms: C2_3  and  N1_5
REMARK    2  A    between atoms: C6_13  and  N4_14
REMARK    3  A    between atoms: C7_21  and  N8_22
REMARK    4  A    between atoms: C8_25  and  O4_26
ROOT
HETATM    1  C2  UNL     1       1.982  38.521  23.073  1.00  0.00     0.375 C
HETATM    2  O2  UNL     1       1.006  38.985  22.496  1.00  0.00    -0.237 OA
HETATM    3  N1  UNL     1       2.007  37.813  24.289  1.00  0.00    -0.201 N
HETATM    4  C3  UNL     1       3.130  37.311  24.897  1.00  0.00     0.339 A
HETATM    5  O3  UNL     1       4.293  37.421  24.441  1.00  0.00    -0.246 OA
HETATM    6  N2  UNL     1       2.830  36.694  26.032  1.00  0.00    -0.287 N
HETATM    7  C4  UNL     1       3.766  36.030  26.964  1.00  0.00     0.163 C
HETATM    8  C5  UNL     1       1.491  36.780  26.191  1.00  0.00     0.145 A
HETATM    9  N3  UNL     1       0.710  36.321  27.163  1.00  0.00    -0.322 N
ATOM     10  H3  UNL     1       1.129  35.813  27.942  1.00  0.00     0.169 HD
HETATM   11  C6  UNL     1      -0.614  36.512  27.139  1.00  0.00     0.186 A
HETATM   12  C8  UNL     1      -1.183  37.193  26.092  1.00  0.00     0.166 A
HETATM   13  C9  UNL     1      -0.363  37.674  25.075  1.00  0.00     0.239 A
HETATM   14  O5  UNL     1      -0.895  38.295  24.124  1.00  0.00    -0.283 OA
HETATM   15  C10 UNL     1       1.008  37.471  25.109  1.00  0.00     0.146 A
ENDROOT
BRANCH  11  16
HETATM   16  N4  UNL     1      -1.458  36.015  28.188  1.00  0.00    -0.050 N
HETATM   17  N5  UNL     1      -1.899  36.633  29.258  1.00  0.00    -0.205 N
HETATM   18  N6  UNL     1      -2.658  35.783  29.960  1.00  0.00    -0.213 N
ATOM     19  H5  UNL     1      -1.697  37.601  29.512  1.00  0.00     0.211 HD
HETATM   20  N7  UNL     1      -2.708  34.621  29.347  1.00  0.00    -0.115 N
ATOM     21  H6  UNL     1      -3.127  36.004  30.839  1.00  0.00     0.210 HD
HETATM   22  C7  UNL     1      -1.946  34.775  28.226  1.00  0.00     0.716 A
ATOM     23  H7  UNL     1      -3.208  33.783  29.646  1.00  0.00     0.207 HD
BRANCH  22  24
HETATM   24  N8  UNL     1      -1.761  33.819  27.364  1.00  0.00    -0.231 N
ATOM     25  H82 UNL     1      -1.235  33.950  26.500  1.00  0.00     0.174 HD
ATOM     26  H81 UNL     1      -2.094  32.857  27.418  1.00  0.00     0.174 HD
ENDBRANCH  22  24
ENDBRANCH  11  16
BRANCH  12  27
HETATM   27  O4  UNL     1      -2.546  37.413  26.026  1.00  0.00    -0.354 OA
ATOM     28  H4  UNL     1      -3.154  36.713  25.821  1.00  0.00     0.218 HD
ENDBRANCH  12  27
BRANCH   1  29
HETATM   29  O1  UNL     1       3.211  38.746  22.404  1.00  0.00    -0.308 OA
HETATM   30  C1  UNL     1       3.419  38.319  21.069  1.00  0.00     0.215 C
ENDBRANCH   1  29
TORSDOF 4
ENDMDL