MODEL 1
REMARK VINA RESULT: -7.812246783      0.000      0.000
REMARK  9 active torsions:
REMARK  status: ('A' for Active; 'I' for Inactive)
REMARK    1  A    between atoms: O1_2  and  C2_3
REMARK    2  A    between atoms: C3_6  and  C4_7
REMARK    3  A    between atoms: C5_8  and  N2_9
REMARK    4  A    between atoms: N2_9  and  C6_11
REMARK    5  A    between atoms: C6_11  and  N3_12
REMARK    6  A    between atoms: N5_18  and  N6_19
REMARK    7  A    between atoms: N7_24  and  N8_25
REMARK    8  A    between atoms: C9_28  and  N9_29
REMARK    9  A    between atoms: C10_32  and  N10_33
ROOT
HETATM    1  C6  UNL     1      46.532 -10.119 -12.116  1.00  0.00     0.390 C
HETATM    2  C7  UNL     1      45.494  -9.406 -12.919  1.00  0.00     0.114 C
HETATM    3  N4  UNL     1      44.704  -8.861 -13.557  1.00  0.00    -0.193 NA
ENDROOT
BRANCH   1   4
HETATM    4  N2  UNL     1      45.975 -10.493 -10.840  1.00  0.00    -0.334 N
ATOM      5  H2  UNL     1      45.582  -9.761 -10.249  1.00  0.00     0.164 HD
BRANCH   4   6
HETATM    6  C5  UNL     1      45.947 -11.819 -10.371  1.00  0.00     0.159 A
HETATM    7  C4  UNL     1      44.756 -12.558 -10.271  1.00  0.00     0.133 A
HETATM    8  N7  UNL     1      45.107 -13.748  -9.770  1.00  0.00    -0.229 N
HETATM    9  C8  UNL     1      46.434 -13.800  -9.550  1.00  0.00     0.220 A
HETATM   10  N5  UNL     1      46.937 -12.599  -9.928  1.00  0.00    -0.216 N
HETATM   11  S1  UNL     1      47.286 -15.057  -8.945  1.00  0.00    -0.037 SA
BRANCH   7  12
HETATM   12  C3  UNL     1      43.442 -12.106 -10.682  1.00  0.00     0.105 A
HETATM   13  N1  UNL     1      43.052 -12.049 -11.985  1.00  0.00    -0.318 N
HETATM   14  C2  UNL     1      41.853 -11.575 -12.351  1.00  0.00     0.225 A
ATOM     15  H1  UNL     1      43.694 -12.377 -12.706  1.00  0.00     0.169 HD
HETATM   16  N11 UNL     1      40.954 -11.124 -11.449  1.00  0.00    -0.306 N
HETATM   17  C10 UNL     1      41.286 -11.158 -10.152  1.00  0.00     0.138 A
ATOM     18  H11 UNL     1      40.046 -10.768 -11.748  1.00  0.00     0.171 HD
HETATM   19  C9  UNL     1      42.541 -11.652  -9.757  1.00  0.00     0.175 A
BRANCH  14  20
HETATM   20  O1  UNL     1      41.485 -11.527 -13.683  1.00  0.00    -0.327 OA
HETATM   21  C1  UNL     1      42.366 -11.139 -14.716  1.00  0.00     0.213 C
ENDBRANCH  14  20
BRANCH  17  22
HETATM   22  N10 UNL     1      40.432 -10.728  -9.296  1.00  0.00    -0.383 N
ATOM     23 2H10 UNL     1      40.347  -9.720  -9.167  1.00  0.00     0.157 HD
ATOM     24 1H10 UNL     1      39.851 -11.366  -8.752  1.00  0.00     0.157 HD
ENDBRANCH  17  22
BRANCH  19  25
HETATM   25  N9  UNL     1      42.813 -11.593  -8.383  1.00  0.00    -0.109 N
HETATM   26  O2  UNL     1      42.797 -12.694  -7.761  1.00  0.00    -0.532 OA
HETATM   27  O3  UNL     1      43.085 -10.450  -7.704  1.00  0.00    -0.532 OA
ENDBRANCH  19  25
ENDBRANCH   7  12
BRANCH   8  28
HETATM   28  N8  UNL     1      44.286 -14.853  -9.506  1.00  0.00    -0.336 N
ATOM     29  H82 UNL     1      43.271 -14.757  -9.466  1.00  0.00     0.177 HD
ATOM     30  H81 UNL     1      44.566 -15.815  -9.313  1.00  0.00     0.177 HD
ENDBRANCH   8  28
BRANCH  10  31
HETATM   31  N6  UNL     1      48.298 -12.320  -9.806  1.00  0.00    -0.335 N
ATOM     32  H62 UNL     1      48.896 -12.252 -10.630  1.00  0.00     0.177 HD
ATOM     33  H61 UNL     1      48.857 -12.173  -8.965  1.00  0.00     0.177 HD
ENDBRANCH  10  31
ENDBRANCH   4   6
ENDBRANCH   1   4
BRANCH   1  34
HETATM   34  N3  UNL     1      47.618  -9.147 -11.883  1.00  0.00    -0.045 N
ATOM     35  H33 UNL     1      47.968  -8.737 -12.749  1.00  0.00     0.278 HD
ATOM     36  H32 UNL     1      47.288  -8.287 -11.445  1.00  0.00     0.278 HD
ATOM     37  H31 UNL     1      48.351  -9.605 -11.342  1.00  0.00     0.278 HD
ENDBRANCH   1  34
TORSDOF 9
ENDMDL