MODEL 5
REMARK VINA RESULT: -9.793079625      1.495      1.931
REMARK  7 active torsions:
REMARK  status: ('A' for Active; 'I' for Inactive)
REMARK    1  A    between atoms: C2_2  and  C3_4
REMARK    2  A    between atoms: N2_7  and  N3_9
REMARK    3  A    between atoms: N3_9  and  C5_11
REMARK    4  A    between atoms: C6_16  and  C7_17
REMARK    5  A    between atoms: N6_18  and  N7_20
REMARK    6  A    between atoms: N7_20  and  C8_22
REMARK    7  A    between atoms: C13_33  and  O2_34
ROOT
HETATM    1  C3  UNL     1      53.732  -8.297  -5.872  1.00  0.00     0.174 C
HETATM    2  C4  UNL     1      54.719  -7.944  -6.904  1.00  0.00     0.123 C
HETATM    3  N1  UNL     1      55.507  -7.665  -7.701  1.00  0.00    -0.190 NA
HETATM    4  N2  UNL     1      52.939  -9.248  -6.069  1.00  0.00    -0.286 N
ATOM      5  H2  UNL     1      53.047  -9.718  -6.967  1.00  0.00     0.188 HD
ENDROOT
BRANCH   1   6
HETATM    6  C2  UNL     1      53.761  -7.489  -4.682  1.00  0.00     0.184 C
HETATM    7  C1  UNL     1      54.328  -6.135  -4.549  1.00  0.00     0.099 C
HETATM    8  O1  UNL     1      53.244  -7.985  -3.622  1.00  0.00    -0.290 OA
ENDBRANCH   1   6
BRANCH   4   9
HETATM    9  N3  UNL     1      51.967  -9.746  -5.284  1.00  0.00    -0.281 N
ATOM     10  H3  UNL     1      51.934  -9.374  -4.335  1.00  0.00     0.188 HD
BRANCH   9  11
HETATM   11  C5  UNL     1      50.980 -10.720  -5.594  1.00  0.00     0.163 A
HETATM   12  N4  UNL     1      50.702 -11.052  -6.881  1.00  0.00    -0.282 N
HETATM   13  N5  UNL     1      49.806 -11.940  -7.221  1.00  0.00    -0.297 N
ATOM     14  H4  UNL     1      51.220 -10.581  -7.622  1.00  0.00     0.188 HD
HETATM   15  C6  UNL     1      49.086 -12.599  -6.308  1.00  0.00     0.077 A
ATOM     16  H5  UNL     1      49.653 -12.137  -8.210  1.00  0.00     0.187 HD
HETATM   17  C11 UNL     1      49.332 -12.299  -4.985  1.00  0.00     0.028 A
HETATM   18  C12 UNL     1      48.770 -12.794  -3.843  1.00  0.00     0.072 A
HETATM   19  C14 UNL     1      50.285 -11.351  -4.592  1.00  0.00     0.094 A
HETATM   20  C13 UNL     1      49.373 -12.159  -2.791  1.00  0.00     0.141 A
HETATM   21  N11 UNL     1      50.295 -11.281  -3.239  1.00  0.00    -0.333 N
ATOM     22  H11 UNL     1      50.888 -10.678  -2.668  1.00  0.00     0.168 HD
BRANCH  15  23
HETATM   23  C7  UNL     1      48.082 -13.596  -6.681  1.00  0.00     0.139 C
HETATM   24  N6  UNL     1      47.680 -13.637  -7.906  1.00  0.00    -0.295 N
ATOM     25  H6  UNL     1      48.051 -12.990  -8.602  1.00  0.00     0.186 HD
BRANCH  24  26
HETATM   26  N7  UNL     1      46.727 -14.586  -8.247  1.00  0.00    -0.131 N
ATOM     27  H7  UNL     1      45.860 -14.671  -7.717  1.00  0.00     0.205 HD
BRANCH  26  28
HETATM   28  C8  UNL     1      46.991 -15.443  -9.360  1.00  0.00     0.707 C
HETATM   29  N8  UNL     1      47.789 -15.109 -10.293  1.00  0.00    -0.222 N
HETATM   30  C9  UNL     1      48.073 -15.934 -11.413  1.00  0.00     0.159 C
ATOM     31  H8  UNL     1      48.248 -14.200 -10.233  1.00  0.00     0.177 HD
HETATM   32  C10 UNL     1      47.689 -17.361 -11.280  1.00  0.00     0.160 C
HETATM   33  N9  UNL     1      46.560 -17.609 -10.444  1.00  0.00    -0.321 N
HETATM   34  N10 UNL     1      46.348 -16.705  -9.438  1.00  0.00    -0.135 N
ATOM     35  H9  UNL     1      45.946 -18.412 -10.588  1.00  0.00     0.180 HD
ATOM     36  H10 UNL     1      45.688 -16.954  -8.700  1.00  0.00     0.205 HD
ENDBRANCH  26  28
ENDBRANCH  24  26
ENDBRANCH  15  23
BRANCH  20  37
HETATM   37  O2  UNL     1      49.079 -12.385  -1.445  1.00  0.00    -0.346 OA
ATOM     38  H2  UNL     1      48.219 -12.295  -1.053  1.00  0.00     0.219 HD
ENDBRANCH  20  37
ENDBRANCH   9  11
ENDBRANCH   4   9
TORSDOF 7
ENDMDL