MODEL 3
REMARK VINA RESULT: -8.421065819      3.118      7.412
REMARK  6 active torsions:
REMARK  status: ('A' for Active; 'I' for Inactive)
REMARK       I    between atoms: C2_2  and  N1_4
REMARK    1  A    between atoms: N1_4  and  N2_6
REMARK    2  A    between atoms: N2_6  and  C3_8
REMARK    3  A    between atoms: C4_11  and  N4_12
REMARK    4  A    between atoms: N4_12  and  N6_15
REMARK       I    between atoms: N7_17  and  C6_19
REMARK       I    between atoms: C6_19  and  N8_20
REMARK       I    between atoms: C6_19  and  N9_24
REMARK    5  A    between atoms: C7_32  and  C8_33
REMARK    6  A    between atoms: C11_39  and  N13_40
ROOT
HETATM    1  N4  UNL     1      47.692 -13.914  -9.827  1.00  0.00     0.000 N
HETATM    2  C5  UNL     1      48.584 -13.413 -10.779  1.00  0.00     0.222 C
HETATM    3  N5  UNL     1      49.320 -12.977 -11.570  1.00  0.00    -0.169 NA
ENDROOT
BRANCH   1   4
HETATM    4  C4  UNL     1      46.407 -13.335  -9.745  1.00  0.00     0.730 A
HETATM    5  N3  UNL     1      45.945 -12.441 -10.640  1.00  0.00    -0.169 N
HETATM    6  C3  UNL     1      44.725 -11.889 -10.564  1.00  0.00     0.165 A
ATOM      7  H3  UNL     1      46.553 -12.171 -11.414  1.00  0.00     0.186 HD
HETATM    8  C7  UNL     1      43.886 -12.240  -9.528  1.00  0.00     0.111 A
HETATM    9  N11 UNL     1      44.341 -13.130  -8.632  1.00  0.00    -0.282 N
HETATM   10  N10 UNL     1      45.544 -13.643  -8.750  1.00  0.00    -0.129 N
ATOM     11  H11 UNL     1      43.746 -13.411  -7.853  1.00  0.00     0.187 HD
ATOM     12  H10 UNL     1      45.847 -14.317  -8.047  1.00  0.00     0.205 HD
BRANCH   6  13
HETATM   13  N2  UNL     1      44.293 -11.031 -11.430  1.00  0.00    -0.281 N
ATOM     14  H2  UNL     1      44.029 -10.105 -11.092  1.00  0.00     0.188 HD
BRANCH  13  15
HETATM   15  N1  UNL     1      44.163 -11.285 -12.783  1.00  0.00    -0.269 N
HETATM   16  C2  UNL     1      42.896 -11.065 -13.394  1.00  0.00     0.232 C
HETATM   17  C1  UNL     1      42.664 -11.310 -14.842  1.00  0.00     0.119 C
HETATM   18  O1  UNL     1      41.915 -10.651 -12.734  1.00  0.00    -0.272 OA
ATOM     19  H1  UNL     1      44.956 -11.623 -13.330  1.00  0.00     0.190 HD
ENDBRANCH  13  15
ENDBRANCH   6  13
BRANCH   8  20
HETATM   20  C8  UNL     1      42.555 -11.649  -9.430  1.00  0.00     0.073 A
HETATM   21  C9  UNL     1      41.385 -12.255  -9.822  1.00  0.00     0.045 A
HETATM   22  C10 UNL     1      41.167 -13.598 -10.418  1.00  0.00     0.071 C
HETATM   23  N12 UNL     1      40.416 -11.361  -9.553  1.00  0.00    -0.263 N
HETATM   24  O2  UNL     1      40.938 -10.287  -9.036  1.00  0.00    -0.219 OA
ATOM     25  H12 UNL     1      39.421 -11.504  -9.729  1.00  0.00     0.194 HD
HETATM   26  C11 UNL     1      42.239 -10.403  -8.936  1.00  0.00     0.178 A
BRANCH  26  27
HETATM   27  N13 UNL     1      43.069  -9.504  -8.459  1.00  0.00    -0.377 N
ATOM     28 2H13 UNL     1      44.052  -9.649  -8.224  1.00  0.00     0.158 HD
ATOM     29 1H13 UNL     1      42.865  -8.528  -8.247  1.00  0.00     0.158 HD
ENDBRANCH  26  27
ENDBRANCH   8  20
ENDBRANCH   1   4
BRANCH   1  30
HETATM   30  N6  UNL     1      48.037 -14.952  -8.975  1.00  0.00    -0.213 N
HETATM   31  N7  UNL     1      47.898 -16.162  -9.271  1.00  0.00    -0.268 N
HETATM   32  C6  UNL     1      47.361 -16.562 -10.548  1.00  0.00     0.495 C
ATOM     33  H7  UNL     1      48.171 -16.877  -8.596  1.00  0.00     0.185 HD
HETATM   34  N8  UNL     1      48.487 -17.014 -11.368  1.00  0.00    -0.032 N
HETATM   35  N9  UNL     1      46.495 -17.739 -10.392  1.00  0.00    -0.032 N
ATOM     36  H83 UNL     1      49.229 -16.318 -11.446  1.00  0.00     0.279 HD
ATOM     37  H82 UNL     1      49.040 -17.745 -10.920  1.00  0.00     0.279 HD
ATOM     38  H81 UNL     1      48.106 -17.297 -12.271  1.00  0.00     0.279 HD
ATOM     39  H93 UNL     1      46.977 -18.507  -9.925  1.00  0.00     0.279 HD
ATOM     40  H92 UNL     1      45.760 -17.581  -9.702  1.00  0.00     0.279 HD
ATOM     41  H91 UNL     1      46.114 -18.022 -11.295  1.00  0.00     0.279 HD
ATOM     42  H6  UNL     1      48.423 -14.719  -8.060  1.00  0.00     0.210 HD
ENDBRANCH   1  30
TORSDOF 6
ENDMDL