MODEL 2
REMARK VINA RESULT: -8.687185745      3.773      5.627
REMARK  5 active torsions:
REMARK  status: ('A' for Active; 'I' for Inactive)
REMARK    1  A    between atoms: N1_2  and  N2_3
REMARK    2  A    between atoms: N1_2  and  C9_21
REMARK       I    between atoms: N2_3  and  C2_5
REMARK    3  A    between atoms: C2_5  and  C3_7
REMARK    4  A    between atoms: C5_9  and  N3_10
REMARK    5  A    between atoms: C7_15  and  N5_16
ROOT
HETATM    1  N2  UNL     1      47.790 -11.473 -10.385  1.00  0.00    -0.249 N
ATOM      2  H2  UNL     1      47.434 -10.575 -10.716  1.00  0.00     0.191 HD
HETATM    3  C2  UNL     1      46.915 -12.547 -10.273  1.00  0.00     0.272 C
HETATM    4  O1  UNL     1      47.397 -13.657  -9.852  1.00  0.00    -0.266 OA
ENDROOT
BRANCH   3   5
HETATM    5  C3  UNL     1      45.498 -12.530 -10.588  1.00  0.00     0.062 A
HETATM    6  C4  UNL     1      44.576 -13.051  -9.717  1.00  0.00     0.057 A
HETATM    7  C5  UNL     1      43.215 -13.040 -10.014  1.00  0.00     0.130 A
HETATM    8  C6  UNL     1      42.744 -12.505 -11.193  1.00  0.00     0.114 A
HETATM    9  N4  UNL     1      41.344 -12.492 -11.506  1.00  0.00    -0.097 NA
HETATM   10  C7  UNL     1      43.659 -11.979 -12.077  1.00  0.00     0.154 A
HETATM   11  C8  UNL     1      45.020 -11.999 -11.763  1.00  0.00     0.097 A
HETATM   12  N6  UNL     1      45.974 -11.459 -12.668  1.00  0.00    -0.099 NA
BRANCH   7  13
HETATM   13  N3  UNL     1      42.268 -13.586  -9.115  1.00  0.00    -0.114 N
HETATM   14  O2  UNL     1      41.853 -12.870  -8.185  1.00  0.00    -0.532 OA
HETATM   15  O3  UNL     1      41.791 -14.865  -9.218  1.00  0.00    -0.532 OA
ENDBRANCH   7  13
BRANCH  10  16
HETATM   16  N5  UNL     1      43.263 -11.406 -13.318  1.00  0.00    -0.112 N
HETATM   17  O4  UNL     1      42.980 -10.193 -13.305  1.00  0.00    -0.532 OA
HETATM   18  O5  UNL     1      43.189 -12.118 -14.468  1.00  0.00    -0.532 OA
ENDBRANCH  10  16
ENDBRANCH   3   5
BRANCH   1  19
HETATM   19  N1  UNL     1      49.130 -11.587 -10.059  1.00  0.00    -0.124 N
HETATM   20  C1  UNL     1      50.072 -11.862 -11.151  1.00  0.00     0.197 C
BRANCH  19  21
HETATM   21  C9  UNL     1      49.669 -11.456  -8.744  1.00  0.00     0.717 A
HETATM   22  N7  UNL     1      50.657 -10.617  -8.573  1.00  0.00    -0.116 N
HETATM   23  N8  UNL     1      51.266 -10.405  -7.329  1.00  0.00    -0.226 N
ATOM     24  H7  UNL     1      50.999 -10.095  -9.379  1.00  0.00     0.207 HD
HETATM   25  N9  UNL     1      50.802 -11.115  -6.218  1.00  0.00    -0.258 N
ATOM     26  H8  UNL     1      52.037  -9.743  -7.235  1.00  0.00     0.209 HD
HETATM   27  C10 UNL     1      49.719 -12.025  -6.433  1.00  0.00     0.222 A
ATOM     28  H9  UNL     1      51.217 -10.990  -5.294  1.00  0.00     0.191 HD
HETATM   29  N10 UNL     1      49.258 -12.741  -5.300  1.00  0.00    -0.061 NA
HETATM   30  N11 UNL     1      49.215 -12.162  -7.612  1.00  0.00    -0.159 N
ATOM     31  H11 UNL     1      48.445 -12.819  -7.732  1.00  0.00     0.187 HD
ENDBRANCH  19  21
ENDBRANCH   1  19
TORSDOF 5
ENDMDL