MODEL 5
REMARK VINA RESULT: -8.181553906      3.121      5.201
REMARK  8 active torsions:
REMARK  status: ('A' for Active; 'I' for Inactive)
REMARK    1  A    between atoms: C2_2  and  C8_17
REMARK    2  A    between atoms: N1_3  and  N2_5
REMARK    3  A    between atoms: N2_5  and  C3_7
REMARK    4  A    between atoms: C4_8  and  O1_9
REMARK    5  A    between atoms: C9_18  and  O3_19
REMARK    6  A    between atoms: C10_23  and  C11_24
REMARK       I    between atoms: C11_24  and  N6_26
REMARK    7  A    between atoms: N6_26  and  N7_28
REMARK    8  A    between atoms: N7_28  and  C12_30
ROOT
HETATM    1  C8  UNL     1      45.609 -14.744  -9.834  1.00  0.00     0.065 A
HETATM    2  C9  UNL     1      44.762 -15.653  -9.275  1.00  0.00     0.155 A
HETATM    3  N5  UNL     1      43.501 -15.111  -9.234  1.00  0.00    -0.330 N
ATOM      4  H5  UNL     1      42.675 -15.579  -8.864  1.00  0.00     0.168 HD
HETATM    5  C10 UNL     1      43.517 -13.887  -9.749  1.00  0.00     0.129 A
HETATM    6  C13 UNL     1      44.821 -13.650 -10.125  1.00  0.00     0.095 A
HETATM    7  N8  UNL     1      45.250 -12.434 -10.724  1.00  0.00    -0.099 NA
ENDROOT
BRANCH   1   8
HETATM    8  C2  UNL     1      47.052 -14.927 -10.066  1.00  0.00     0.038 C
HETATM    9  C1  UNL     1      47.459 -16.335 -10.515  1.00  0.00     0.071 C
HETATM   10  N1  UNL     1      47.960 -14.120  -9.951  1.00  0.00    -0.303 N
ATOM     11  H1  UNL     1      48.812 -14.620 -10.201  1.00  0.00     0.186 HD
BRANCH  10  12
HETATM   12  N2  UNL     1      48.337 -12.890  -9.650  1.00  0.00    -0.281 N
ATOM     13  H2  UNL     1      48.187 -12.173 -10.361  1.00  0.00     0.188 HD
BRANCH  12  14
HETATM   14  C3  UNL     1      48.942 -12.466  -8.409  1.00  0.00     0.178 A
HETATM   15  C4  UNL     1      48.640 -12.923  -7.168  1.00  0.00     0.193 A
HETATM   16  N3  UNL     1      49.414 -12.295  -6.234  1.00  0.00    -0.281 N
HETATM   17  C5  UNL     1      49.334 -12.561  -4.808  1.00  0.00     0.163 C
HETATM   18  C6  UNL     1      50.181 -11.460  -6.923  1.00  0.00     0.331 A
HETATM   19  O2  UNL     1      51.034 -10.698  -6.419  1.00  0.00    -0.246 OA
HETATM   20  N4  UNL     1      49.909 -11.548  -8.254  1.00  0.00    -0.285 N
HETATM   21  C7  UNL     1      50.530 -10.806  -9.316  1.00  0.00     0.163 C
BRANCH  15  22
HETATM   22  O1  UNL     1      47.683 -13.890  -6.876  1.00  0.00    -0.343 OA
ATOM     23  H1  UNL     1      47.389 -14.571  -7.469  1.00  0.00     0.219 HD
ENDBRANCH  15  22
ENDBRANCH  12  14
ENDBRANCH  10  12
ENDBRANCH   1   8
BRANCH   2  24
HETATM   24  O3  UNL     1      44.988 -16.929  -8.789  1.00  0.00    -0.345 OA
ATOM     25  H3  UNL     1      44.386 -17.599  -8.487  1.00  0.00     0.219 HD
ENDBRANCH   2  24
BRANCH   5  26
HETATM   26  C11 UNL     1      42.401 -12.965  -9.898  1.00  0.00     0.288 C
HETATM   27  O4  UNL     1      41.649 -12.714  -8.927  1.00  0.00    -0.264 OA
HETATM   28  N6  UNL     1      42.135 -12.328 -11.138  1.00  0.00    -0.262 N
ATOM     29  H6  UNL     1      42.749 -12.534 -11.926  1.00  0.00     0.190 HD
BRANCH  28  30
HETATM   30  N7  UNL     1      41.092 -11.445 -11.339  1.00  0.00    -0.275 N
ATOM     31  H7  UNL     1      40.654 -11.035 -10.514  1.00  0.00     0.189 HD
BRANCH  30  32
HETATM   32  C12 UNL     1      40.641 -11.107 -12.471  1.00  0.00     0.368 C
HETATM   33  O5  UNL     1      40.155 -11.025 -13.618  1.00  0.00    -0.282 OA
ENDBRANCH  30  32
ENDBRANCH  28  30
ENDBRANCH   5  26
TORSDOF 8
ENDMDL