MODEL 5
REMARK VINA RESULT: -7.537604791      2.682      6.382
REMARK  9 active torsions:
REMARK  status: ('A' for Active; 'I' for Inactive)
REMARK    1  A    between atoms: N1_2  and  N2_4
REMARK    2  A    between atoms: N2_4  and  C4_7
REMARK    3  A    between atoms: C5_10  and  N5_11
REMARK    4  A    between atoms: C6_14  and  N6_15
REMARK    5  A    between atoms: C7_19  and  C8_20
REMARK    6  A    between atoms: C8_20  and  N10_22
REMARK    7  A    between atoms: N10_22  and  O1_24
REMARK    8  A    between atoms: C9_28  and  N12_29
REMARK    9  A    between atoms: N12_29  and  C10_31
ROOT
HETATM    1  N2  UNL     1      49.198 -15.852 -13.187  1.00  0.00    -0.037 N
HETATM    2  C3  UNL     1      50.394 -15.225 -13.555  1.00  0.00     0.216 C
HETATM    3  N3  UNL     1      51.393 -14.707 -13.845  1.00  0.00    -0.170 NA
ENDROOT
BRANCH   1   4
HETATM    4  N1  UNL     1      49.121 -17.226 -13.306  1.00  0.00    -0.208 NA
HETATM    5  C1  UNL     1      49.772 -17.761 -14.463  1.00  0.00     0.137 C
HETATM    6  C2  UNL     1      49.416 -17.931 -12.087  1.00  0.00     0.137 C
ENDBRANCH   1   4
BRANCH   1   7
HETATM    7  C4  UNL     1      48.089 -15.091 -12.704  1.00  0.00     0.712 A
HETATM    8  N4  UNL     1      47.042 -14.837 -13.495  1.00  0.00    -0.172 N
HETATM    9  C5  UNL     1      46.029 -14.119 -12.991  1.00  0.00     0.149 A
ATOM     10  H4  UNL     1      47.014 -15.181 -14.455  1.00  0.00     0.186 HD
HETATM   11  C6  UNL     1      46.066 -13.651 -11.684  1.00  0.00     0.161 A
HETATM   12  C9  UNL     1      47.151 -13.918 -10.874  1.00  0.00     0.151 A
HETATM   13  N13 UNL     1      48.132 -14.635 -11.422  1.00  0.00    -0.172 N
ATOM     14  H13 UNL     1      48.952 -14.853 -10.855  1.00  0.00     0.186 HD
BRANCH   9  15
HETATM   15  N5  UNL     1      44.970 -13.828 -13.701  1.00  0.00    -0.383 N
ATOM     16  H52 UNL     1      45.084 -13.147 -14.452  1.00  0.00     0.157 HD
ATOM     17  H51 UNL     1      44.065 -14.261 -13.518  1.00  0.00     0.157 HD
ENDBRANCH   9  15
BRANCH  11  18
HETATM   18  N6  UNL     1      44.952 -12.886 -11.194  1.00  0.00    -0.171 N
HETATM   19  N7  UNL     1      44.854 -11.566 -11.245  1.00  0.00     0.003 NA
HETATM   20  N8  UNL     1      43.706 -11.181 -10.710  1.00  0.00    -0.264 N
HETATM   21  C7  UNL     1      43.034 -12.292 -10.297  1.00  0.00     0.178 A
ATOM     22  H8  UNL     1      43.380 -10.219 -10.622  1.00  0.00     0.186 HD
HETATM   23  N11 UNL     1      43.844 -13.317 -10.618  1.00  0.00    -0.261 N
ATOM     24  H11 UNL     1      43.631 -14.298 -10.439  1.00  0.00     0.190 HD
BRANCH  21  25
HETATM   25  C8  UNL     1      41.730 -12.323  -9.654  1.00  0.00     0.182 C
HETATM   26  N9  UNL     1      40.963 -11.147  -9.540  1.00  0.00    -0.077 NA
BRANCH  25  27
HETATM   27  N10 UNL     1      41.278 -13.433  -9.190  1.00  0.00    -0.252 N
ATOM     28  H10 UNL     1      41.246 -13.543  -8.176  1.00  0.00     0.195 HD
BRANCH  27  29
HETATM   29  O1  UNL     1      40.843 -14.466  -9.948  1.00  0.00    -0.288 OA
ATOM     30  H1  UNL     1      40.946 -15.383  -9.724  1.00  0.00     0.244 HD
ENDBRANCH  27  29
ENDBRANCH  25  27
ENDBRANCH  21  25
ENDBRANCH  11  18
BRANCH  12  31
HETATM   31  N12 UNL     1      47.158 -13.428  -9.553  1.00  0.00    -0.366 N
ATOM     32  H12 UNL     1      47.271 -12.420  -9.437  1.00  0.00     0.162 HD
BRANCH  31  33
HETATM   33  C10 UNL     1      47.022 -14.205  -8.350  1.00  0.00     0.021 C
HETATM   34  C11 UNL     1      47.951 -13.723  -7.254  1.00  0.00     0.037 C
HETATM   35  C12 UNL     1      45.639 -14.227  -7.788  1.00  0.00     0.037 C
HETATM   36  C13 UNL     1      47.444 -15.631  -8.655  1.00  0.00     0.037 C
ENDBRANCH  31  33
ENDBRANCH  12  31
ENDBRANCH   1   7
TORSDOF 9
ENDMDL