MODEL 1
REMARK VINA RESULT: -8.117272713      0.000      0.000
REMARK  9 active torsions:
REMARK  status: ('A' for Active; 'I' for Inactive)
REMARK    1  A    between atoms: C2_2  and  O1_3
REMARK    2  A    between atoms: C2_2  and  O2_5
REMARK    3  A    between atoms: O2_5  and  N1_6
REMARK       I    between atoms: N1_6  and  C3_8
REMARK       I    between atoms: C3_8  and  N3_12
REMARK    4  A    between atoms: N3_12  and  N5_15
REMARK       I    between atoms: N5_15  and  C5_16
REMARK    5  A    between atoms: C5_16  and  C6_18
REMARK    6  A    between atoms: C7_20  and  N6_21
REMARK    7  A    between atoms: N6_21  and  N7_23
REMARK    8  A    between atoms: N7_23  and  O4_24
REMARK    9  A    between atoms: C8_26  and  C9_27
ROOT
HETATM    1  N1  UNL     1      44.047  -9.368 -14.353  1.00  0.00    -0.091 N
ATOM      2  H1  UNL     1      43.640  -8.570 -13.866  1.00  0.00     0.213 HD
HETATM    3  C3  UNL     1      45.461  -9.387 -14.641  1.00  0.00     0.737 C
HETATM    4  N2  UNL     1      46.132  -8.361 -14.813  1.00  0.00    -0.230 N
ATOM      5  H21 UNL     1      47.131  -8.376 -15.017  1.00  0.00     0.174 HD
ATOM      6  H22 UNL     1      45.776  -7.406 -14.793  1.00  0.00     0.174 HD
HETATM    7  N3  UNL     1      45.973 -10.762 -14.671  1.00  0.00     0.058 N
HETATM    8  C4  UNL     1      46.192 -11.419 -15.894  1.00  0.00     0.234 C
HETATM    9  N4  UNL     1      46.365 -11.970 -16.936  1.00  0.00    -0.169 NA
ENDROOT
BRANCH   7  10
HETATM   10  N5  UNL     1      46.143 -11.389 -13.572  1.00  0.00    -0.249 NA
HETATM   11  C5  UNL     1      46.337 -12.072 -12.378  1.00  0.00     0.356 C
HETATM   12  O3  UNL     1      47.430 -12.396 -11.906  1.00  0.00    -0.248 OA
BRANCH  11  13
HETATM   13  C6  UNL     1      45.177 -12.536 -11.505  1.00  0.00     0.116 A
HETATM   14  S1  UNL     1      44.834 -14.064 -10.953  1.00  0.00    -0.062 SA
HETATM   15  C7  UNL     1      43.605 -13.724  -9.864  1.00  0.00     0.104 A
HETATM   16  C8  UNL     1      43.483 -12.343  -9.956  1.00  0.00     0.070 A
HETATM   17  C11 UNL     1      44.330 -11.721 -10.842  1.00  0.00     0.087 A
HETATM   18  N8  UNL     1      44.396 -10.272 -11.124  1.00  0.00    -0.100 NA
BRANCH  15  19
HETATM   19  N6  UNL     1      42.788 -14.510  -8.950  1.00  0.00    -0.271 N
ATOM     20  H6  UNL     1      43.176 -14.818  -8.059  1.00  0.00     0.185 HD
BRANCH  19  21
HETATM   21  N7  UNL     1      41.485 -14.840  -9.289  1.00  0.00     0.019 NA
BRANCH  21  22
HETATM   22  O4  UNL     1      40.910 -15.539  -8.256  1.00  0.00    -0.277 OA
ATOM     23  H4  UNL     1      40.260 -14.992  -7.830  1.00  0.00     0.240 HD
ENDBRANCH  21  22
ENDBRANCH  19  21
ENDBRANCH  15  19
BRANCH  16  24
HETATM   24  C9  UNL     1      42.531 -11.570  -9.069  1.00  0.00     0.160 C
HETATM   25  C10 UNL     1      41.256 -11.063  -9.642  1.00  0.00     0.097 C
HETATM   26  O5  UNL     1      42.822 -11.389  -7.894  1.00  0.00    -0.293 OA
ENDBRANCH  16  24
ENDBRANCH  11  13
ENDBRANCH   7  10
BRANCH   1  27
HETATM   27  O2  UNL     1      43.247 -10.416 -14.731  1.00  0.00    -0.234 OA
BRANCH  27  28
HETATM   28  C2  UNL     1      42.157 -10.898 -14.237  1.00  0.00     0.282 C
HETATM   29  C1  UNL     1      41.233 -10.978 -13.150  1.00  0.00     0.073 C
BRANCH  28  30
HETATM   30  O1  UNL     1      41.608 -11.774 -15.243  1.00  0.00    -0.369 OA
ATOM     31  H1  UNL     1      41.897 -11.400 -16.068  1.00  0.00     0.212 HD
ENDBRANCH  28  30
ENDBRANCH  27  28
ENDBRANCH   1  27
TORSDOF 9
ENDMDL