MODEL 4
REMARK VINA RESULT: -8.768821501      1.328      1.624
REMARK  6 active torsions:
REMARK  status: ('A' for Active; 'I' for Inactive)
REMARK    1  A    between atoms: N1_1  and  C1_4
REMARK    2  A    between atoms: C2_7  and  C3_8
REMARK    3  A    between atoms: C3_8  and  S1_9
REMARK    4  A    between atoms: S1_9  and  C4_10
REMARK    5  A    between atoms: C6_18  and  C7_19
REMARK    6  A    between atoms: C9_35  and  N13_36
ROOT
HETATM    1  C4  UNL     1      48.123 -12.995  -9.093  1.00  0.00     0.162 A
HETATM    2  N3  UNL     1      48.068 -13.361  -7.806  1.00  0.00    -0.168 N
ATOM      3  H3  UNL     1      47.415 -14.094  -7.527  1.00  0.00     0.186 HD
HETATM    4  C5  UNL     1      48.846 -12.793  -6.874  1.00  0.00     0.709 A
HETATM    5  N4  UNL     1      48.902 -13.053  -5.559  1.00  0.00    -0.130 N
ATOM      6  H4  UNL     1      48.345 -13.741  -5.051  1.00  0.00     0.205 HD
HETATM    7  N5  UNL     1      49.793 -12.267  -5.058  1.00  0.00    -0.267 N
ATOM      8  H5  UNL     1      50.057 -12.238  -4.073  1.00  0.00     0.189 HD
HETATM    9  C6  UNL     1      50.345 -11.466  -6.054  1.00  0.00     0.193 A
HETATM   10  N10 UNL     1      49.740 -11.806  -7.201  1.00  0.00    -0.100 N
HETATM   11  C8  UNL     1      49.812 -11.424  -8.484  1.00  0.00     0.202 A
HETATM   12  S2  UNL     1      50.842 -10.262  -8.961  1.00  0.00    -0.039 SA
HETATM   13  N11 UNL     1      48.998 -12.032  -9.399  1.00  0.00    -0.312 N
ATOM     14  H11 UNL     1      49.063 -11.734 -10.372  1.00  0.00     0.170 HD
ENDROOT
BRANCH   1  15
HETATM   15  S1  UNL     1      47.079 -13.756 -10.344  1.00  0.00    -0.086 SA
BRANCH  15  16
HETATM   16  C3  UNL     1      45.893 -14.893  -9.580  1.00  0.00     0.160 C
BRANCH  16  17
HETATM   17  C2  UNL     1      44.617 -14.162  -9.405  1.00  0.00     0.123 A
HETATM   18  N2  UNL     1      43.494 -14.807  -9.097  1.00  0.00    -0.179 N
HETATM   19  C1  UNL     1      42.322 -14.160  -8.933  1.00  0.00     0.691 A
ATOM     20  H2  UNL     1      43.521 -15.821  -8.981  1.00  0.00     0.185 HD
HETATM   21  N14 UNL     1      42.317 -12.820  -9.092  1.00  0.00    -0.023 N
HETATM   22  C9  UNL     1      43.437 -12.150  -9.403  1.00  0.00     0.691 A
ATOM     23  H14 UNL     1      41.443 -12.306  -8.973  1.00  0.00     0.203 HD
HETATM   24  N12 UNL     1      44.611 -12.821  -9.564  1.00  0.00    -0.179 N
ATOM     25  H12 UNL     1      45.468 -12.321  -9.800  1.00  0.00     0.185 HD
BRANCH  19  26
HETATM   26  N1  UNL     1      41.220 -14.773  -8.632  1.00  0.00    -0.234 N
ATOM     27  H12 UNL     1      41.240 -15.771  -8.424  1.00  0.00     0.174 HD
ATOM     28  H11 UNL     1      40.318 -14.298  -8.593  1.00  0.00     0.174 HD
ENDBRANCH  19  26
BRANCH  22  29
HETATM   29  N13 UNL     1      43.381 -10.868  -9.544  1.00  0.00    -0.234 N
ATOM     30 2H13 UNL     1      43.770 -10.272  -8.813  1.00  0.00     0.174 HD
ATOM     31 1H13 UNL     1      42.956 -10.450 -10.371  1.00  0.00     0.174 HD
ENDBRANCH  22  29
ENDBRANCH  16  17
ENDBRANCH  15  16
ENDBRANCH   1  15
BRANCH   9  32
HETATM   32  C7  UNL     1      51.371 -10.479  -5.817  1.00  0.00     0.184 A
HETATM   33  N6  UNL     1      52.441 -10.080  -6.437  1.00  0.00    -0.266 N
HETATM   34  N7  UNL     1      53.070  -9.116  -5.799  1.00  0.00    -0.226 N
ATOM     35  H6  UNL     1      52.760 -10.472  -7.324  1.00  0.00     0.190 HD
HETATM   36  N8  UNL     1      52.365  -8.890  -4.718  1.00  0.00    -0.226 N
ATOM     37  H7  UNL     1      53.927  -8.643  -6.085  1.00  0.00     0.210 HD
HETATM   38  N9  UNL     1      51.336  -9.691  -4.695  1.00  0.00    -0.266 N
ATOM     39  H8  UNL     1      52.586  -8.197  -4.004  1.00  0.00     0.210 HD
ATOM     40  H9  UNL     1      50.624  -9.726  -3.966  1.00  0.00     0.190 HD
ENDBRANCH   9  32
TORSDOF 6
ENDMDL