MODEL 2
REMARK VINA RESULT: -8.266037156      3.997      7.481
REMARK  10 active torsions:
REMARK  status: ('A' for Active; 'I' for Inactive)
REMARK       I    between atoms: N1_2  and  C2_4
REMARK    1  A    between atoms: C2_4  and  C3_6
REMARK    2  A    between atoms: C3_6  and  C4_11
REMARK    3  A    between atoms: N2_7  and  O2_9
REMARK    4  A    between atoms: C4_11  and  N3_12
REMARK    5  A    between atoms: C4_11  and  N5_15
REMARK    6  A    between atoms: C6_18  and  N7_19
REMARK    7  A    between atoms: N8_21  and  C7_23
REMARK    8  A    between atoms: C7_23  and  O3_24
REMARK    9  A    between atoms: N9_26  and  O4_28
REMARK   10  A    between atoms: C8_30  and  N10_31
ROOT
HETATM    1  N3  UNL     1      46.788 -14.442  -8.264  1.00  0.00    -0.307 NA
HETATM    2  C5  UNL     1      47.581 -13.923  -7.402  1.00  0.00     0.270 C
HETATM    3  N4  UNL     1      48.278 -13.460  -6.614  1.00  0.00    -0.156 NA
ENDROOT
BRANCH   1   4
HETATM    4  C4  UNL     1      46.224 -14.780  -9.264  1.00  0.00     0.250 C
BRANCH   4   5
HETATM    5  C3  UNL     1      46.413 -16.056  -9.942  1.00  0.00     0.183 C
HETATM    6  N2  UNL     1      45.847 -17.142  -9.560  1.00  0.00    -0.259 N
ATOM      7  H2  UNL     1      46.084 -17.950 -10.137  1.00  0.00     0.194 HD
BRANCH   5   8
HETATM    8  C2  UNL     1      47.284 -16.205 -11.134  1.00  0.00     0.274 C
HETATM    9  N1  UNL     1      48.185 -15.143 -11.422  1.00  0.00    -0.360 N
HETATM   10  C1  UNL     1      49.070 -15.207 -12.563  1.00  0.00     0.149 C
ATOM     11  H1  UNL     1      48.207 -14.324 -10.815  1.00  0.00     0.162 HD
HETATM   12  O1  UNL     1      47.267 -17.192 -11.879  1.00  0.00    -0.266 OA
ENDBRANCH   5   8
BRANCH   6  13
HETATM   13  O2  UNL     1      45.024 -17.424  -8.575  1.00  0.00    -0.289 OA
ATOM     14  H2  UNL     1      44.076 -17.435  -8.508  1.00  0.00     0.244 HD
ENDBRANCH   6  13
ENDBRANCH   4   5
BRANCH   4  15
HETATM   15  N5  UNL     1      45.270 -13.842  -9.858  1.00  0.00    -0.205 N
HETATM   16  N6  UNL     1      45.523 -12.870 -10.710  1.00  0.00    -0.271 N
HETATM   17  C6  UNL     1      44.396 -12.224 -11.085  1.00  0.00     0.173 A
ATOM     18  H6  UNL     1      46.457 -12.632 -11.045  1.00  0.00     0.189 HD
HETATM   19  C8  UNL     1      43.342 -12.838 -10.416  1.00  0.00     0.194 A
HETATM   20  C9  UNL     1      43.933 -13.834  -9.668  1.00  0.00     0.161 A
HETATM   21  N11 UNL     1      43.317 -14.657  -8.889  1.00  0.00    -0.382 N
ATOM     22 2H11 UNL     1      43.754 -15.394  -8.336  1.00  0.00     0.157 HD
ATOM     23 1H11 UNL     1      42.308 -14.651  -8.745  1.00  0.00     0.157 HD
BRANCH  17  24
HETATM   24  N7  UNL     1      44.228 -11.143 -11.961  1.00  0.00    -0.279 N
HETATM   25  N8  UNL     1      43.779 -11.322 -13.113  1.00  0.00    -0.262 N
ATOM     26  H8  UNL     1      43.542 -12.274 -13.389  1.00  0.00     0.190 HD
ATOM     27  H7  UNL     1      44.474 -10.201 -11.655  1.00  0.00     0.189 HD
BRANCH  25  28
HETATM   28  C7  UNL     1      43.578 -10.284 -14.064  1.00  0.00     0.256 C
HETATM   29  N9  UNL     1      44.496  -9.402 -14.190  1.00  0.00    -0.232 N
ATOM     30  H9  UNL     1      45.331  -9.475 -13.608  1.00  0.00     0.198 HD
BRANCH  28  31
HETATM   31  O3  UNL     1      42.449 -10.185 -14.849  1.00  0.00    -0.330 OA
ATOM     32  H3  UNL     1      42.472 -10.178 -15.799  1.00  0.00     0.221 HD
ENDBRANCH  28  31
BRANCH  29  33
HETATM   33  O4  UNL     1      44.398  -8.376 -15.067  1.00  0.00    -0.287 OA
ATOM     34  H4  UNL     1      44.691  -7.497 -14.855  1.00  0.00     0.244 HD
ENDBRANCH  29  33
ENDBRANCH  25  28
ENDBRANCH  17  24
BRANCH  19  35
HETATM   35  N10 UNL     1      41.962 -12.539 -10.472  1.00  0.00    -0.108 N
HETATM   36  O5  UNL     1      41.365 -12.510 -11.552  1.00  0.00    -0.531 OA
HETATM   37  O6  UNL     1      41.266 -12.276  -9.324  1.00  0.00    -0.531 OA
ENDBRANCH  19  35
ENDBRANCH   4  15
ENDBRANCH   1   4
TORSDOF 10
ENDMDL