MODEL 3
REMARK VINA RESULT: -9.528165777      1.717      2.229
REMARK  6 active torsions:
REMARK  status: ('A' for Active; 'I' for Inactive)
REMARK    1  A    between atoms: C4_5  and  N2_6
REMARK    2  A    between atoms: N2_6  and  N3_8
REMARK    3  A    between atoms: C7_15  and  N6_16
REMARK    4  A    between atoms: C8_19  and  N7_20
REMARK    5  A    between atoms: N7_20  and  O3_22
REMARK    6  A    between atoms: C10_28  and  N9_29
ROOT
HETATM    1  N3  UNL     1      46.940 -12.651  -9.651  1.00  0.00    -0.280 N
ATOM      2  H3  UNL     1      47.169 -11.723 -10.006  1.00  0.00     0.188 HD
HETATM    3  C5  UNL     1      45.746 -12.881  -9.800  1.00  0.00     0.191 C
HETATM    4  N4  UNL     1      45.031 -11.854 -10.391  1.00  0.00    -0.323 N
ATOM      5  H4  UNL     1      45.569 -11.034 -10.672  1.00  0.00     0.169 HD
HETATM    6  C6  UNL     1      43.704 -11.811 -10.640  1.00  0.00     0.155 C
HETATM    7  N5  UNL     1      43.266 -11.017 -11.718  1.00  0.00    -0.080 NA
HETATM    8  C7  UNL     1      42.718 -12.473  -9.947  1.00  0.00     0.189 C
HETATM    9  C8  UNL     1      42.873 -13.580  -9.090  1.00  0.00     0.165 C
HETATM   10  N8  UNL     1      43.984 -14.321  -8.874  1.00  0.00    -0.303 N
ATOM     11  H8  UNL     1      43.881 -15.136  -8.268  1.00  0.00     0.171 HD
HETATM   12  C9  UNL     1      45.237 -14.086  -9.388  1.00  0.00     0.292 C
HETATM   13  O4  UNL     1      46.010 -15.061  -9.500  1.00  0.00    -0.264 OA
ENDROOT
BRANCH   1  14
HETATM   14  N2  UNL     1      48.060 -13.258  -9.154  1.00  0.00    -0.297 N
ATOM     15  H2  UNL     1      48.156 -14.270  -9.064  1.00  0.00     0.187 HD
BRANCH  14  16
HETATM   16  C4  UNL     1      49.100 -12.320  -8.768  1.00  0.00     0.081 A
HETATM   17  C3  UNL     1      49.740 -11.574  -9.744  1.00  0.00     0.035 A
HETATM   18  C2  UNL     1      50.688 -10.627  -9.446  1.00  0.00     0.029 A
HETATM   19  C1  UNL     1      51.027 -10.399  -8.114  1.00  0.00     0.048 A
HETATM   20  N1  UNL     1      51.994  -9.401  -7.819  1.00  0.00    -0.102 NA
HETATM   21  C11 UNL     1      50.391 -11.141  -7.156  1.00  0.00     0.065 A
HETATM   22  C10 UNL     1      49.421 -12.111  -7.461  1.00  0.00     0.132 A
BRANCH  22  23
HETATM   23  N9  UNL     1      48.831 -12.828  -6.398  1.00  0.00    -0.113 N
HETATM   24  O5  UNL     1      49.302 -12.756  -5.264  1.00  0.00    -0.532 OA
HETATM   25  O6  UNL     1      47.737 -13.614  -6.630  1.00  0.00    -0.532 OA
ENDBRANCH  22  23
ENDBRANCH  14  16
ENDBRANCH   1  14
BRANCH   8  26
HETATM   26  N6  UNL     1      41.415 -11.959 -10.132  1.00  0.00    -0.108 N
HETATM   27  O1  UNL     1      40.743 -12.367 -11.094  1.00  0.00    -0.532 OA
HETATM   28  O2  UNL     1      40.868 -11.033  -9.293  1.00  0.00    -0.532 OA
ENDBRANCH   8  26
BRANCH   9  29
HETATM   29  N7  UNL     1      41.841 -13.929  -8.436  1.00  0.00    -0.251 N
ATOM     30  H7  UNL     1      41.465 -13.307  -7.720  1.00  0.00     0.196 HD
BRANCH  29  31
HETATM   31  O3  UNL     1      41.234 -15.115  -8.678  1.00  0.00    -0.288 OA
ATOM     32  H3  UNL     1      40.736 -15.554  -7.999  1.00  0.00     0.244 HD
ENDBRANCH  29  31
ENDBRANCH   9  29
TORSDOF 6
ENDMDL