MODEL 1
REMARK VINA RESULT: -7.487314936      0.000      0.000
REMARK  6 active torsions:
REMARK  status: ('A' for Active; 'I' for Inactive)
REMARK    1  A    between atoms: C2_2  and  C3_3
REMARK       I    between atoms: N3_9  and  C5_11
REMARK    2  A    between atoms: C5_11  and  C6_13
REMARK    3  A    between atoms: C6_13  and  S1_14
REMARK    4  A    between atoms: S1_14  and  C7_15
REMARK    5  A    between atoms: C10_21  and  N6_22
REMARK    6  A    between atoms: C13_27  and  N8_28
ROOT
HETATM    1  C7  UNL     1      21.484 -31.744  10.022  1.00  0.00     0.131 A
HETATM    2  N4  UNL     1      22.147 -32.393  10.960  1.00  0.00    -0.278 N
ATOM      3  H4  UNL     1      22.117 -32.064  11.925  1.00  0.00     0.189 HD
HETATM    4  N5  UNL     1      22.834 -33.442  10.660  1.00  0.00    -0.212 N
HETATM    5  C8  UNL     1      23.628 -34.350  11.330  1.00  0.00     0.162 A
HETATM    6  C9  UNL     1      23.955 -34.376  12.728  1.00  0.00     0.100 A
HETATM    7  C10 UNL     1      23.211 -35.127  13.642  1.00  0.00     0.136 A
HETATM    8  N7  UNL     1      23.546 -35.116  14.952  1.00  0.00    -0.176 N
ATOM      9  H7  UNL     1      22.993 -35.670  15.607  1.00  0.00     0.186 HD
HETATM   10  C13 UNL     1      24.581 -34.401  15.421  1.00  0.00     0.679 A
HETATM   11  N9  UNL     1      25.308 -33.672  14.558  1.00  0.00    -0.176 N
ATOM     12  H9  UNL     1      26.096 -33.125  14.902  1.00  0.00     0.186 HD
HETATM   13  C14 UNL     1      25.009 -33.655  13.241  1.00  0.00     0.132 A
HETATM   14  N10 UNL     1      25.725 -32.952  12.468  1.00  0.00    -0.384 N
ATOM     15 1H10 UNL     1      26.506 -32.418  12.848  1.00  0.00     0.157 HD
ATOM     16 2H10 UNL     1      25.499 -32.939  11.473  1.00  0.00     0.157 HD
HETATM   17  N11 UNL     1      24.068 -35.231  10.418  1.00  0.00    -0.281 N
ATOM     18  H11 UNL     1      24.679 -36.019  10.634  1.00  0.00     0.188 HD
HETATM   19  N12 UNL     1      23.623 -34.964   9.230  1.00  0.00    -0.276 N
ATOM     20  H12 UNL     1      23.807 -35.475   8.365  1.00  0.00     0.189 HD
HETATM   21  C15 UNL     1      22.853 -33.843   9.394  1.00  0.00     0.189 A
HETATM   22  S2  UNL     1      21.858 -32.676   8.635  1.00  0.00    -0.024 SA
ENDROOT
BRANCH   7  23
HETATM   23  N6  UNL     1      22.115 -35.906  13.221  1.00  0.00    -0.375 N
HETATM   24  C11 UNL     1      20.811 -35.319  13.138  1.00  0.00     0.150 C
HETATM   25  C12 UNL     1      22.302 -37.286  12.878  1.00  0.00     0.150 C
ENDBRANCH   7  23
BRANCH   1  26
HETATM   26  S1  UNL     1      20.458 -30.266  10.171  1.00  0.00    -0.094 SA
BRANCH  26  27
HETATM   27  C6  UNL     1      19.076 -30.722  11.286  1.00  0.00     0.184 C
BRANCH  27  28
HETATM   28  C5  UNL     1      19.387 -30.375  12.679  1.00  0.00     0.234 C
HETATM   29  N3  UNL     1      18.378 -30.009  13.579  1.00  0.00    -0.291 N
HETATM   30  C4  UNL     1      17.116 -30.214  13.468  1.00  0.00     0.247 A
ATOM     31  H3  UNL     1      18.682 -29.522  14.423  1.00  0.00     0.172 HD
HETATM   32  N2  UNL     1      16.145 -29.861  14.335  1.00  0.00    -0.263 N
HETATM   33  O2  UNL     1      16.495 -30.810  12.488  1.00  0.00    -0.264 OA
HETATM   34  N1  UNL     1      14.989 -30.255  13.851  1.00  0.00    -0.280 N
ATOM     35  H2  UNL     1      16.286 -29.372  15.219  1.00  0.00     0.190 HD
HETATM   36  C3  UNL     1      15.201 -30.862  12.673  1.00  0.00     0.141 A
ATOM     37  H1  UNL     1      14.081 -30.122  14.298  1.00  0.00     0.189 HD
HETATM   38  O1  UNL     1      20.580 -30.406  13.066  1.00  0.00    -0.272 OA
BRANCH  36  39
HETATM   39  C2  UNL     1      14.145 -31.435  11.828  1.00  0.00     0.081 C
HETATM   40  C1  UNL     1      13.183 -32.204  12.741  1.00  0.00     0.013 C
ENDBRANCH  36  39
ENDBRANCH  27  28
ENDBRANCH  26  27
ENDBRANCH   1  26
BRANCH  10  41
HETATM   41  N8  UNL     1      24.875 -34.412  16.698  1.00  0.00    -0.234 N
ATOM     42  H82 UNL     1      24.289 -34.920  17.361  1.00  0.00     0.174 HD
ATOM     43  H81 UNL     1      25.696 -33.915  17.046  1.00  0.00     0.174 HD
ENDBRANCH  10  41
TORSDOF 6
ENDMDL