MODEL 1
REMARK VINA RESULT: -8.720966430      0.000      0.000
REMARK  9 active torsions:
REMARK  status: ('A' for Active; 'I' for Inactive)
REMARK    1  A    between atoms: S1_2  and  C2_3
REMARK    2  A    between atoms: C3_6  and  N2_7
REMARK    3  A    between atoms: N2_7  and  N3_9
REMARK    4  A    between atoms: C4_11  and  C5_12
REMARK    5  A    between atoms: C6_13  and  S2_14
REMARK    6  A    between atoms: S2_14  and  C7_15
REMARK    7  A    between atoms: C10_24  and  N6_25
REMARK    8  A    between atoms: N7_28  and  N8_29
REMARK    9  A    between atoms: C11_34  and  C12_35
ROOT
HETATM    1  N3  UNL     1      21.119 -28.090  10.769  1.00  0.00    -0.295 N
ATOM      2  H3  UNL     1      21.949 -27.497  10.769  1.00  0.00     0.186 HD
HETATM    3  C4  UNL     1      20.884 -28.780   9.718  1.00  0.00     0.142 C
ENDROOT
BRANCH   3   4
HETATM    4  C5  UNL     1      21.765 -28.724   8.559  1.00  0.00     0.125 A
HETATM    5  C6  UNL     1      21.933 -29.688   7.575  1.00  0.00     0.118 A
HETATM    6  N5  UNL     1      22.833 -29.233   6.701  1.00  0.00    -0.182 N
HETATM    7  C10 UNL     1      23.228 -28.021   7.113  1.00  0.00     0.698 A
ATOM      8  H5  UNL     1      23.162 -29.721   5.867  1.00  0.00     0.185 HD
HETATM    9  N7  UNL     1      22.583 -27.713   8.233  1.00  0.00    -0.089 N
BRANCH   5  10
HETATM   10  S2  UNL     1      21.089 -31.234   7.503  1.00  0.00    -0.085 SA
BRANCH  10  11
HETATM   11  C7  UNL     1      20.509 -31.543   5.832  1.00  0.00     0.238 C
HETATM   12  C8  UNL     1      20.109 -32.907   5.493  1.00  0.00     0.247 C
HETATM   13  O1  UNL     1      19.481 -33.867   5.983  1.00  0.00    -0.271 OA
HETATM   14  N4  UNL     1      20.772 -32.776   4.218  1.00  0.00    -0.295 N
HETATM   15  C9  UNL     1      21.565 -31.772   4.824  1.00  0.00     0.247 C
ATOM     16  H4  UNL     1      20.702 -33.210   3.298  1.00  0.00     0.171 HD
HETATM   17  O2  UNL     1      22.694 -31.298   4.582  1.00  0.00    -0.271 OA
ENDBRANCH  10  11
ENDBRANCH   5  10
BRANCH   7  18
HETATM   18  N6  UNL     1      24.101 -27.299   6.485  1.00  0.00    -0.233 N
ATOM     19  H62 UNL     1      24.755 -26.629   6.889  1.00  0.00     0.174 HD
ATOM     20  H61 UNL     1      24.231 -27.324   5.474  1.00  0.00     0.174 HD
ENDBRANCH   7  18
BRANCH   9  21
HETATM   21  N8  UNL     1      22.749 -26.508   8.953  1.00  0.00    -0.324 N
ATOM     22  H82 UNL     1      22.247 -26.267   9.807  1.00  0.00     0.178 HD
ATOM     23  H81 UNL     1      23.379 -25.742   8.710  1.00  0.00     0.178 HD
ENDBRANCH   9  21
ENDBRANCH   3   4
BRANCH   1  24
HETATM   24  N2  UNL     1      20.336 -28.088  11.906  1.00  0.00    -0.132 N
ATOM     25  H2  UNL     1      20.175 -27.192  12.366  1.00  0.00     0.205 HD
BRANCH  24  26
HETATM   26  C3  UNL     1      19.795 -29.125  12.425  1.00  0.00     0.700 A
HETATM   27  N1  UNL     1      20.591 -30.038  13.009  1.00  0.00    -0.169 N
HETATM   28  C2  UNL     1      20.093 -31.163  13.583  1.00  0.00     0.160 A
ATOM     29  H1  UNL     1      21.599 -29.881  13.023  1.00  0.00     0.186 HD
HETATM   30  N10 UNL     1      18.749 -31.325  13.538  1.00  0.00    -0.321 N
HETATM   31  C11 UNL     1      17.938 -30.431  12.962  1.00  0.00     0.140 A
ATOM     32  H10 UNL     1      18.341 -32.159  13.959  1.00  0.00     0.169 HD
HETATM   33  N9  UNL     1      18.452 -29.331  12.405  1.00  0.00    -0.174 N
ATOM     34  H9  UNL     1      17.837 -28.646  11.965  1.00  0.00     0.186 HD
BRANCH  28  35
HETATM   35  S1  UNL     1      21.156 -32.375  14.357  1.00  0.00    -0.098 SA
HETATM   36  C1  UNL     1      20.223 -33.955  14.345  1.00  0.00     0.099 C
ENDBRANCH  28  35
BRANCH  31  37
HETATM   37  C12 UNL     1      16.475 -30.677  12.951  1.00  0.00     0.049 A
HETATM   38  C13 UNL     1      15.796 -31.602  12.203  1.00  0.00     0.023 A
HETATM   39  C14 UNL     1      14.467 -31.651  12.354  1.00  0.00     0.009 A
HETATM   40  C15 UNL     1      13.897 -30.775  13.240  1.00  0.00     0.050 A
HETATM   41  S3  UNL     1      15.240 -29.911  13.835  1.00  0.00    -0.098 SA
ENDBRANCH  31  37
ENDBRANCH  24  26
ENDBRANCH   1  24
TORSDOF 9
ENDMDL