MODEL 5
REMARK VINA RESULT: -5.320166701      2.611      7.548
REMARK  9 active torsions:
REMARK  status: ('A' for Active; 'I' for Inactive)
REMARK    1  A    between atoms: O1_2  and  C2_3
REMARK       I    between atoms: C2_3  and  N1_5
REMARK    2  A    between atoms: N1_5  and  C3_7
REMARK    3  A    between atoms: C4_8  and  C5_9
REMARK    4  A    between atoms: C8_16  and  O4_18
REMARK    5  A    between atoms: O4_18  and  C10_19
REMARK    6  A    between atoms: C10_19  and  C11_20
REMARK    7  A    between atoms: C12_23  and  O6_24
REMARK    8  A    between atoms: C12_23  and  O7_26
REMARK    9  A    between atoms: O7_26  and  S3_27
ROOT
HETATM    1  C3  UNL     1      21.343 -34.185  13.266  1.00  0.00     0.077 A
HETATM    2  C4  UNL     1      20.529 -34.863  14.127  1.00  0.00     0.098 A
HETATM    3  S1  UNL     1      19.161 -33.851  14.216  1.00  0.00    -0.080 SA
HETATM    4  C6  UNL     1      19.661 -32.590  13.153  1.00  0.00     0.069 A
HETATM    5  C7  UNL     1      20.867 -33.002  12.772  1.00  0.00     0.050 A
HETATM    6  S2  UNL     1      21.465 -31.685  11.628  1.00  0.00    -0.082 SA
HETATM    7  C8  UNL     1      20.244 -30.478  12.138  1.00  0.00     0.178 C
HETATM    8  C9  UNL     1      20.761 -29.635  13.313  1.00  0.00     0.066 C
HETATM    9  C12 UNL     1      19.114 -31.341  12.644  1.00  0.00     0.260 C
ENDROOT
BRANCH   9  10
HETATM   10  O6  UNL     1      18.483 -30.633  13.660  1.00  0.00    -0.357 OA
ATOM     11  H6  UNL     1      19.050 -30.559  14.419  1.00  0.00     0.213 HD
ENDBRANCH   9  10
BRANCH   9  12
HETATM   12  O7  UNL     1      18.199 -31.487  11.603  1.00  0.00    -0.208 OA
BRANCH  12  13
HETATM   13  S3  UNL     1      16.637 -31.192  12.134  1.00  0.00     0.254 S
HETATM   14  O8  UNL     1      15.656 -31.132  10.992  1.00  0.00    -0.572 OA
HETATM   15  O9  UNL     1      16.153 -32.212  13.101  1.00  0.00    -0.572 OA
HETATM   16  O10 UNL     1      16.630 -29.702  12.917  1.00  0.00    -0.572 OA
ENDBRANCH  12  13
ENDBRANCH   9  12
BRANCH   7  17
HETATM   17  O4  UNL     1      19.879 -29.635  11.155  1.00  0.00    -0.330 OA
BRANCH  17  18
HETATM   18  C10 UNL     1      20.750 -29.019  10.363  1.00  0.00     0.208 C
BRANCH  18  19
HETATM   19  C11 UNL     1      20.962 -29.374   8.968  1.00  0.00     0.276 C
HETATM   20  N3  UNL     1      21.714 -28.436   8.148  1.00  0.00    -0.056 NA
HETATM   21  O5  UNL     1      20.583 -30.393   8.359  1.00  0.00    -0.270 OA
ENDBRANCH  18  19
ENDBRANCH  17  18
ENDBRANCH   7  17
BRANCH   2  22
HETATM   22  C5  UNL     1      20.800 -36.155  14.798  1.00  0.00     0.274 C
HETATM   23  N2  UNL     1      19.657 -36.865  15.238  1.00  0.00    -0.057 NA
HETATM   24  O3  UNL     1      21.977 -36.518  14.928  1.00  0.00    -0.270 OA
ENDBRANCH   2  22
BRANCH   1  25
HETATM   25  N1  UNL     1      22.656 -34.710  12.899  1.00  0.00    -0.300 N
HETATM   26  C2  UNL     1      23.812 -34.176  13.521  1.00  0.00     0.364 C
HETATM   27  O2  UNL     1      23.714 -33.263  14.376  1.00  0.00    -0.238 OA
ATOM     28  H1  UNL     1      22.740 -35.452  12.204  1.00  0.00     0.171 HD
BRANCH  26  29
HETATM   29  O1  UNL     1      25.079 -34.634  13.213  1.00  0.00    -0.309 OA
HETATM   30  C1  UNL     1      25.958 -35.148  14.217  1.00  0.00     0.215 C
ENDBRANCH  26  29
ENDBRANCH   1  25
TORSDOF 9
ENDMDL