MODEL 3
REMARK VINA RESULT: -7.836355342      3.281      6.190
REMARK  8 active torsions:
REMARK  status: ('A' for Active; 'I' for Inactive)
REMARK    1  A    between atoms: C2_2  and  N1_4
REMARK    2  A    between atoms: N1_4  and  C4_5
REMARK    3  A    between atoms: C6_9  and  O1_10
REMARK    4  A    between atoms: O1_10  and  C7_11
REMARK    5  A    between atoms: C7_11  and  C8_12
REMARK    6  A    between atoms: N3_14  and  C10_15
REMARK    7  A    between atoms: C12_21  and  N6_22
REMARK    8  A    between atoms: C19_40  and  N12_41
ROOT
HETATM    1  C10 UNL     1      23.083 -33.439  13.251  1.00  0.00     0.153 A
HETATM    2  N4  UNL     1      24.049 -32.742  12.613  1.00  0.00    -0.336 N
ATOM      3  H4  UNL     1      23.906 -31.756  12.397  1.00  0.00     0.168 HD
HETATM    4  C11 UNL     1      25.202 -33.345  12.262  1.00  0.00     0.183 A
HETATM    5  N5  UNL     1      25.451 -34.639  12.518  1.00  0.00    -0.338 N
ATOM      6  H5  UNL     1      26.336 -35.060  12.236  1.00  0.00     0.168 HD
HETATM    7  C12 UNL     1      24.515 -35.380  13.155  1.00  0.00     0.124 A
HETATM    8  C13 UNL     1      23.334 -34.767  13.516  1.00  0.00     0.134 A
HETATM    9  C14 UNL     1      22.311 -35.511  14.193  1.00  0.00     0.107 C
HETATM   10  N7  UNL     1      21.500 -36.119  14.751  1.00  0.00    -0.191 NA
ENDROOT
BRANCH   1  11
HETATM   11  N3  UNL     1      21.875 -32.779  13.611  1.00  0.00    -0.233 N
HETATM   12  C9  UNL     1      20.768 -32.790  12.845  1.00  0.00     0.148 A
HETATM   13  C8  UNL     1      19.786 -32.053  13.493  1.00  0.00     0.069 A
HETATM   14  N9  UNL     1      20.342 -31.624  14.630  1.00  0.00    -0.286 N
HETATM   15  N8  UNL     1      21.582 -32.076  14.664  1.00  0.00    -0.234 N
ATOM     16  H9  UNL     1      19.890 -31.052  15.342  1.00  0.00     0.188 HD
ATOM     17  H8  UNL     1      22.234 -31.893  15.426  1.00  0.00     0.209 HD
BRANCH  13  18
HETATM   18  C7  UNL     1      18.409 -31.767  13.077  1.00  0.00     0.237 C
BRANCH  18  19
HETATM   19  O1  UNL     1      18.353 -31.296  11.729  1.00  0.00    -0.330 OA
BRANCH  19  20
HETATM   20  C6  UNL     1      19.249 -30.312  11.286  1.00  0.00     0.143 A
HETATM   21  N2  UNL     1      19.883 -30.416  10.107  1.00  0.00    -0.331 N
HETATM   22  C5  UNL     1      20.744 -29.446   9.708  1.00  0.00     0.122 A
ATOM     23  H2  UNL     1      19.717 -31.226   9.510  1.00  0.00     0.168 HD
HETATM   24  C4  UNL     1      21.378 -29.602   8.470  1.00  0.00     0.241 A
HETATM   25  C17 UNL     1      20.944 -28.372  10.536  1.00  0.00     0.081 A
HETATM   26  N14 UNL     1      22.234 -28.606   8.109  1.00  0.00    -0.040 N
HETATM   27  C18 UNL     1      22.427 -27.558   8.921  1.00  0.00     0.721 A
HETATM   28  N13 UNL     1      22.994 -28.423   7.026  1.00  0.00    -0.108 N
HETATM   29  N10 UNL     1      21.807 -27.430  10.102  1.00  0.00    -0.187 N
HETATM   30  N11 UNL     1      23.315 -26.740   8.309  1.00  0.00    -0.019 N
ATOM     31  H10 UNL     1      21.991 -26.611  10.682  1.00  0.00     0.184 HD
HETATM   32  C19 UNL     1      23.674 -27.273   7.128  1.00  0.00     0.706 A
ATOM     33  H11 UNL     1      23.659 -25.857   8.686  1.00  0.00     0.203 HD
ATOM     34  H13 UNL     1      23.048 -29.065   6.235  1.00  0.00     0.207 HD
HETATM   35  C16 UNL     1      20.302 -28.242  11.756  1.00  0.00     0.037 A
HETATM   36  C15 UNL     1      19.435 -29.241  12.134  1.00  0.00     0.058 A
BRANCH  24  37
HETATM   37  N1  UNL     1      21.197 -30.539   7.760  1.00  0.00    -0.422 NA
BRANCH  37  38
HETATM   38  C2  UNL     1      20.997 -31.594   6.961  1.00  0.00     0.157 C
HETATM   39  C1  UNL     1      21.801 -32.856   7.363  1.00  0.00     0.047 C
HETATM   40  C3  UNL     1      21.486 -31.286   5.528  1.00  0.00     0.047 C
ENDBRANCH  37  38
ENDBRANCH  24  37
BRANCH  32  41
HETATM   41  N12 UNL     1      24.501 -26.801   6.245  1.00  0.00    -0.233 N
ATOM     42 2H12 UNL     1      25.224 -26.104   6.420  1.00  0.00     0.174 HD
ATOM     43 1H12 UNL     1      24.574 -27.034   5.254  1.00  0.00     0.174 HD
ENDBRANCH  32  41
ENDBRANCH  19  20
ENDBRANCH  18  19
ENDBRANCH  13  18
ENDBRANCH   1  11
BRANCH   7  44
HETATM   44  N6  UNL     1      24.721 -36.639  13.420  1.00  0.00    -0.384 N
ATOM     45  H62 UNL     1      24.169 -37.119  14.131  1.00  0.00     0.157 HD
ATOM     46  H61 UNL     1      25.435 -37.170  12.924  1.00  0.00     0.157 HD
ENDBRANCH   7  44
TORSDOF 8
ENDMDL