MODEL 5
REMARK VINA RESULT: -6.657367806      1.598      3.696
REMARK  9 active torsions:
REMARK  status: ('A' for Active; 'I' for Inactive)
REMARK    1  A    between atoms: N2_7  and  C6_8
REMARK    2  A    between atoms: C6_8  and  S2_10
REMARK    3  A    between atoms: S2_10  and  C7_11
REMARK    4  A    between atoms: C7_11  and  C8_12
REMARK    5  A    between atoms: C8_12  and  S3_13
REMARK    6  A    between atoms: S3_13  and  C9_14
REMARK    7  A    between atoms: C10_15  and  C11_16
REMARK    8  A    between atoms: N7_25  and  C12_26
REMARK    9  A    between atoms: C13_32  and  N10_33
ROOT
HETATM    1  N1  UNL     1      20.887 -30.460   9.051  1.00  0.00    -0.197 NA
HETATM    2  C1  UNL     1      20.301 -30.094   9.996  1.00  0.00     0.066 C
HETATM    3  C2  UNL     1      19.581 -29.624  11.181  1.00  0.00     0.127 C
HETATM    4  C3  UNL     1      18.559 -30.645  11.625  1.00  0.00     0.056 C
HETATM    5  C4  UNL     1      18.680 -30.659  13.131  1.00  0.00     0.205 C
HETATM    6  C5  UNL     1      19.432 -31.931  13.525  1.00  0.00     0.157 C
HETATM    7  N2  UNL     1      20.689 -31.931  12.787  1.00  0.00    -0.362 N
HETATM    8  C14 UNL     1      21.377 -30.730  12.413  1.00  0.00     0.158 C
HETATM    9  C15 UNL     1      20.474 -29.521  12.393  1.00  0.00     0.221 C
HETATM   10  N11 UNL     1      19.529 -29.547  13.483  1.00  0.00    -0.062 N
ATOM     11 1H11 UNL     1      19.945 -29.603  14.413  1.00  0.00     0.278 HD
ATOM     12 2H11 UNL     1      19.038 -28.668  13.648  1.00  0.00     0.278 HD
ENDROOT
BRANCH   7  13
HETATM   13  C6  UNL     1      21.271 -33.189  12.414  1.00  0.00     0.136 C
HETATM   14  S1  UNL     1      22.470 -33.228  11.301  1.00  0.00    -0.053 SA
BRANCH  13  15
HETATM   15  S2  UNL     1      20.694 -34.681  13.171  1.00  0.00    -0.100 SA
BRANCH  15  16
HETATM   16  C7  UNL     1      21.953 -35.969  13.104  1.00  0.00     0.092 C
BRANCH  16  17
HETATM   17  C8  UNL     1      22.640 -36.098  14.417  1.00  0.00     0.091 C
BRANCH  17  18
HETATM   18  S3  UNL     1      23.606 -34.657  14.924  1.00  0.00    -0.107 SA
BRANCH  18  19
HETATM   19  C9  UNL     1      25.264 -35.133  15.346  1.00  0.00     0.128 A
HETATM   20  C10 UNL     1      25.746 -35.447  16.593  1.00  0.00     0.125 A
HETATM   21  N5  UNL     1      27.056 -35.789  16.352  1.00  0.00    -0.280 N
HETATM   22  N6  UNL     1      27.312 -35.681  15.066  1.00  0.00    -0.233 N
ATOM     23  H5  UNL     1      27.726 -36.083  17.062  1.00  0.00     0.188 HD
HETATM   24  N7  UNL     1      26.256 -35.283  14.405  1.00  0.00    -0.211 N
ATOM     25  H6  UNL     1      28.217 -35.881  14.640  1.00  0.00     0.209 HD
BRANCH  20  26
HETATM   26  C11 UNL     1      25.115 -35.427  17.907  1.00  0.00     0.141 C
HETATM   27  N3  UNL     1      25.362 -34.621  18.860  1.00  0.00    -0.386 N
ATOM     28  H32 UNL     1      26.072 -33.906  18.712  1.00  0.00     0.157 HD
ATOM     29  H31 UNL     1      24.921 -34.608  19.779  1.00  0.00     0.157 HD
HETATM   30  N4  UNL     1      24.103 -36.447  18.118  1.00  0.00    -0.081 NA
ENDBRANCH  20  26
BRANCH  24  31
HETATM   31  C12 UNL     1      26.096 -35.037  13.010  1.00  0.00     0.197 A
HETATM   32  N8  UNL     1      25.544 -35.811  12.062  1.00  0.00    -0.220 N
HETATM   33  O1  UNL     1      25.591 -35.227  10.903  1.00  0.00    -0.153 OA
ATOM     34  H8  UNL     1      25.143 -36.734  12.229  1.00  0.00     0.198 HD
HETATM   35  N9  UNL     1      26.163 -34.074  11.054  1.00  0.00    -0.222 N
HETATM   36  C13 UNL     1      26.501 -33.899  12.348  1.00  0.00     0.169 A
ATOM     37  H9  UNL     1      26.333 -33.401  10.307  1.00  0.00     0.198 HD
BRANCH  36  38
HETATM   38  N10 UNL     1      27.089 -32.871  12.876  1.00  0.00    -0.381 N
ATOM     39 2H10 UNL     1      27.475 -32.793  13.817  1.00  0.00     0.157 HD
ATOM     40 1H10 UNL     1      27.257 -31.972  12.423  1.00  0.00     0.157 HD
ENDBRANCH  36  38
ENDBRANCH  24  31
ENDBRANCH  18  19
ENDBRANCH  17  18
ENDBRANCH  16  17
ENDBRANCH  15  16
ENDBRANCH  13  15
ENDBRANCH   7  13
TORSDOF 9
ENDMDL