MODEL 2
REMARK VINA RESULT: -7.330207359      5.273      7.392
REMARK  8 active torsions:
REMARK  status: ('A' for Active; 'I' for Inactive)
REMARK    1  A    between atoms: C4_7  and  S2_8
REMARK    2  A    between atoms: S2_8  and  C5_9
REMARK    3  A    between atoms: C5_9  and  C6_10
REMARK    4  A    between atoms: C6_10  and  C7_11
REMARK    5  A    between atoms: N2_13  and  C9_14
REMARK    6  A    between atoms: C10_20  and  N5_21
REMARK    7  A    between atoms: C13_35  and  S3_36
REMARK    8  A    between atoms: S3_36  and  N10_37
ROOT
HETATM    1  C1  UNL     1      24.591 -28.217   5.329  1.00  0.00     0.058 C
HETATM    2  C2  UNL     1      23.617 -28.557   6.408  1.00  0.00     0.005 A
HETATM    3  S1  UNL     1      23.040 -27.526   7.623  1.00  0.00    -0.075 SA
HETATM    4  C3  UNL     1      21.997 -28.611   8.434  1.00  0.00     0.092 A
HETATM    5  N1  UNL     1      21.167 -28.497   9.517  1.00  0.00    -0.330 N
ATOM      6  H1  UNL     1      21.109 -27.606  10.010  1.00  0.00     0.168 HD
HETATM    7  C4  UNL     1      20.428 -29.530   9.940  1.00  0.00     0.146 A
HETATM    8  N8  UNL     1      20.535 -30.660   9.270  1.00  0.00    -0.323 N
ATOM      9  H8  UNL     1      19.977 -31.454   9.582  1.00  0.00     0.169 HD
HETATM   10  C11 UNL     1      21.333 -30.830   8.202  1.00  0.00     0.115 A
HETATM   11  N9  UNL     1      21.292 -31.977   7.664  1.00  0.00    -0.385 N
ATOM     12  H91 UNL     1      21.898 -32.107   6.854  1.00  0.00     0.157 HD
ATOM     13  H92 UNL     1      20.717 -32.746   8.008  1.00  0.00     0.157 HD
HETATM   14  C12 UNL     1      22.130 -29.765   7.725  1.00  0.00     0.066 A
HETATM   15  C13 UNL     1      22.979 -29.748   6.661  1.00  0.00     0.108 A
ENDROOT
BRANCH   7  16
HETATM   16  S2  UNL     1      19.331 -29.409  11.349  1.00  0.00    -0.093 SA
BRANCH  16  17
HETATM   17  C5  UNL     1      20.018 -30.360  12.743  1.00  0.00     0.088 C
BRANCH  17  18
HETATM   18  C6  UNL     1      19.227 -31.641  12.959  1.00  0.00     0.071 C
BRANCH  18  19
HETATM   19  C7  UNL     1      17.801 -31.193  13.133  1.00  0.00     0.045 A
HETATM   20  C8  UNL     1      16.699 -31.750  12.520  1.00  0.00     0.146 A
HETATM   21  N2  UNL     1      15.605 -31.067  12.934  1.00  0.00    -0.230 N
HETATM   22  N6  UNL     1      16.047 -30.143  13.758  1.00  0.00    -0.234 N
HETATM   23  N7  UNL     1      17.349 -30.194  13.897  1.00  0.00    -0.289 N
ATOM     24  H6  UNL     1      15.448 -29.468  14.233  1.00  0.00     0.209 HD
ATOM     25  H7  UNL     1      17.916 -29.580  14.482  1.00  0.00     0.188 HD
BRANCH  21  26
HETATM   26  C9  UNL     1      14.255 -31.293  12.561  1.00  0.00     0.195 A
HETATM   27  N3  UNL     1      13.209 -31.386  13.397  1.00  0.00    -0.220 N
HETATM   28  O1  UNL     1      12.128 -31.597  12.682  1.00  0.00    -0.153 OA
ATOM     29  H3  UNL     1      13.248 -31.307  14.414  1.00  0.00     0.198 HD
HETATM   30  N4  UNL     1      12.397 -31.648  11.418  1.00  0.00    -0.222 N
HETATM   31  C10 UNL     1      13.724 -31.461  11.302  1.00  0.00     0.169 A
ATOM     32  H4  UNL     1      11.734 -31.800  10.658  1.00  0.00     0.198 HD
BRANCH  31  33
HETATM   33  N5  UNL     1      14.375 -31.445  10.189  1.00  0.00    -0.381 N
ATOM     34  H52 UNL     1      15.372 -31.642  10.090  1.00  0.00     0.157 HD
ATOM     35  H51 UNL     1      13.992 -31.238   9.267  1.00  0.00     0.157 HD
ENDBRANCH  31  33
ENDBRANCH  21  26
ENDBRANCH  18  19
ENDBRANCH  17  18
ENDBRANCH  16  17
ENDBRANCH   7  16
BRANCH  15  36
HETATM   36  S3  UNL     1      23.298 -31.141   5.587  1.00  0.00     0.258 S
HETATM   37  O2  UNL     1      24.572 -30.839   4.768  1.00  0.00    -0.201 OA
HETATM   38  O3  UNL     1      23.671 -32.372   6.333  1.00  0.00    -0.201 OA
BRANCH  36  39
HETATM   39  N10 UNL     1      22.076 -31.329   4.415  1.00  0.00    -0.324 N
ATOM     40 2H10 UNL     1      21.615 -32.219   4.226  1.00  0.00     0.169 HD
ATOM     41 1H10 UNL     1      21.869 -30.452   3.938  1.00  0.00     0.169 HD
ENDBRANCH  36  39
ENDBRANCH  15  36
TORSDOF 8
ENDMDL