MODEL 2
REMARK VINA RESULT: -8.687977582      2.819      7.912
REMARK  6 active torsions:
REMARK  status: ('A' for Active; 'I' for Inactive)
REMARK    1  A    between atoms: N1_2  and  C2_4
REMARK    2  A    between atoms: N3_7  and  C3_8
REMARK    3  A    between atoms: C5_10  and  N4_11
REMARK    4  A    between atoms: N6_18  and  C10_19
REMARK    5  A    between atoms: C14_23  and  O1_24
REMARK    6  A    between atoms: O1_24  and  C15_25
ROOT
HETATM    1  C15 UNL     1      23.730 -24.744  12.046  1.00  0.00     0.300 C
HETATM    2  C16 UNL     1      23.704 -23.436  12.671  1.00  0.00     0.085 C
HETATM    3  N7  UNL     1      23.705 -22.387  13.173  1.00  0.00    -0.195 NA
ENDROOT
BRANCH   1   4
HETATM    4  O1  UNL     1      22.413 -25.312  12.020  1.00  0.00    -0.321 OA
BRANCH   4   5
HETATM    5  C14 UNL     1      22.197 -26.315  11.067  1.00  0.00     0.155 A
HETATM    6  C13 UNL     1      21.402 -27.426  11.243  1.00  0.00     0.032 A
HETATM    7  C12 UNL     1      20.697 -27.726  12.414  1.00  0.00     0.021 C
HETATM    8  C18 UNL     1      21.437 -28.186  10.078  1.00  0.00     0.063 A
HETATM    9  C11 UNL     1      20.273 -29.010  12.751  1.00  0.00     0.051 C
HETATM   10  C10 UNL     1      20.242 -30.172  12.014  1.00  0.00     0.130 C
HETATM   11  N11 UNL     1      20.593 -30.337  10.729  1.00  0.00    -0.327 N
HETATM   12  C19 UNL     1      20.800 -29.372   9.774  1.00  0.00     0.115 C
ATOM     13  H11 UNL     1      20.722 -31.301  10.423  1.00  0.00     0.169 HD
HETATM   14  N10 UNL     1      20.371 -29.591   8.605  1.00  0.00    -0.385 N
ATOM     15 2H10 UNL     1      20.525 -28.875   7.896  1.00  0.00     0.157 HD
ATOM     16 1H10 UNL     1      19.901 -30.468   8.380  1.00  0.00     0.157 HD
HETATM   17  C17 UNL     1      22.247 -27.541   9.206  1.00  0.00     0.133 A
HETATM   18  N8  UNL     1      22.697 -26.414   9.818  1.00  0.00    -0.324 N
HETATM   19  N9  UNL     1      22.597 -27.948   7.892  1.00  0.00    -0.082 NA
ATOM     20  H8  UNL     1      23.326 -25.735   9.391  1.00  0.00     0.169 HD
BRANCH  10  21
HETATM   21  N6  UNL     1      19.793 -31.363  12.642  1.00  0.00    -0.220 N
HETATM   22  C3  UNL     1      18.545 -31.754  12.942  1.00  0.00     0.150 A
HETATM   23  C4  UNL     1      18.580 -32.987  13.550  1.00  0.00     0.101 A
HETATM   24  C5  UNL     1      19.910 -33.336  13.611  1.00  0.00     0.122 A
HETATM   25  N5  UNL     1      20.589 -32.334  13.057  1.00  0.00    -0.276 N
ATOM     26  H5  UNL     1      21.604 -32.318  12.963  1.00  0.00     0.189 HD
BRANCH  22  27
HETATM   27  N3  UNL     1      17.372 -30.999  12.669  1.00  0.00    -0.259 N
HETATM   28  N2  UNL     1      16.731 -30.194  13.639  1.00  0.00    -0.129 N
HETATM   29  C2  UNL     1      15.421 -30.247  13.680  1.00  0.00     0.688 C
ATOM     30  H2  UNL     1      17.261 -29.599  14.275  1.00  0.00     0.206 HD
HETATM   31  N12 UNL     1      14.777 -31.109  12.749  1.00  0.00    -0.223 N
HETATM   32  C21 UNL     1      15.367 -31.540  11.500  1.00  0.00     0.160 C
ATOM     33  H12 UNL     1      13.840 -31.444  12.976  1.00  0.00     0.177 HD
HETATM   34  C20 UNL     1      16.764 -31.015  11.372  1.00  0.00     0.171 C
BRANCH  29  35
HETATM   35  N1  UNL     1      14.700 -29.467  14.627  1.00  0.00    -0.229 N
HETATM   36  C1  UNL     1      13.254 -29.460  14.629  1.00  0.00     0.165 C
ATOM     37  H1  UNL     1      15.209 -28.907  15.311  1.00  0.00     0.177 HD
ENDBRANCH  29  35
ENDBRANCH  22  27
BRANCH  24  38
HETATM   38  N4  UNL     1      20.445 -34.549  14.165  1.00  0.00    -0.366 N
HETATM   39  C6  UNL     1      19.670 -35.685  14.593  1.00  0.00     0.124 C
HETATM   40  C7  UNL     1      20.600 -36.867  14.596  1.00  0.00     0.021 C
HETATM   41  C8  UNL     1      21.915 -36.327  14.081  1.00  0.00     0.021 C
HETATM   42  C9  UNL     1      21.831 -34.857  14.394  1.00  0.00     0.124 C
ENDBRANCH  24  38
ENDBRANCH  10  21
ENDBRANCH   4   5
ENDBRANCH   1   4
TORSDOF 6
ENDMDL