MODEL 1
REMARK VINA RESULT: -6.981868020      0.000      0.000
REMARK  11 active torsions:
REMARK  status: ('A' for Active; 'I' for Inactive)
REMARK    1  A    between atoms: C2_2  and  O2_7
REMARK    2  A    between atoms: N1_3  and  O1_5
REMARK    3  A    between atoms: O2_7  and  C3_8
REMARK    4  A    between atoms: C5_10  and  O3_11
REMARK    5  A    between atoms: C8_16  and  S1_17
REMARK    6  A    between atoms: S1_17  and  C9_18
REMARK    7  A    between atoms: C11_20  and  O5_21
REMARK    8  A    between atoms: O5_21  and  C12_22
REMARK    9  A    between atoms: C17_28  and  O7_29
REMARK   10  A    between atoms: C18_31  and  C19_32
REMARK   11  A    between atoms: C19_32  and  O8_33
ROOT
HETATM    1  C9  UNL     1      21.926 -33.176  12.959  1.00  0.00     0.188 C
HETATM    2  C10 UNL     1      23.225 -33.849  12.585  1.00  0.00     0.077 C
HETATM    3  C11 UNL     1      23.259 -35.137  13.432  1.00  0.00     0.159 C
HETATM    4  C17 UNL     1      22.044 -35.917  13.049  1.00  0.00     0.178 C
HETATM    5  C18 UNL     1      20.769 -35.142  12.999  1.00  0.00     0.177 C
HETATM    6  O9  UNL     1      20.849 -33.891  12.435  1.00  0.00    -0.365 OA
ENDROOT
BRANCH   1   7
HETATM    7  S1  UNL     1      21.855 -31.428  12.697  1.00  0.00    -0.103 SA
BRANCH   7   8
HETATM    8  C8  UNL     1      20.449 -30.566  13.346  1.00  0.00     0.215 C
HETATM    9  C3  UNL     1      19.166 -30.936  12.639  1.00  0.00     0.171 C
HETATM   10  C4  UNL     1      19.260 -30.678  11.158  1.00  0.00     0.070 C
HETATM   11  C5  UNL     1      20.040 -29.482  10.779  1.00  0.00     0.149 C
HETATM   12  C6  UNL     1      20.984 -28.964  11.810  1.00  0.00     0.147 C
HETATM   13  C7  UNL     1      21.145 -27.445  11.645  1.00  0.00     0.042 C
HETATM   14  O4  UNL     1      20.622 -29.189  13.104  1.00  0.00    -0.365 OA
BRANCH   9  15
HETATM   15  O2  UNL     1      18.162 -30.018  13.115  1.00  0.00    -0.329 OA
BRANCH  15  16
HETATM   16  C2  UNL     1      16.843 -30.379  13.291  1.00  0.00     0.133 C
HETATM   17  C1  UNL     1      16.197 -31.385  12.419  1.00  0.00     0.099 C
HETATM   18  N1  UNL     1      16.207 -29.802  14.243  1.00  0.00    -0.251 N
ATOM     19  H1  UNL     1      16.669 -29.110  14.835  1.00  0.00     0.196 HD
BRANCH  18  20
HETATM   20  O1  UNL     1      14.892 -30.137  14.449  1.00  0.00    -0.288 OA
ATOM     21  H1  UNL     1      14.270 -29.442  14.625  1.00  0.00     0.244 HD
ENDBRANCH  18  20
ENDBRANCH  15  16
ENDBRANCH   9  15
BRANCH  11  22
HETATM   22  O3  UNL     1      20.766 -29.743   9.609  1.00  0.00    -0.393 OA
ATOM     23  H3  UNL     1      20.947 -28.929   9.156  1.00  0.00     0.210 HD
ENDBRANCH  11  22
ENDBRANCH   7   8
ENDBRANCH   1   7
BRANCH   3  24
HETATM   24  O5  UNL     1      23.176 -34.756  14.742  1.00  0.00    -0.353 OA
BRANCH  24  25
HETATM   25  C12 UNL     1      24.121 -35.289  15.571  1.00  0.00     0.260 C
HETATM   26  C13 UNL     1      25.406 -35.510  14.806  1.00  0.00     0.061 C
HETATM   27  C14 UNL     1      26.433 -36.058  15.766  1.00  0.00     0.007 C
HETATM   28  C15 UNL     1      25.754 -36.462  17.050  1.00  0.00     0.026 C
HETATM   29  C16 UNL     1      25.010 -35.308  17.695  1.00  0.00     0.171 C
HETATM   30  O6  UNL     1      24.322 -34.559  16.738  1.00  0.00    -0.361 OA
ENDBRANCH  24  25
ENDBRANCH   3  24
BRANCH   5  31
HETATM   31  C19 UNL     1      20.051 -35.135  14.350  1.00  0.00     0.198 C
BRANCH  31  32
HETATM   32  O8  UNL     1      20.488 -36.229  15.075  1.00  0.00    -0.398 OA
ATOM     33  H8  UNL     1      19.981 -36.273  15.878  1.00  0.00     0.209 HD
ENDBRANCH  31  32
ENDBRANCH   5  31
BRANCH   4  34
HETATM   34  O7  UNL     1      22.222 -36.558  11.825  1.00  0.00    -0.390 OA
ATOM     35  H7  UNL     1      21.435 -37.019  11.562  1.00  0.00     0.210 HD
ENDBRANCH   4  34
TORSDOF 11
ENDMDL