MODEL 2
REMARK VINA RESULT: -6.695362152      1.038      1.309
REMARK  8 active torsions:
REMARK  status: ('A' for Active; 'I' for Inactive)
REMARK    1  A    between atoms: C2_2  and  C4_4
REMARK    2  A    between atoms: C4_4  and  N1_5
REMARK    3  A    between atoms: C6_8  and  N3_9
REMARK       I    between atoms: N3_9  and  C7_11
REMARK    4  A    between atoms: C7_11  and  C8_13
REMARK    5  A    between atoms: C8_13  and  S1_14
REMARK    6  A    between atoms: S1_14  and  C9_15
REMARK    7  A    between atoms: C11_19  and  N5_20
REMARK    8  A    between atoms: C12_25  and  N7_26
ROOT
HETATM    1  S1  UNL     1      22.099 -32.797   6.540  1.00  0.00    -0.084 SA
ENDROOT
BRANCH   1   2
HETATM    2  C8  UNL     1      22.846 -33.837   7.816  1.00  0.00     0.185 C
BRANCH   2   3
HETATM    3  C7  UNL     1      22.225 -33.665   9.128  1.00  0.00     0.232 C
HETATM    4  N3  UNL     1      22.437 -32.547   9.978  1.00  0.00    -0.319 N
ATOM      5  H3  UNL     1      23.063 -31.803   9.668  1.00  0.00     0.169 HD
HETATM    6  O1  UNL     1      21.449 -34.571   9.532  1.00  0.00    -0.272 OA
BRANCH   4   7
HETATM    7  C6  UNL     1      21.805 -32.433  11.245  1.00  0.00     0.145 A
HETATM    8  C5  UNL     1      20.765 -31.551  11.486  1.00  0.00     0.155 A
HETATM    9  N1  UNL     1      20.155 -31.435  12.694  1.00  0.00    -0.285 N
HETATM   10  N2  UNL     1      20.341 -30.781  10.382  1.00  0.00    -0.080 NA
HETATM   11  C18 UNL     1      20.605 -32.234  13.697  1.00  0.00     0.332 A
HETATM   12  N10 UNL     1      21.614 -33.095  13.482  1.00  0.00    -0.269 N
HETATM   13  O3  UNL     1      20.096 -32.199  14.857  1.00  0.00    -0.246 OA
HETATM   14  C16 UNL     1      22.228 -33.220  12.291  1.00  0.00     0.281 A
HETATM   15  C17 UNL     1      22.047 -33.927  14.622  1.00  0.00     0.164 C
HETATM   16  O2  UNL     1      23.171 -34.042  12.139  1.00  0.00    -0.265 OA
BRANCH   9  17
HETATM   17  C4  UNL     1      19.086 -30.513  12.916  1.00  0.00     0.139 C
BRANCH  17  18
HETATM   18  C2  UNL     1      17.714 -31.059  12.977  1.00  0.00    -0.004 C
HETATM   19  C1  UNL     1      17.018 -31.296  11.680  1.00  0.00     0.011 C
HETATM   20  C3  UNL     1      16.785 -30.310  13.935  1.00  0.00     0.011 C
ENDBRANCH  17  18
ENDBRANCH   9  17
ENDBRANCH   4   7
ENDBRANCH   2   3
ENDBRANCH   1   2
BRANCH   1  21
HETATM   21  C9  UNL     1      22.965 -31.265   6.339  1.00  0.00     0.148 A
HETATM   22  N4  UNL     1      22.606 -30.123   6.939  1.00  0.00    -0.331 N
HETATM   23  C10 UNL     1      23.489 -29.202   6.548  1.00  0.00     0.124 A
ATOM     24  H4  UNL     1      21.817 -29.984   7.570  1.00  0.00     0.168 HD
HETATM   25  C11 UNL     1      23.624 -27.865   6.836  1.00  0.00     0.145 A
HETATM   26  C14 UNL     1      24.428 -29.772   5.680  1.00  0.00     0.157 A
HETATM   27  N6  UNL     1      24.628 -27.185   6.283  1.00  0.00    -0.175 N
HETATM   28  C12 UNL     1      25.520 -27.729   5.458  1.00  0.00     0.681 A
ATOM     29  H6  UNL     1      24.717 -26.194   6.503  1.00  0.00     0.186 HD
HETATM   30  N8  UNL     1      25.418 -29.034   5.154  1.00  0.00    -0.170 N
HETATM   31  C13 UNL     1      26.384 -29.632   4.258  1.00  0.00     0.177 C
HETATM   32  N9  UNL     1      24.067 -31.069   5.573  1.00  0.00    -0.316 N
HETATM   33  C15 UNL     1      24.734 -32.069   4.783  1.00  0.00     0.160 C
BRANCH  25  34
HETATM   34  N5  UNL     1      22.782 -27.298   7.629  1.00  0.00    -0.383 N
ATOM     35  H52 UNL     1      22.700 -26.283   7.683  1.00  0.00     0.157 HD
ATOM     36  H51 UNL     1      22.180 -27.874   8.218  1.00  0.00     0.157 HD
ENDBRANCH  25  34
BRANCH  28  37
HETATM   37  N7  UNL     1      26.494 -27.003   4.941  1.00  0.00    -0.234 N
ATOM     38  H72 UNL     1      27.426 -27.031   5.354  1.00  0.00     0.174 HD
ATOM     39  H71 UNL     1      26.329 -26.410   4.128  1.00  0.00     0.174 HD
ENDBRANCH  28  37
ENDBRANCH   1  21
TORSDOF 8
ENDMDL