MODEL 3
REMARK VINA RESULT: -8.760850392      2.240     10.267
REMARK  6 active torsions:
REMARK  status: ('A' for Active; 'I' for Inactive)
REMARK    1  A    between atoms: C4_4  and  O1_5
REMARK    2  A    between atoms: O1_5  and  C5_6
REMARK    3  A    between atoms: C5_6  and  C6_7
REMARK    4  A    between atoms: N1_8  and  C7_10
REMARK    5  A    between atoms: C8_13  and  N3_14
REMARK    6  A    between atoms: N3_14  and  C10_16
ROOT
HETATM    1  C7  UNL     1      20.716 -29.926   8.798  1.00  0.00     0.145 A
HETATM    2  N2  UNL     1      20.024 -30.674   9.742  1.00  0.00    -0.174 N
ATOM      3  H2  UNL     1      19.514 -31.497   9.421  1.00  0.00     0.186 HD
HETATM    4  C8  UNL     1      19.989 -30.384  11.029  1.00  0.00     0.701 A
HETATM    5  N9  UNL     1      20.657 -29.299  11.475  1.00  0.00    -0.176 N
ATOM      6  H9  UNL     1      20.641 -29.060  12.467  1.00  0.00     0.185 HD
HETATM    7  C16 UNL     1      21.343 -28.537  10.612  1.00  0.00     0.156 A
HETATM    8  N10 UNL     1      22.067 -27.376  11.054  1.00  0.00    -0.080 NA
HETATM    9  C17 UNL     1      21.393 -28.822   9.262  1.00  0.00     0.130 A
HETATM   10  C18 UNL     1      22.145 -27.944   8.371  1.00  0.00     0.107 C
HETATM   11  N11 UNL     1      22.734 -27.231   7.687  1.00  0.00    -0.191 NA
ENDROOT
BRANCH   1  12
HETATM   12  N1  UNL     1      20.706 -30.265   7.626  1.00  0.00    -0.352 N
HETATM   13  C6  UNL     1      20.722 -31.195   6.638  1.00  0.00     0.089 C
ATOM     14  H1  UNL     1      20.664 -29.381   7.120  1.00  0.00     0.166 HD
BRANCH  13  15
HETATM   15  C5  UNL     1      22.091 -31.713   6.232  1.00  0.00     0.222 C
BRANCH  15  16
HETATM   16  O1  UNL     1      23.063 -30.807   6.636  1.00  0.00    -0.331 OA
BRANCH  16  17
HETATM   17  C4  UNL     1      24.168 -30.432   5.915  1.00  0.00     0.145 A
HETATM   18  C3  UNL     1      24.983 -31.436   5.342  1.00  0.00     0.080 A
HETATM   19  C2  UNL     1      26.092 -31.083   4.616  1.00  0.00     0.010 A
HETATM   20  C1  UNL     1      26.959 -32.121   4.016  1.00  0.00     0.068 C
HETATM   21  N13 UNL     1      26.409 -29.796   4.447  1.00  0.00    -0.350 N
HETATM   22  C19 UNL     1      25.642 -28.807   4.987  1.00  0.00     0.079 A
ATOM     23  H13 UNL     1      27.237 -29.551   3.906  1.00  0.00     0.167 HD
HETATM   24  N12 UNL     1      24.578 -29.181   5.682  1.00  0.00    -0.327 N
HETATM   25  C20 UNL     1      26.064 -27.420   4.754  1.00  0.00     0.089 C
ATOM     26  H12 UNL     1      24.011 -28.434   6.082  1.00  0.00     0.169 HD
ENDBRANCH  16  17
ENDBRANCH  15  16
ENDBRANCH  13  15
ENDBRANCH   1  12
BRANCH   4  27
HETATM   27  N3  UNL     1      19.277 -31.134  11.982  1.00  0.00    -0.018 N
HETATM   28  C9  UNL     1      19.937 -32.263  12.634  1.00  0.00     0.195 C
BRANCH  27  29
HETATM   29  C10 UNL     1      17.940 -30.847  12.372  1.00  0.00     0.702 A
HETATM   30  N4  UNL     1      17.704 -30.164  13.524  1.00  0.00    -0.174 N
HETATM   31  C11 UNL     1      16.478 -29.852  13.950  1.00  0.00     0.145 A
ATOM     32  H4  UNL     1      18.502 -29.875  14.089  1.00  0.00     0.186 HD
HETATM   33  N5  UNL     1      16.260 -29.204  15.044  1.00  0.00    -0.383 N
HETATM   34  C12 UNL     1      15.378 -30.230  13.203  1.00  0.00     0.123 A
ATOM     35  H52 UNL     1      17.071 -28.925  15.595  1.00  0.00     0.157 HD
ATOM     36  H51 UNL     1      15.323 -28.966  15.370  1.00  0.00     0.157 HD
HETATM   37  N6  UNL     1      14.049 -30.081  13.339  1.00  0.00    -0.346 N
HETATM   38  C15 UNL     1      15.585 -30.923  12.034  1.00  0.00     0.154 A
HETATM   39  C13 UNL     1      13.434 -30.658  12.293  1.00  0.00     0.184 A
ATOM     40  H6  UNL     1      13.583 -29.606  14.112  1.00  0.00     0.167 HD
HETATM   41  N7  UNL     1      14.381 -31.172  11.495  1.00  0.00    -0.331 N
HETATM   42  C14 UNL     1      14.146 -31.873  10.261  1.00  0.00     0.158 C
HETATM   43  N8  UNL     1      16.860 -31.207  11.658  1.00  0.00    -0.173 N
ATOM     44  H8  UNL     1      17.004 -31.721  10.790  1.00  0.00     0.186 HD
ENDBRANCH  27  29
ENDBRANCH   4  27
TORSDOF 6
ENDMDL