MODEL 3
REMARK VINA RESULT: -8.872984997      1.003      1.872
REMARK  8 active torsions:
REMARK  status: ('A' for Active; 'I' for Inactive)
REMARK    1  A    between atoms: C2_2  and  C3_3
REMARK    2  A    between atoms: C3_3  and  N1_4
REMARK    3  A    between atoms: N1_4  and  C4_5
REMARK    4  A    between atoms: N5_16  and  C9_17
REMARK    5  A    between atoms: C11_19  and  N6_20
REMARK    6  A    between atoms: N6_20  and  C12_23
REMARK    7  A    between atoms: C18_31  and  C19_32
REMARK    8  A    between atoms: N8_33  and  N9_35
REMARK       I    between atoms: N9_35  and  C20_37
ROOT
HETATM    1  C9  UNL     1      19.648 -30.623  10.707  1.00  0.00     0.242 C
HETATM    2  C10 UNL     1      18.936 -29.742  11.735  1.00  0.00     0.109 C
HETATM    3  C11 UNL     1      18.213 -30.639  12.701  1.00  0.00     0.290 C
HETATM    4  N7  UNL     1      18.997 -31.740  13.171  1.00  0.00    -0.342 N
ATOM      5  H7  UNL     1      18.727 -32.183  14.050  1.00  0.00     0.163 HD
HETATM    6  C18 UNL     1      20.043 -32.212  12.537  1.00  0.00     0.159 C
HETATM    7  O1  UNL     1      20.386 -31.603  11.363  1.00  0.00    -0.308 OA
ENDROOT
BRANCH   1   8
HETATM    8  N5  UNL     1      20.477 -29.804   9.851  1.00  0.00    -0.299 N
HETATM    9  C6  UNL     1      21.124 -30.203   8.727  1.00  0.00     0.143 A
HETATM   10  N3  UNL     1      21.164 -31.393   8.092  1.00  0.00    -0.336 N
HETATM   11  C7  UNL     1      21.845 -29.136   8.217  1.00  0.00     0.137 A
HETATM   12  C5  UNL     1      21.913 -31.512   6.964  1.00  0.00     0.184 A
ATOM     13  H3  UNL     1      20.640 -32.190   8.453  1.00  0.00     0.168 HD
HETATM   14  N2  UNL     1      22.610 -30.476   6.475  1.00  0.00    -0.325 N
HETATM   15  C4  UNL     1      22.625 -29.235   7.057  1.00  0.00     0.209 A
ATOM     16  H2  UNL     1      23.158 -30.619   5.627  1.00  0.00     0.169 HD
HETATM   17  N4  UNL     1      21.641 -28.104   9.010  1.00  0.00    -0.345 N
HETATM   18  C8  UNL     1      20.823 -28.491   9.992  1.00  0.00     0.188 A
ATOM     19  H4  UNL     1      22.039 -27.171   8.894  1.00  0.00     0.167 HD
BRANCH  15  20
HETATM   20  N1  UNL     1      23.271 -28.357   6.582  1.00  0.00    -0.401 NA
BRANCH  20  21
HETATM   21  C3  UNL     1      24.229 -27.681   5.918  1.00  0.00     0.157 C
BRANCH  21  22
HETATM   22  C2  UNL     1      25.376 -28.475   5.315  1.00  0.00     0.055 C
HETATM   23  C1  UNL     1      26.271 -27.465   4.618  1.00  0.00     0.011 C
ENDBRANCH  21  22
ENDBRANCH  20  21
ENDBRANCH  15  20
ENDBRANCH   1   8
BRANCH   3  24
HETATM   24  N6  UNL     1      17.019 -31.156  12.008  1.00  0.00    -0.050 N
ATOM     25  H62 UNL     1      16.866 -30.673  11.123  1.00  0.00     0.280 HD
ATOM     26  H61 UNL     1      17.176 -32.099  11.651  1.00  0.00     0.280 HD
BRANCH  24  27
HETATM   27  C12 UNL     1      15.846 -31.100  12.846  1.00  0.00     0.188 C
HETATM   28  C13 UNL     1      15.697 -29.868  13.663  1.00  0.00     0.033 C
HETATM   29  C14 UNL     1      14.403 -29.135  13.396  1.00  0.00     0.002 C
HETATM   30  C15 UNL     1      13.189 -30.034  13.475  1.00  0.00     0.000 C
HETATM   31  C16 UNL     1      13.363 -31.359  12.808  1.00  0.00     0.002 C
HETATM   32  C17 UNL     1      14.641 -31.438  11.996  1.00  0.00     0.033 C
ENDBRANCH  24  27
ENDBRANCH   3  24
BRANCH   6  33
HETATM   33  C19 UNL     1      20.773 -33.319  13.077  1.00  0.00     0.163 C
HETATM   34  N8  UNL     1      21.593 -33.242  14.040  1.00  0.00    -0.305 N
ATOM     35  H8  UNL     1      21.743 -32.325  14.461  1.00  0.00     0.186 HD
BRANCH  34  36
HETATM   36  N9  UNL     1      22.301 -34.312  14.563  1.00  0.00    -0.274 N
HETATM   37  C20 UNL     1      23.697 -34.380  14.430  1.00  0.00     0.200 C
HETATM   38  N10 UNL     1      24.228 -35.348  13.772  1.00  0.00    -0.372 N
HETATM   39  N11 UNL     1      24.557 -33.410  14.992  1.00  0.00    -0.062 NA
ATOM     40 2H10 UNL     1      23.607 -36.048  13.365  1.00  0.00     0.158 HD
ATOM     41 1H10 UNL     1      25.243 -35.398  13.675  1.00  0.00     0.158 HD
ATOM     42  H9  UNL     1      21.803 -35.058  15.050  1.00  0.00     0.189 HD
ENDBRANCH  34  36
ENDBRANCH   6  33
TORSDOF 8
ENDMDL