MODEL 2
REMARK VINA RESULT: -6.970456976      2.939      5.975
REMARK  9 active torsions:
REMARK  status: ('A' for Active; 'I' for Inactive)
REMARK    1  A    between atoms: N1_4  and  C4_5
REMARK    2  A    between atoms: C6_7  and  N2_8
REMARK    3  A    between atoms: C7_9  and  C8_10
REMARK    4  A    between atoms: C8_10  and  S1_11
REMARK    5  A    between atoms: S1_11  and  C9_12
REMARK    6  A    between atoms: C9_12  and  C10_13
REMARK    7  A    between atoms: C10_13  and  C11_14
REMARK    8  A    between atoms: C16_26  and  N6_27
REMARK    9  A    between atoms: C19_36  and  N8_37
ROOT
HETATM    1  N2  UNL     1      20.663 -33.253  12.849  1.00  0.00    -0.302 N
HETATM    2  C7  UNL     1      19.964 -32.361  13.546  1.00  0.00     0.097 A
HETATM    3  N3  UNL     1      19.120 -33.020  14.423  1.00  0.00    -0.329 N
ATOM      4  H3  UNL     1      18.469 -32.596  15.085  1.00  0.00     0.168 HD
HETATM    5  C14 UNL     1      19.333 -34.327  14.226  1.00  0.00     0.139 A
HETATM    6  N4  UNL     1      18.775 -35.427  14.799  1.00  0.00    -0.337 N
ATOM      7  H4  UNL     1      18.069 -35.312  15.526  1.00  0.00     0.168 HD
HETATM    8  C15 UNL     1      19.138 -36.651  14.424  1.00  0.00     0.183 A
HETATM    9  N5  UNL     1      20.057 -36.843  13.480  1.00  0.00    -0.337 N
ATOM     10  H5  UNL     1      20.316 -37.792  13.214  1.00  0.00     0.168 HD
HETATM   11  C16 UNL     1      20.658 -35.779  12.865  1.00  0.00     0.131 A
HETATM   12  C17 UNL     1      20.290 -34.507  13.247  1.00  0.00     0.126 A
ENDROOT
BRANCH   1  13
HETATM   13  C6  UNL     1      21.705 -33.101  11.840  1.00  0.00     0.236 C
HETATM   14  C5  UNL     1      21.930 -31.700  11.329  1.00  0.00     0.108 C
HETATM   15  C4  UNL     1      21.139 -32.186  10.202  1.00  0.00     0.238 C
HETATM   16  O2  UNL     1      21.297 -33.487  10.601  1.00  0.00    -0.341 OA
BRANCH  15  17
HETATM   17  N1  UNL     1      21.604 -31.877   8.867  1.00  0.00    -0.282 N
HETATM   18  C3  UNL     1      22.351 -32.734   8.151  1.00  0.00     0.108 A
HETATM   19  C2  UNL     1      22.766 -32.390   6.891  1.00  0.00    -0.003 A
HETATM   20  C1  UNL     1      23.594 -33.332   6.089  1.00  0.00     0.054 C
HETATM   21  C19 UNL     1      22.433 -31.166   6.322  1.00  0.00     0.110 A
HETATM   22  N7  UNL     1      21.682 -30.338   7.078  1.00  0.00    -0.294 N
HETATM   23  C18 UNL     1      21.276 -30.690   8.326  1.00  0.00     0.330 A
ATOM     24  H7  UNL     1      21.412 -29.428   6.705  1.00  0.00     0.172 HD
HETATM   25  O3  UNL     1      20.577 -29.828   8.936  1.00  0.00    -0.246 OA
BRANCH  21  26
HETATM   26  N8  UNL     1      22.828 -30.852   5.136  1.00  0.00    -0.385 N
ATOM     27  H82 UNL     1      22.792 -29.895   4.784  1.00  0.00     0.157 HD
ATOM     28  H81 UNL     1      23.196 -31.556   4.497  1.00  0.00     0.157 HD
ENDBRANCH  21  26
ENDBRANCH  15  17
ENDBRANCH   1  13
BRANCH   2  29
HETATM   29  C8  UNL     1      19.926 -30.889  13.455  1.00  0.00     0.150 C
BRANCH  29  30
HETATM   30  S1  UNL     1      18.592 -30.425  12.286  1.00  0.00    -0.162 SA
BRANCH  30  31
HETATM   31  C9  UNL     1      16.992 -30.474  13.082  1.00  0.00     0.077 C
BRANCH  31  32
HETATM   32  C10 UNL     1      16.158 -31.539  12.383  1.00  0.00     0.042 C
BRANCH  32  33
HETATM   33  C11 UNL     1      14.821 -30.921  12.052  1.00  0.00     0.124 A
HETATM   34  C12 UNL     1      13.694 -31.849  12.375  1.00  0.00     0.058 A
HETATM   35  C13 UNL     1      13.397 -30.781  13.390  1.00  0.00     0.170 A
HETATM   36  O1  UNL     1      14.440 -29.970  12.969  1.00  0.00    -0.386 OA
ENDBRANCH  32  33
ENDBRANCH  31  32
ENDBRANCH  30  31
ENDBRANCH  29  30
ENDBRANCH   2  29
BRANCH  11  37
HETATM   37  N6  UNL     1      21.518 -35.985  11.934  1.00  0.00    -0.383 N
ATOM     38  H62 UNL     1      21.361 -35.665  10.977  1.00  0.00     0.157 HD
ATOM     39  H61 UNL     1      22.372 -36.502  12.139  1.00  0.00     0.157 HD
ENDBRANCH  11  37
TORSDOF 9
ENDMDL