MODEL 4
REMARK VINA RESULT: -7.385198200      4.756      8.855
REMARK  8 active torsions:
REMARK  status: ('A' for Active; 'I' for Inactive)
REMARK    1  A    between atoms: C2_2  and  O1_3
REMARK    2  A    between atoms: O1_3  and  C3_4
REMARK    3  A    between atoms: C6_7  and  N1_8
REMARK    4  A    between atoms: N1_8  and  C7_10
REMARK    5  A    between atoms: C7_10  and  C9_12
REMARK    6  A    between atoms: C12_18  and  N3_19
REMARK    7  A    between atoms: C18_32  and  C19_33
REMARK    8  A    between atoms: C20_37  and  N8_38
ROOT
HETATM    1  N1  UNL     1      20.159 -28.353  11.479  1.00  0.00    -0.367 N
ATOM      2  H1  UNL     1      19.316 -27.783  11.550  1.00  0.00     0.161 HD
ENDROOT
BRANCH   1   3
HETATM    3  C6  UNL     1      20.948 -28.285  10.320  1.00  0.00     0.102 A
HETATM    4  C5  UNL     1      21.856 -27.294  10.086  1.00  0.00     0.051 A
HETATM    5  C4  UNL     1      22.624 -27.261   8.940  1.00  0.00     0.043 A
HETATM    6  C3  UNL     1      22.458 -28.275   8.001  1.00  0.00     0.099 A
HETATM    7  C18 UNL     1      21.542 -29.272   8.239  1.00  0.00     0.112 A
HETATM    8  N6  UNL     1      20.827 -29.248   9.370  1.00  0.00    -0.337 N
ATOM      9  H6  UNL     1      20.153 -29.997   9.529  1.00  0.00     0.167 HD
BRANCH   6  10
HETATM   10  O1  UNL     1      23.197 -28.291   6.839  1.00  0.00    -0.349 OA
BRANCH  10  11
HETATM   11  C2  UNL     1      24.124 -27.338   6.454  1.00  0.00     0.171 C
HETATM   12  C1  UNL     1      25.144 -27.834   5.452  1.00  0.00     0.034 C
ENDBRANCH  10  11
ENDBRANCH   6  10
BRANCH   7  13
HETATM   13  C19 UNL     1      21.360 -30.361   7.234  1.00  0.00     0.143 A
HETATM   14  N7  UNL     1      20.126 -30.773   6.926  1.00  0.00    -0.308 N
HETATM   15  S1  UNL     1      20.374 -31.974   5.789  1.00  0.00     0.024 SA
ATOM     16  H7  UNL     1      19.239 -30.433   7.299  1.00  0.00     0.176 HD
HETATM   17  C20 UNL     1      22.072 -31.912   5.740  1.00  0.00     0.160 A
HETATM   18  N9  UNL     1      22.362 -30.955   6.616  1.00  0.00    -0.320 N
ATOM     19  H9  UNL     1      23.329 -30.689   6.804  1.00  0.00     0.169 HD
BRANCH  17  20
HETATM   20  N8  UNL     1      22.920 -32.621   5.024  1.00  0.00    -0.379 N
ATOM     21  H82 UNL     1      23.709 -32.273   4.480  1.00  0.00     0.158 HD
ATOM     22  H81 UNL     1      22.963 -33.628   4.872  1.00  0.00     0.158 HD
ENDBRANCH  17  20
ENDBRANCH   7  13
ENDBRANCH   1   3
BRANCH   1  23
HETATM   23  C7  UNL     1      20.525 -29.213  12.562  1.00  0.00     0.130 C
HETATM   24  C8  UNL     1      21.874 -29.873  12.398  1.00  0.00     0.039 C
BRANCH  23  25
HETATM   25  C9  UNL     1      19.470 -30.251  12.815  1.00  0.00     0.054 A
HETATM   26  C10 UNL     1      19.832 -31.496  13.286  1.00  0.00     0.102 A
HETATM   27  C11 UNL     1      18.866 -32.464  13.523  1.00  0.00     0.261 A
HETATM   28  O2  UNL     1      19.250 -33.582  13.952  1.00  0.00    -0.268 OA
HETATM   29  N2  UNL     1      17.592 -32.148  13.281  1.00  0.00    -0.156 N
HETATM   30  C12 UNL     1      17.212 -30.934  12.819  1.00  0.00     0.683 A
ATOM     31  H2  UNL     1      16.874 -32.853  13.451  1.00  0.00     0.187 HD
HETATM   32  N5  UNL     1      18.168 -30.017  12.599  1.00  0.00    -0.193 N
ATOM     33  H5  UNL     1      17.891 -29.100  12.251  1.00  0.00     0.184 HD
BRANCH  30  34
HETATM   34  N3  UNL     1      15.830 -30.682  12.589  1.00  0.00    -0.216 N
HETATM   35  C13 UNL     1      15.134 -31.838  12.023  1.00  0.00     0.143 C
HETATM   36  C14 UNL     1      13.755 -31.406  11.648  1.00  0.00     0.048 C
HETATM   37  C15 UNL     1      12.883 -31.090  12.817  1.00  0.00     0.234 C
HETATM   38  N4  UNL     1      13.576 -30.713  14.004  1.00  0.00    -0.074 N
HETATM   39  C16 UNL     1      14.208 -29.421  13.928  1.00  0.00     0.252 C
ATOM     40  H42 UNL     1      12.954 -30.761  14.811  1.00  0.00     0.277 HD
ATOM     41  H41 UNL     1      14.254 -31.429  14.265  1.00  0.00     0.277 HD
HETATM   42  C17 UNL     1      15.341 -29.386  12.931  1.00  0.00     0.168 C
ENDBRANCH  30  34
ENDBRANCH  23  25
ENDBRANCH   1  23
TORSDOF 8
ENDMDL