MODEL 5
REMARK VINA RESULT: -7.230151870      3.834      7.546
REMARK  10 active torsions:
REMARK  status: ('A' for Active; 'I' for Inactive)
REMARK    1  A    between atoms: C2_2  and  C3_3
REMARK    2  A    between atoms: C3_3  and  C4_4
REMARK    3  A    between atoms: C4_4  and  O1_5
REMARK    4  A    between atoms: O1_5  and  C5_6
REMARK    5  A    between atoms: C6_9  and  N2_10
REMARK    6  A    between atoms: N2_10  and  C7_12
REMARK    7  A    between atoms: C8_14  and  C9_15
REMARK    8  A    between atoms: C14_25  and  N6_26
REMARK    9  A    between atoms: C17_35  and  C18_36
REMARK   10  A    between atoms: C18_36  and  O2_37
ROOT
HETATM    1  C7  UNL     1      21.005 -31.113   8.715  1.00  0.00     0.107 A
HETATM    2  S1  UNL     1      20.612 -31.090   7.041  1.00  0.00    -0.048 SA
HETATM    3  C8  UNL     1      21.052 -32.550   6.227  1.00  0.00     0.121 A
HETATM    4  N5  UNL     1      21.616 -33.445   7.006  1.00  0.00    -0.343 N
ATOM      5  H5  UNL     1      21.887 -34.318   6.553  1.00  0.00     0.167 HD
HETATM    6  C13 UNL     1      21.879 -33.361   8.315  1.00  0.00     0.107 A
HETATM    7  C14 UNL     1      22.486 -34.461   8.904  1.00  0.00     0.129 A
HETATM    8  N7  UNL     1      22.797 -34.478  10.224  1.00  0.00    -0.337 N
ATOM      9  H7  UNL     1      23.244 -35.301  10.627  1.00  0.00     0.168 HD
HETATM   10  C15 UNL     1      22.521 -33.423  11.005  1.00  0.00     0.182 A
HETATM   11  N8  UNL     1      21.935 -32.357  10.443  1.00  0.00    -0.348 N
ATOM     12  H8  UNL     1      21.726 -31.555  11.037  1.00  0.00     0.167 HD
HETATM   13  C16 UNL     1      21.602 -32.283   9.125  1.00  0.00     0.098 A
ENDROOT
BRANCH   1  14
HETATM   14  N2  UNL     1      20.751 -30.121   9.470  1.00  0.00    -0.334 N
ATOM     15  H2  UNL     1      21.178 -29.249   9.160  1.00  0.00     0.168 HD
BRANCH  14  16
HETATM   16  C6  UNL     1      20.009 -29.999  10.629  1.00  0.00     0.123 A
HETATM   17  N1  UNL     1      18.907 -30.761  10.904  1.00  0.00    -0.307 N
HETATM   18  C5  UNL     1      18.192 -30.648  12.032  1.00  0.00     0.227 A
ATOM     19  H1  UNL     1      18.614 -31.453  10.213  1.00  0.00     0.171 HD
HETATM   20  N9  UNL     1      18.597 -29.726  12.934  1.00  0.00    -0.288 N
HETATM   21  C19 UNL     1      19.672 -28.946  12.724  1.00  0.00     0.260 A
ATOM     22  H9  UNL     1      18.072 -29.619  13.801  1.00  0.00     0.172 HD
HETATM   23  C17 UNL     1      20.405 -29.064  11.563  1.00  0.00     0.077 A
HETATM   24  O3  UNL     1      20.052 -28.084  13.567  1.00  0.00    -0.267 OA
BRANCH  18  25
HETATM   25  O1  UNL     1      17.071 -31.445  12.278  1.00  0.00    -0.322 OA
BRANCH  25  26
HETATM   26  C4  UNL     1      15.876 -30.806  12.636  1.00  0.00     0.178 C
BRANCH  26  27
HETATM   27  C3  UNL     1      14.655 -31.494  12.090  1.00  0.00     0.026 C
BRANCH  27  28
HETATM   28  C2  UNL     1      13.397 -31.099  12.824  1.00  0.00    -0.002 C
HETATM   29  C1  UNL     1      13.689 -30.047  13.868  1.00  0.00     0.005 C
ENDBRANCH  27  28
ENDBRANCH  26  27
ENDBRANCH  25  26
ENDBRANCH  18  25
BRANCH  23  30
HETATM   30  C18 UNL     1      21.615 -28.194  11.326  1.00  0.00     0.212 C
BRANCH  30  31
HETATM   31  O2  UNL     1      21.304 -26.864  11.423  1.00  0.00    -0.396 OA
ATOM     32  H2  UNL     1      21.141 -26.609  12.323  1.00  0.00     0.209 HD
ENDBRANCH  30  31
ENDBRANCH  23  30
ENDBRANCH  14  16
ENDBRANCH   1  14
BRANCH   3  33
HETATM   33  C9  UNL     1      20.780 -32.679   4.797  1.00  0.00     0.141 A
HETATM   34  N3  UNL     1      21.603 -32.238   3.796  1.00  0.00    -0.349 N
HETATM   35  C10 UNL     1      21.041 -32.522   2.612  1.00  0.00     0.107 A
ATOM     36  H3  UNL     1      22.499 -31.770   3.930  1.00  0.00     0.167 HD
HETATM   37  C11 UNL     1      19.842 -33.153   2.863  1.00  0.00     0.109 A
HETATM   38  N4  UNL     1      19.732 -33.224   4.232  1.00  0.00    -0.344 N
HETATM   39  C12 UNL     1      18.568 -33.841   4.852  1.00  0.00     0.157 C
ENDBRANCH   3  33
BRANCH   7  40
HETATM   40  N6  UNL     1      22.797 -35.537   8.245  1.00  0.00    -0.384 N
ATOM     41  H62 UNL     1      22.158 -35.788   7.490  1.00  0.00     0.157 HD
ATOM     42  H61 UNL     1      23.621 -36.102   8.457  1.00  0.00     0.157 HD
ENDBRANCH   7  40
TORSDOF 10
ENDMDL