MODEL 5
REMARK VINA RESULT: -7.046795448      6.533     10.177
REMARK  9 active torsions:
REMARK  status: ('A' for Active; 'I' for Inactive)
REMARK    1  A    between atoms: N2_9  and  C6_10
REMARK    2  A    between atoms: C6_10  and  C7_11
REMARK    3  A    between atoms: C7_11  and  C8_12
REMARK    4  A    between atoms: C8_12  and  C9_13
REMARK    5  A    between atoms: C9_13  and  C10_14
REMARK    6  A    between atoms: C10_14  and  C11_15
REMARK    7  A    between atoms: C11_15  and  C12_16
REMARK       I    between atoms: N5_22  and  C14_24
REMARK       I    between atoms: C14_24  and  N7_29
REMARK    8  A    between atoms: N6_25  and  O2_27
REMARK    9  A    between atoms: N7_29  and  N8_31
ROOT
HETATM    1  C10 UNL     1      20.084 -34.466  13.749  1.00  0.00     0.006 C
ENDROOT
BRANCH   1   2
HETATM    2  C9  UNL     1      21.030 -34.708  12.615  1.00  0.00     0.000 C
BRANCH   2   3
HETATM    3  C8  UNL     1      21.764 -36.001  12.697  1.00  0.00     0.002 C
BRANCH   3   4
HETATM    4  C7  UNL     1      22.238 -36.392  14.058  1.00  0.00     0.020 C
BRANCH   4   5
HETATM    5  C6  UNL     1      23.755 -36.376  14.127  1.00  0.00     0.133 C
BRANCH   5   6
HETATM    6  N2  UNL     1      24.221 -35.735  15.332  1.00  0.00    -0.303 N
HETATM    7  C2  UNL     1      24.445 -34.424  15.402  1.00  0.00     0.083 A
HETATM    8  C1  UNL     1      24.203 -33.548  14.235  1.00  0.00     0.089 C
HETATM    9  N1  UNL     1      24.897 -33.836  16.551  1.00  0.00    -0.331 N
HETATM   10  C3  UNL     1      25.126 -34.567  17.641  1.00  0.00     0.122 A
ATOM     11  H1  UNL     1      25.060 -32.829  16.573  1.00  0.00     0.168 HD
HETATM   12  C4  UNL     1      24.911 -35.917  17.618  1.00  0.00     0.072 A
HETATM   13  N11 UNL     1      25.602 -33.938  18.850  1.00  0.00    -0.316 N
HETATM   14  C5  UNL     1      24.457 -36.476  16.445  1.00  0.00     0.260 A
HETATM   15  C16 UNL     1      25.147 -36.766  18.789  1.00  0.00     0.170 A
HETATM   16  O1  UNL     1      24.232 -37.722  16.344  1.00  0.00    -0.267 OA
HETATM   17  N9  UNL     1      25.617 -36.047  19.937  1.00  0.00    -0.360 N
HETATM   18  C17 UNL     1      25.824 -34.776  19.970  1.00  0.00     0.190 A
ATOM     19  H9  UNL     1      25.801 -36.580  20.787  1.00  0.00     0.162 HD
HETATM   20  N10 UNL     1      26.293 -34.228  21.196  1.00  0.00    -0.063 NA
ATOM     21  H11 UNL     1      25.771 -32.933  18.897  1.00  0.00     0.170 HD
ENDBRANCH   5   6
ENDBRANCH   4   5
ENDBRANCH   3   4
ENDBRANCH   2   3
ENDBRANCH   1   2
BRANCH   1  22
HETATM   22  C11 UNL     1      20.447 -33.233  14.549  1.00  0.00     0.066 C
BRANCH  22  23
HETATM   23  C12 UNL     1      20.531 -32.117  13.543  1.00  0.00     0.069 A
HETATM   24  N3  UNL     1      21.547 -31.314  13.270  1.00  0.00    -0.296 N
HETATM   25  N4  UNL     1      21.438 -30.418  12.380  1.00  0.00    -0.279 N
ATOM     26  H3  UNL     1      22.425 -31.416  13.780  1.00  0.00     0.187 HD
HETATM   27  C13 UNL     1      20.280 -30.300  11.722  1.00  0.00     0.180 A
ATOM     28  H4  UNL     1      22.220 -29.798  12.168  1.00  0.00     0.189 HD
HETATM   29  N5  UNL     1      19.916 -29.479  10.780  1.00  0.00    -0.166 N
HETATM   30  S1  UNL     1      19.347 -31.535  12.440  1.00  0.00    -0.037 SA
HETATM   31  C14 UNL     1      20.815 -28.515  10.302  1.00  0.00     0.719 C
ATOM     32  H5  UNL     1      18.975 -29.537  10.390  1.00  0.00     0.186 HD
HETATM   33  N6  UNL     1      21.196 -28.520   9.074  1.00  0.00    -0.097 N
HETATM   34  N7  UNL     1      21.295 -27.532  11.208  1.00  0.00    -0.133 N
ATOM     35  H6  UNL     1      21.852 -27.802   8.764  1.00  0.00     0.213 HD
HETATM   36  C15 UNL     1      22.552 -26.885  10.883  1.00  0.00     0.197 C
BRANCH  33  37
HETATM   37  O2  UNL     1      20.764 -29.442   8.169  1.00  0.00    -0.276 OA
ATOM     38  H2  UNL     1      20.503 -29.213   7.284  1.00  0.00     0.245 HD
ENDBRANCH  33  37
BRANCH  34  39
HETATM   39  N8  UNL     1      20.581 -27.191  12.383  1.00  0.00    -0.329 N
ATOM     40  H82 UNL     1      19.611 -26.879  12.337  1.00  0.00     0.177 HD
ATOM     41  H81 UNL     1      21.012 -27.246  13.306  1.00  0.00     0.177 HD
ENDBRANCH  34  39
ENDBRANCH  22  23
ENDBRANCH   1  22
TORSDOF 9
ENDMDL