MODEL 4
REMARK VINA RESULT: -7.326680362      3.197      4.938
REMARK  10 active torsions:
REMARK  status: ('A' for Active; 'I' for Inactive)
REMARK    1  A    between atoms: C4_7  and  C5_8
REMARK    2  A    between atoms: C5_8  and  N3_10
REMARK    3  A    between atoms: N3_10  and  C6_12
REMARK    4  A    between atoms: C7_15  and  S1_16
REMARK    5  A    between atoms: S1_16  and  C8_17
REMARK    6  A    between atoms: C8_17  and  C9_18
REMARK    7  A    between atoms: C9_18  and  O3_20
REMARK    8  A    between atoms: O3_20  and  C10_21
REMARK    9  A    between atoms: C13_27  and  S2_28
REMARK   10  A    between atoms: S2_28  and  C14_29
ROOT
HETATM    1  C6  UNL     1      21.396 -32.066   8.840  1.00  0.00     0.131 A
HETATM    2  N4  UNL     1      21.218 -31.636  10.112  1.00  0.00    -0.322 N
ATOM      3  H4  UNL     1      20.881 -30.686  10.272  1.00  0.00     0.169 HD
HETATM    4  C7  UNL     1      21.472 -32.425  11.171  1.00  0.00     0.149 A
HETATM    5  N5  UNL     1      21.914 -33.669  10.940  1.00  0.00    -0.303 N
ATOM      6  H5  UNL     1      22.107 -34.269  11.743  1.00  0.00     0.171 HD
HETATM    7  C12 UNL     1      22.117 -34.168   9.714  1.00  0.00     0.268 A
HETATM    8  O4  UNL     1      22.538 -35.356   9.532  1.00  0.00    -0.267 OA
HETATM    9  C13 UNL     1      21.856 -33.360   8.629  1.00  0.00     0.113 A
ENDROOT
BRANCH   1  10
HETATM   10  N3  UNL     1      21.137 -31.262   7.717  1.00  0.00    -0.328 N
ATOM     11  H3  UNL     1      20.489 -31.590   7.000  1.00  0.00     0.168 HD
BRANCH  10  12
HETATM   12  C5  UNL     1      21.766 -30.000   7.568  1.00  0.00     0.147 C
HETATM   13  N2  UNL     1      21.234 -28.886   8.287  1.00  0.00    -0.080 NA
BRANCH  12  14
HETATM   14  C4  UNL     1      22.821 -29.851   6.777  1.00  0.00     0.103 A
HETATM   15  C3  UNL     1      23.465 -28.658   6.533  1.00  0.00     0.099 A
HETATM   16  N1  UNL     1      23.511 -27.327   6.786  1.00  0.00    -0.258 N
HETATM   17  C18 UNL     1      24.523 -28.882   5.658  1.00  0.00     0.045 A
HETATM   18  O1  UNL     1      24.495 -26.777   6.138  1.00  0.00    -0.237 OA
ATOM     19  H1  UNL     1      22.865 -26.828   7.398  1.00  0.00     0.195 HD
HETATM   20  C2  UNL     1      25.144 -27.672   5.436  1.00  0.00     0.103 A
HETATM   21  C1  UNL     1      26.190 -27.446   4.669  1.00  0.00     0.054 C
HETATM   22  C17 UNL     1      24.483 -30.240   5.394  1.00  0.00     0.105 A
HETATM   23  N6  UNL     1      23.449 -30.811   6.078  1.00  0.00    -0.360 N
ATOM     24  H6  UNL     1      23.196 -31.799   6.061  1.00  0.00     0.165 HD
ENDBRANCH  12  14
ENDBRANCH  10  12
ENDBRANCH   1  10
BRANCH   9  25
HETATM   25  S2  UNL     1      22.095 -33.933   6.979  1.00  0.00    -0.117 SA
BRANCH  25  26
HETATM   26  C14 UNL     1      20.671 -34.740   6.264  1.00  0.00     0.044 C
HETATM   27  C15 UNL     1      19.993 -35.717   7.198  1.00  0.00     0.021 C
HETATM   28  C16 UNL     1      19.709 -33.726   5.746  1.00  0.00     0.021 C
ENDBRANCH  25  26
ENDBRANCH   9  25
BRANCH   4  29
HETATM   29  S1  UNL     1      21.221 -31.806  12.833  1.00  0.00    -0.084 SA
BRANCH  29  30
HETATM   30  C8  UNL     1      21.484 -30.014  12.844  1.00  0.00     0.193 C
BRANCH  30  31
HETATM   31  C9  UNL     1      20.186 -29.340  12.743  1.00  0.00     0.268 C
HETATM   32  O2  UNL     1      20.009 -28.222  13.260  1.00  0.00    -0.264 OA
BRANCH  31  33
HETATM   33  O3  UNL     1      19.085 -29.882  12.081  1.00  0.00    -0.321 OA
BRANCH  33  34
HETATM   34  C10 UNL     1      17.880 -30.131  12.738  1.00  0.00     0.174 C
HETATM   35  C11 UNL     1      17.014 -31.165  12.097  1.00  0.00     0.034 C
ENDBRANCH  33  34
ENDBRANCH  31  33
ENDBRANCH  30  31
ENDBRANCH  29  30
ENDBRANCH   4  29
TORSDOF 10
ENDMDL