MODEL 1
REMARK VINA RESULT: -6.813572931      0.000      0.000
REMARK  9 active torsions:
REMARK  status: ('A' for Active; 'I' for Inactive)
REMARK    1  A    between atoms: C2_2  and  O1_3
REMARK    2  A    between atoms: O1_3  and  C3_4
REMARK    3  A    between atoms: C5_6  and  C6_7
REMARK    4  A    between atoms: N3_14  and  C9_15
REMARK    5  A    between atoms: C9_15  and  C10_16
REMARK    6  A    between atoms: C11_17  and  C12_18
REMARK    7  A    between atoms: C12_18  and  O2_19
REMARK    8  A    between atoms: C17_35  and  N8_36
REMARK    9  A    between atoms: N8_36  and  C18_38
ROOT
HETATM    1  C6  UNL     1      20.982 -30.267   8.974  1.00  0.00     0.136 A
HETATM    2  N1  UNL     1      20.413 -29.104   9.324  1.00  0.00    -0.324 N
ATOM      3  H1  UNL     1      20.054 -28.406   8.672  1.00  0.00     0.169 HD
HETATM    4  C7  UNL     1      20.387 -28.997  10.668  1.00  0.00     0.153 A
HETATM    5  N2  UNL     1      20.054 -28.248  11.733  1.00  0.00    -0.335 N
ATOM      6  H2  UNL     1      19.604 -27.334  11.690  1.00  0.00     0.168 HD
HETATM    7  C8  UNL     1      20.401 -28.881  12.857  1.00  0.00     0.186 A
HETATM    8  N3  UNL     1      20.982 -30.092  12.534  1.00  0.00    -0.322 N
HETATM    9  C15 UNL     1      20.954 -30.122  11.192  1.00  0.00     0.155 A
HETATM   10  N6  UNL     1      21.302 -30.865  10.122  1.00  0.00    -0.323 N
ATOM     11  H6  UNL     1      21.756 -31.776  10.183  1.00  0.00     0.169 HD
ENDROOT
BRANCH   1  12
HETATM   12  C5  UNL     1      21.196 -30.753   7.600  1.00  0.00     0.079 A
HETATM   13  C4  UNL     1      20.201 -31.385   6.889  1.00  0.00     0.072 A
HETATM   14  C3  UNL     1      20.429 -31.833   5.590  1.00  0.00     0.098 A
HETATM   15  C17 UNL     1      21.659 -31.654   4.991  1.00  0.00     0.078 A
HETATM   16  C16 UNL     1      22.644 -31.015   5.729  1.00  0.00     0.120 A
HETATM   17  N7  UNL     1      22.383 -30.590   6.994  1.00  0.00    -0.361 N
ATOM     18  H7  UNL     1      23.129 -30.123   7.510  1.00  0.00     0.165 HD
BRANCH  14  19
HETATM   19  O1  UNL     1      19.434 -32.459   4.893  1.00  0.00    -0.349 OA
BRANCH  19  20
HETATM   20  C2  UNL     1      18.904 -33.727   5.185  1.00  0.00     0.171 C
HETATM   21  C1  UNL     1      17.782 -33.986   4.203  1.00  0.00     0.034 C
ENDBRANCH  19  20
ENDBRANCH  14  19
BRANCH  15  22
HETATM   22  N8  UNL     1      21.840 -32.134   3.670  1.00  0.00    -0.379 N
ATOM     23  H8  UNL     1      21.531 -31.538   2.902  1.00  0.00     0.160 HD
BRANCH  22  24
HETATM   24  C18 UNL     1      22.433 -33.413   3.332  1.00  0.00     0.019 C
HETATM   25  C19 UNL     1      21.490 -34.133   2.356  1.00  0.00     0.037 C
HETATM   26  C20 UNL     1      22.510 -34.323   4.549  1.00  0.00     0.037 C
HETATM   27  C21 UNL     1      23.777 -33.253   2.654  1.00  0.00     0.037 C
ENDBRANCH  22  24
ENDBRANCH  15  22
ENDBRANCH   1  12
BRANCH   8  28
HETATM   28  C9  UNL     1      21.446 -31.021  13.515  1.00  0.00     0.178 C
BRANCH  28  29
HETATM   29  C10 UNL     1      21.349 -32.441  13.138  1.00  0.00     0.053 A
HETATM   30  C11 UNL     1      20.250 -33.232  13.190  1.00  0.00     0.050 A
HETATM   31  N4  UNL     1      20.326 -34.533  12.793  1.00  0.00    -0.309 N
HETATM   32  C13 UNL     1      21.445 -35.101  12.341  1.00  0.00     0.327 A
ATOM     33  H4  UNL     1      19.482 -35.103  12.844  1.00  0.00     0.170 HD
HETATM   34  O3  UNL     1      21.480 -36.319  11.979  1.00  0.00    -0.247 OA
HETATM   35  N5  UNL     1      22.541 -34.344  12.279  1.00  0.00    -0.275 N
HETATM   36  C14 UNL     1      22.519 -33.072  12.653  1.00  0.00     0.259 A
ATOM     37  H5  UNL     1      23.412 -34.750  11.937  1.00  0.00     0.173 HD
HETATM   38  O4  UNL     1      23.599 -32.407  12.566  1.00  0.00    -0.267 OA
BRANCH  30  39
HETATM   39  C12 UNL     1      18.931 -32.736  13.663  1.00  0.00     0.222 C
BRANCH  39  40
HETATM   40  O2  UNL     1      18.259 -32.084  12.598  1.00  0.00    -0.395 OA
ATOM     41  H2  UNL     1      17.916 -32.733  11.995  1.00  0.00     0.209 HD
ENDBRANCH  39  40
ENDBRANCH  30  39
ENDBRANCH  28  29
ENDBRANCH   8  28
TORSDOF 9
ENDMDL