MODEL 4
REMARK VINA RESULT: -6.793307537      5.651      6.678
REMARK  12 active torsions:
REMARK  status: ('A' for Active; 'I' for Inactive)
REMARK    1  A    between atoms: C2_2  and  C3_3
REMARK    2  A    between atoms: C3_3  and  C4_4
REMARK    3  A    between atoms: C4_4  and  O1_5
REMARK    4  A    between atoms: O1_5  and  C5_6
REMARK    5  A    between atoms: C5_6  and  C6_8
REMARK    6  A    between atoms: C7_11  and  N2_12
REMARK    7  A    between atoms: N2_12  and  C8_14
REMARK    8  A    between atoms: C11_21  and  N5_22
REMARK    9  A    between atoms: N5_22  and  C12_24
REMARK   10  A    between atoms: C12_24  and  N6_26
REMARK   11  A    between atoms: C12_24  and  C14_30
REMARK   12  A    between atoms: C14_30  and  O3_31
ROOT
HETATM    1  C8  UNL     1      23.039 -34.066  13.715  1.00  0.00     0.137 A
HETATM    2  N3  UNL     1      23.316 -33.907  15.022  1.00  0.00    -0.337 N
ATOM      3  H3  UNL     1      22.548 -33.786  15.682  1.00  0.00     0.168 HD
HETATM    4  C9  UNL     1      24.585 -33.904  15.480  1.00  0.00     0.182 A
HETATM    5  N4  UNL     1      25.629 -34.060  14.655  1.00  0.00    -0.347 N
ATOM      6  H4  UNL     1      26.580 -34.055  15.025  1.00  0.00     0.167 HD
HETATM    7  C10 UNL     1      25.416 -34.224  13.330  1.00  0.00     0.108 A
HETATM    8  C11 UNL     1      26.526 -34.384  12.489  1.00  0.00     0.134 A
HETATM    9  N7  UNL     1      26.235 -34.540  11.189  1.00  0.00    -0.331 N
ATOM     10  H7  UNL     1      27.002 -34.662  10.528  1.00  0.00     0.168 HD
HETATM   11  C15 UNL     1      24.957 -34.544  10.718  1.00  0.00     0.079 A
HETATM   12  C16 UNL     1      24.734 -34.727   9.247  1.00  0.00     0.089 C
HETATM   13  N8  UNL     1      23.907 -34.389  11.543  1.00  0.00    -0.341 N
ATOM     14  H8  UNL     1      22.956 -34.394  11.175  1.00  0.00     0.167 HD
HETATM   15  C17 UNL     1      24.125 -34.229  12.847  1.00  0.00     0.109 A
ENDROOT
BRANCH   1  16
HETATM   16  N2  UNL     1      21.855 -34.073  13.253  1.00  0.00    -0.321 N
ATOM     17  H2  UNL     1      21.387 -34.941  12.992  1.00  0.00     0.169 HD
BRANCH  16  18
HETATM   18  C7  UNL     1      21.201 -32.783  13.113  1.00  0.00     0.151 A
HETATM   19  N1  UNL     1      19.951 -32.548  12.821  1.00  0.00    -0.331 N
HETATM   20  C6  UNL     1      19.505 -31.314  12.730  1.00  0.00     0.123 A
ATOM     21  H1  UNL     1      19.313 -33.328  12.661  1.00  0.00     0.168 HD
HETATM   22  C18 UNL     1      20.404 -30.318  12.955  1.00  0.00     0.015 A
HETATM   23  S1  UNL     1      21.847 -31.219  13.285  1.00  0.00    -0.056 SA
HETATM   24  C19 UNL     1      20.239 -28.837  12.960  1.00  0.00     0.059 C
BRANCH  20  25
HETATM   25  C5  UNL     1      18.070 -31.095  12.430  1.00  0.00     0.311 C
HETATM   26  O2  UNL     1      17.661 -30.942  11.238  1.00  0.00    -0.258 OA
BRANCH  25  27
HETATM   27  O1  UNL     1      17.121 -31.048  13.417  1.00  0.00    -0.316 OA
BRANCH  27  28
HETATM   28  C4  UNL     1      16.220 -29.931  13.360  1.00  0.00     0.179 C
BRANCH  28  29
HETATM   29  C3  UNL     1      14.812 -30.369  13.420  1.00  0.00     0.026 C
BRANCH  29  30
HETATM   30  C2  UNL     1      14.426 -31.262  12.288  1.00  0.00    -0.002 C
HETATM   31  C1  UNL     1      13.186 -32.048  12.491  1.00  0.00     0.005 C
ENDBRANCH  29  30
ENDBRANCH  28  29
ENDBRANCH  27  28
ENDBRANCH  25  27
ENDBRANCH  20  25
ENDBRANCH  16  18
ENDBRANCH   1  16
BRANCH   8  32
HETATM   32  N5  UNL     1      27.671 -34.365  13.021  1.00  0.00    -0.341 N
ATOM     33  H5  UNL     1      27.900 -33.493  13.500  1.00  0.00     0.163 HD
BRANCH  32  34
HETATM   34  C12 UNL     1      28.691 -35.345  13.070  1.00  0.00     0.214 C
HETATM   35  C13 UNL     1      29.701 -35.311  11.974  1.00  0.00     0.073 C
BRANCH  34  36
HETATM   36  N6  UNL     1      28.030 -36.651  13.046  1.00  0.00    -0.051 N
ATOM     37  H63 UNL     1      28.682 -37.429  12.946  1.00  0.00     0.277 HD
ATOM     38  H62 UNL     1      27.644 -36.922  13.951  1.00  0.00     0.277 HD
ATOM     39  H61 UNL     1      27.329 -36.618  12.306  1.00  0.00     0.277 HD
ENDBRANCH  34  36
BRANCH  34  40
HETATM   40  C14 UNL     1      29.355 -35.252  14.451  1.00  0.00     0.225 C
BRANCH  40  41
HETATM   41  O3  UNL     1      28.352 -35.324  15.395  1.00  0.00    -0.397 OA
ATOM     42  H3  UNL     1      28.220 -36.242  15.597  1.00  0.00     0.209 HD
ENDBRANCH  40  41
ENDBRANCH  34  40
ENDBRANCH  32  34
ENDBRANCH   8  32
TORSDOF 12
ENDMDL