MODEL 3
REMARK VINA RESULT: -5.822217010      5.376      7.895
REMARK  9 active torsions:
REMARK  status: ('A' for Active; 'I' for Inactive)
REMARK    1  A    between atoms: C2_2  and  N1_3
REMARK    2  A    between atoms: N1_3  and  C3_5
REMARK    3  A    between atoms: N2_8  and  C6_9
REMARK    4  A    between atoms: C13_24  and  N7_25
REMARK    5  A    between atoms: N7_25  and  C14_27
REMARK    6  A    between atoms: N8_30  and  C17_31
REMARK    7  A    between atoms: C19_33  and  N9_34
REMARK    8  A    between atoms: C20_38  and  C21_39
REMARK    9  A    between atoms: C21_39  and  O1_40
ROOT
HETATM    1  C6  UNL     1      22.041 -31.542   7.236  1.00  0.00     0.120 A
HETATM    2  N3  UNL     1      21.561 -30.248   7.157  1.00  0.00    -0.338 N
ATOM      3  H3  UNL     1      21.650 -29.753   6.269  1.00  0.00     0.168 HD
HETATM    4  C7  UNL     1      20.991 -29.614   8.169  1.00  0.00     0.183 A
HETATM    5  N4  UNL     1      20.868 -30.239   9.322  1.00  0.00    -0.337 N
ATOM      6  H4  UNL     1      20.428 -29.741  10.095  1.00  0.00     0.168 HD
HETATM    7  C8  UNL     1      21.290 -31.499   9.538  1.00  0.00     0.128 A
HETATM    8  C9  UNL     1      21.890 -32.152   8.453  1.00  0.00     0.080 A
HETATM    9  C10 UNL     1      22.308 -33.434   8.638  1.00  0.00     0.068 A
HETATM   10  N5  UNL     1      22.833 -34.109   7.704  1.00  0.00    -0.397 N
ATOM     11  H51 UNL     1      23.146 -35.070   7.842  1.00  0.00     0.156 HD
ATOM     12  H52 UNL     1      22.977 -33.693   6.783  1.00  0.00     0.156 HD
HETATM   13  C11 UNL     1      22.109 -34.008   9.909  1.00  0.00     0.115 A
HETATM   14  C12 UNL     1      22.499 -35.397  10.000  1.00  0.00     0.105 C
HETATM   15  N6  UNL     1      22.793 -36.528  10.039  1.00  0.00    -0.191 NA
HETATM   16  C13 UNL     1      21.529 -33.360  10.960  1.00  0.00     0.131 A
HETATM   17  N8  UNL     1      21.117 -32.072  10.741  1.00  0.00    -0.289 N
ENDROOT
BRANCH  16  18
HETATM   18  N7  UNL     1      21.416 -33.931  12.245  1.00  0.00    -0.370 N
ATOM     19  H7  UNL     1      22.166 -33.664  12.883  1.00  0.00     0.161 HD
BRANCH  18  20
HETATM   20  C14 UNL     1      20.463 -34.800  12.814  1.00  0.00     0.083 A
HETATM   21  C15 UNL     1      20.505 -35.232  14.234  1.00  0.00     0.027 A
HETATM   22  C16 UNL     1      19.585 -34.126  13.911  1.00  0.00     0.027 A
ENDBRANCH  18  20
ENDBRANCH  16  18
BRANCH  17  23
HETATM   23  C17 UNL     1      20.491 -31.296  11.784  1.00  0.00     0.233 C
HETATM   24  C18 UNL     1      19.062 -30.912  11.506  1.00  0.00     0.089 C
HETATM   25  C19 UNL     1      18.899 -29.653  12.330  1.00  0.00     0.218 C
HETATM   26  C20 UNL     1      20.290 -29.258  12.642  1.00  0.00     0.178 C
HETATM   27  O2  UNL     1      21.164 -30.064  11.932  1.00  0.00    -0.357 OA
BRANCH  25  28
HETATM   28  N9  UNL     1      18.130 -29.938  13.553  1.00  0.00    -0.072 N
ATOM     29  H93 UNL     1      18.180 -30.924  13.813  1.00  0.00     0.274 HD
ATOM     30  H92 UNL     1      18.573 -29.541  14.382  1.00  0.00     0.274 HD
ATOM     31  H91 UNL     1      17.167 -29.621  13.448  1.00  0.00     0.274 HD
ENDBRANCH  25  28
BRANCH  26  32
HETATM   32  C21 UNL     1      20.482 -27.792  12.457  1.00  0.00     0.198 C
BRANCH  32  33
HETATM   33  O1  UNL     1      21.193 -27.458  11.331  1.00  0.00    -0.398 OA
ATOM     34  H1  UNL     1      20.668 -27.061  10.645  1.00  0.00     0.209 HD
ENDBRANCH  32  33
ENDBRANCH  26  32
ENDBRANCH  17  23
BRANCH   1  35
HETATM   35  N2  UNL     1      22.680 -32.060   6.085  1.00  0.00    -0.364 N
HETATM   36  C5  UNL     1      24.052 -31.850   5.723  1.00  0.00     0.126 C
HETATM   37  C4  UNL     1      24.364 -32.704   4.531  1.00  0.00     0.046 C
HETATM   38  C3  UNL     1      23.079 -33.341   4.109  1.00  0.00     0.096 C
HETATM   39  C22 UNL     1      22.051 -32.834   5.056  1.00  0.00     0.149 C
BRANCH  38  40
HETATM   40  N1  UNL     1      22.788 -33.169   2.715  1.00  0.00    -0.416 N
ATOM     41  H1  UNL     1      23.427 -32.676   2.091  1.00  0.00     0.153 HD
BRANCH  40  42
HETATM   42  C2  UNL     1      21.565 -33.720   2.248  1.00  0.00     0.110 C
HETATM   43  C1  UNL     1      20.724 -32.558   1.694  1.00  0.00     0.026 C
ENDBRANCH  40  42
ENDBRANCH  38  40
ENDBRANCH   1  35
TORSDOF 9
ENDMDL