MODEL 1
REMARK VINA RESULT: -6.338082544      0.000      0.000
REMARK  12 active torsions:
REMARK  status: ('A' for Active; 'I' for Inactive)
REMARK    1  A    between atoms: C6_7  and  O2_8
REMARK    2  A    between atoms: C9_12  and  O3_13
REMARK    3  A    between atoms: C11_16  and  C12_17
REMARK    4  A    between atoms: C12_17  and  O4_18
REMARK    5  A    between atoms: C13_20  and  C14_21
REMARK    6  A    between atoms: C13_20  and  O5_23
REMARK    7  A    between atoms: N1_25  and  C17_26
REMARK    8  A    between atoms: C17_26  and  C18_27
REMARK    9  A    between atoms: C18_27  and  O6_28
REMARK   10  A    between atoms: O6_28  and  C19_29
REMARK   11  A    between atoms: C19_29  and  O7_31
REMARK   12  A    between atoms: O7_31  and  N2_32
ROOT
HETATM    1  C1  UNL     1      23.806 -32.844   4.795  1.00  0.00     0.036 C
HETATM    2  C2  UNL     1      23.222 -31.767   5.593  1.00  0.00    -0.017 C
HETATM    3  C3  UNL     1      22.362 -31.903   6.572  1.00  0.00     0.024 C
HETATM    4  C4  UNL     1      21.865 -30.702   7.285  1.00  0.00     0.194 C
HETATM    5  O1  UNL     1      21.857 -29.607   6.657  1.00  0.00    -0.287 OA
HETATM    6  C5  UNL     1      21.404 -30.798   8.664  1.00  0.00     0.058 A
HETATM    7  C6  UNL     1      20.938 -29.663   9.321  1.00  0.00     0.089 A
HETATM    8  C7  UNL     1      20.502 -29.728  10.606  1.00  0.00     0.009 A
HETATM    9  C8  UNL     1      20.531 -30.964  11.259  1.00  0.00     0.093 A
HETATM   10  C9  UNL     1      21.001 -32.083  10.583  1.00  0.00     0.102 A
HETATM   11  C10 UNL     1      21.450 -32.027   9.265  1.00  0.00     0.004 A
HETATM   12  C11 UNL     1      21.939 -33.251   8.603  1.00  0.00     0.085 C
HETATM   13  C13 UNL     1      21.799 -33.179   7.075  1.00  0.00     0.100 C
HETATM   14  N1  UNL     1      20.060 -31.030  12.607  1.00  0.00    -0.291 N
HETATM   15  N3  UNL     1      19.959 -29.891  13.435  1.00  0.00    -0.333 N
ATOM     16  H3  UNL     1      19.633 -29.942  14.400  1.00  0.00     0.180 HD
HETATM   17  C21 UNL     1      20.342 -28.674  12.830  1.00  0.00     0.144 C
HETATM   18  C22 UNL     1      19.995 -28.561  11.373  1.00  0.00     0.065 C
ENDROOT
BRANCH  14  19
HETATM   19  C17 UNL     1      19.687 -32.319  13.149  1.00  0.00     0.175 C
BRANCH  19  20
HETATM   20  C18 UNL     1      18.176 -32.274  13.405  1.00  0.00     0.193 C
BRANCH  20  21
HETATM   21  O6  UNL     1      17.458 -31.842  12.332  1.00  0.00    -0.358 OA
BRANCH  21  22
HETATM   22  C19 UNL     1      16.503 -30.908  12.507  1.00  0.00     0.283 C
HETATM   23  C20 UNL     1      15.104 -31.377  12.144  1.00  0.00     0.073 C
BRANCH  22  24
HETATM   24  O7  UNL     1      16.413 -30.453  13.826  1.00  0.00    -0.255 OA
BRANCH  24  25
HETATM   25  N2  UNL     1      15.562 -29.445  14.003  1.00  0.00    -0.308 N
ATOM     26  H22 UNL     1      15.857 -28.472  13.931  1.00  0.00     0.184 HD
ATOM     27  H21 UNL     1      14.606 -29.732  14.215  1.00  0.00     0.184 HD
ENDBRANCH  24  25
ENDBRANCH  22  24
ENDBRANCH  21  22
ENDBRANCH  20  21
ENDBRANCH  19  20
ENDBRANCH  14  19
BRANCH  10  28
HETATM   28  O3  UNL     1      21.020 -33.281  11.240  1.00  0.00    -0.358 OA
ATOM     29  H3  UNL     1      21.826 -33.785  11.239  1.00  0.00     0.217 HD
ENDBRANCH  10  28
BRANCH   7  30
HETATM   30  O2  UNL     1      20.920 -28.457   8.649  1.00  0.00    -0.359 OA
ATOM     31  H2  UNL     1      20.396 -27.743   8.992  1.00  0.00     0.217 HD
ENDBRANCH   7  30
BRANCH  12  32
HETATM   32  C12 UNL     1      23.384 -33.486   8.979  1.00  0.00     0.177 C
BRANCH  32  33
HETATM   33  O4  UNL     1      23.413 -34.558   9.886  1.00  0.00    -0.400 OA
ATOM     34  H4  UNL     1      23.481 -35.357   9.377  1.00  0.00     0.209 HD
ENDBRANCH  32  33
ENDBRANCH  12  32
BRANCH  13  35
HETATM   35  C14 UNL     1      20.319 -33.205   6.775  1.00  0.00     0.039 C
HETATM   36  C15 UNL     1      20.004 -32.798   5.369  1.00  0.00     0.008 C
ENDBRANCH  13  35
BRANCH  13  37
HETATM   37  O5  UNL     1      22.478 -34.217   6.505  1.00  0.00    -0.379 OA
HETATM   38  C16 UNL     1      21.901 -35.447   6.591  1.00  0.00     0.203 C
ENDBRANCH  13  37
TORSDOF 12
ENDMDL