MODEL 1
REMARK VINA RESULT: -6.375763628      0.000      0.000
REMARK  10 active torsions:
REMARK  status: ('A' for Active; 'I' for Inactive)
REMARK    1  A    between atoms: N1_1  and  C1_4
REMARK    2  A    between atoms: C2_7  and  C3_8
REMARK    3  A    between atoms: C3_8  and  S1_9
REMARK    4  A    between atoms: C4_11  and  N3_12
REMARK    5  A    between atoms: C8_17  and  N4_18
REMARK    6  A    between atoms: N4_18  and  N5_20
REMARK    7  A    between atoms: N5_20  and  C9_22
REMARK    8  A    between atoms: C9_22  and  O2_23
REMARK    9  A    between atoms: C9_22  and  N6_25
REMARK   10  A    between atoms: N6_25  and  N7_27
ROOT
HETATM    1  C1  UNL     1      11.023   4.523  12.343  1.00  0.00     0.677 A
HETATM    2  N2  UNL     1      11.141   5.835  12.461  1.00  0.00    -0.193 N
ATOM      3  H2  UNL     1      11.185   6.387  11.604  1.00  0.00     0.184 HD
HETATM    4  C2  UNL     1      11.209   6.504  13.652  1.00  0.00     0.067 A
HETATM    5  C4  UNL     1      11.147   5.752  14.774  1.00  0.00     0.102 A
HETATM    6  C8  UNL     1      11.033   4.348  14.632  1.00  0.00     0.164 A
HETATM    7  N8  UNL     1      10.969   3.716  13.450  1.00  0.00    -0.173 N
ATOM      8  H8  UNL     1      10.885   2.701  13.379  1.00  0.00     0.186 HD
ENDROOT
BRANCH   6   9
HETATM    9  N4  UNL     1      11.053   3.614  15.676  1.00  0.00    -0.284 N
ATOM     10  H4  UNL     1      10.916   4.070  16.578  1.00  0.00     0.188 HD
BRANCH   9  11
HETATM   11  N5  UNL     1      11.243   2.252  15.674  1.00  0.00    -0.288 N
ATOM     12  H5  UNL     1      11.104   1.760  14.792  1.00  0.00     0.185 HD
BRANCH  11  13
HETATM   13  C9  UNL     1      11.630   1.453  16.833  1.00  0.00     0.356 C
BRANCH  13  14
HETATM   14  O2  UNL     1      10.630   1.494  17.794  1.00  0.00    -0.358 OA
ATOM     15  H2  UNL     1      10.940   1.951  18.567  1.00  0.00     0.214 HD
ENDBRANCH  13  14
BRANCH  13  16
HETATM   16  N6  UNL     1      11.985   0.166  16.356  1.00  0.00    -0.296 N
ATOM     17  H6  UNL     1      11.335  -0.394  15.805  1.00  0.00     0.184 HD
BRANCH  16  18
HETATM   18  N7  UNL     1      13.241  -0.293  16.667  1.00  0.00    -0.346 N
ATOM     19  H72 UNL     1      13.485  -0.518  17.631  1.00  0.00     0.176 HD
ATOM     20  H71 UNL     1      13.904  -0.393  15.898  1.00  0.00     0.176 HD
ENDBRANCH  16  18
ENDBRANCH  13  16
ENDBRANCH  11  13
ENDBRANCH   9  11
ENDBRANCH   6   9
BRANCH   5  21
HETATM   21  N3  UNL     1      11.098   6.324  16.062  1.00  0.00    -0.353 N
HETATM   22  C5  UNL     1      10.017   6.888  16.832  1.00  0.00     0.151 C
HETATM   23  C6  UNL     1      10.636   7.058  18.241  1.00  0.00     0.189 C
HETATM   24  O1  UNL     1      11.867   7.561  17.855  1.00  0.00    -0.370 OA
HETATM   25  C7  UNL     1      12.271   6.570  16.903  1.00  0.00     0.293 C
ENDBRANCH   5  21
BRANCH   4  26
HETATM   26  C3  UNL     1      11.301   7.996  13.595  1.00  0.00     0.147 C
BRANCH  26  27
HETATM   27  S1  UNL     1       9.747   8.603  12.735  1.00  0.00    -0.079 SA
HETATM   28  S2  UNL     1       8.077   8.528  13.968  1.00  0.00    -0.013 SA
ENDBRANCH  26  27
ENDBRANCH   4  26
BRANCH   1  29
HETATM   29  N1  UNL     1      10.866   3.888  11.223  1.00  0.00    -0.234 N
ATOM     30  H12 UNL     1      11.607   4.061  10.544  1.00  0.00     0.174 HD
ATOM     31  H11 UNL     1      10.120   3.219  11.029  1.00  0.00     0.174 HD
ENDBRANCH   1  29
TORSDOF 10
ENDMDL