MODEL 5
REMARK VINA RESULT: -6.749125264      2.013      3.590
REMARK  11 active torsions:
REMARK  status: ('A' for Active; 'I' for Inactive)
REMARK    1  A    between atoms: C2_2  and  C3_6
REMARK    2  A    between atoms: C3_6  and  N2_7
REMARK    3  A    between atoms: N2_7  and  C4_9
REMARK    4  A    between atoms: C4_9  and  O1_13
REMARK    5  A    between atoms: O1_13  and  N4_14
REMARK    6  A    between atoms: C5_16  and  N5_18
REMARK    7  A    between atoms: N5_18  and  O2_20
REMARK    8  A    between atoms: O2_20  and  C7_21
REMARK       I    between atoms: C7_21  and  N6_23
REMARK    9  A    between atoms: N6_23  and  C8_25
REMARK   10  A    between atoms: C8_25  and  N7_26
REMARK   11  A    between atoms: C10_30  and  N10_31
ROOT
HETATM    1  N4  UNL     1      13.058   2.972  15.431  1.00  0.00    -0.244 N
ATOM      2  H4  UNL     1      13.951   2.696  15.839  1.00  0.00     0.196 HD
HETATM    3  C5  UNL     1      12.894   4.155  14.970  1.00  0.00     0.118 C
HETATM    4  C6  UNL     1      13.980   5.157  15.010  1.00  0.00     0.093 C
ENDROOT
BRANCH   3   5
HETATM    5  N5  UNL     1      11.643   4.507  14.408  1.00  0.00    -0.243 N
ATOM      6  H5  UNL     1      10.794   4.505  14.973  1.00  0.00     0.196 HD
BRANCH   5   7
HETATM    7  O2  UNL     1      11.606   4.853  13.077  1.00  0.00    -0.180 OA
BRANCH   7   8
HETATM    8  C7  UNL     1      11.317   6.155  12.750  1.00  0.00     0.384 C
HETATM    9  O3  UNL     1      12.108   6.793  12.008  1.00  0.00    -0.236 OA
HETATM   10  N6  UNL     1      10.161   6.840  13.202  1.00  0.00    -0.309 N
ATOM     11  H6  UNL     1       9.507   6.341  13.804  1.00  0.00     0.166 HD
BRANCH  10  12
HETATM   12  C8  UNL     1       9.863   8.209  12.854  1.00  0.00     0.405 C
BRANCH  12  13
HETATM   13  N7  UNL     1       9.103   8.789  13.905  1.00  0.00     0.168 N
HETATM   14  C9  UNL     1       7.958   8.089  14.351  1.00  0.00     0.408 C
HETATM   15  N8  UNL     1       6.856   8.847  13.791  1.00  0.00    -0.114 NA
HETATM   16  N9  UNL     1       7.271  10.173  14.050  1.00  0.00    -0.084 NA
HETATM   17  C10 UNL     1       8.716  10.142  13.764  1.00  0.00     0.530 C
BRANCH  17  18
HETATM   18  N10 UNL     1       8.900  10.554  12.383  1.00  0.00    -0.032 N
ATOM     19 3H10 UNL     1       9.532  11.350  12.298  1.00  0.00     0.278 HD
ATOM     20 2H10 UNL     1       9.446   9.879  11.847  1.00  0.00     0.278 HD
ATOM     21 1H10 UNL     1       7.990  10.737  11.960  1.00  0.00     0.278 HD
ENDBRANCH  17  18
ENDBRANCH  12  13
ENDBRANCH  10  12
ENDBRANCH   7   8
ENDBRANCH   5   7
ENDBRANCH   3   5
BRANCH   1  22
HETATM   22  O1  UNL     1      12.019   2.084  15.369  1.00  0.00    -0.200 OA
BRANCH  22  23
HETATM   23  C4  UNL     1      11.896   1.162  16.402  1.00  0.00     0.237 C
HETATM   24  N3  UNL     1      10.876   1.280  17.173  1.00  0.00    -0.364 N
ATOM     25  H32 UNL     1      10.787   0.604  17.931  1.00  0.00     0.159 HD
ATOM     26  H31 UNL     1      10.202   2.028  17.008  1.00  0.00     0.159 HD
BRANCH  23  27
HETATM   27  N2  UNL     1      12.831   0.124  16.631  1.00  0.00    -0.350 N
ATOM     28  H2  UNL     1      12.869  -0.678  16.003  1.00  0.00     0.163 HD
BRANCH  27  29
HETATM   29  C3  UNL     1      13.721   0.205  17.743  1.00  0.00     0.174 C
BRANCH  29  30
HETATM   30  C2  UNL     1      15.141   0.150  17.317  1.00  0.00    -0.006 C
HETATM   31  C1  UNL     1      15.796   1.463  16.949  1.00  0.00     0.064 C
HETATM   32  N1  UNL     1      15.858  -0.881  17.225  1.00  0.00    -0.405 N
ATOM     33  H12 UNL     1      16.834  -0.919  16.931  1.00  0.00     0.155 HD
ATOM     34  H11 UNL     1      15.416  -1.766  17.473  1.00  0.00     0.155 HD
ENDBRANCH  29  30
ENDBRANCH  27  29
ENDBRANCH  23  27
ENDBRANCH  22  23
ENDBRANCH   1  22
TORSDOF 11
ENDMDL