MODEL 2
REMARK VINA RESULT: -5.719914020      2.791      4.133
REMARK  10 active torsions:
REMARK  status: ('A' for Active; 'I' for Inactive)
REMARK    1  A    between atoms: O1_2  and  C2_3
REMARK    2  A    between atoms: C2_3  and  O2_4
REMARK    3  A    between atoms: C4_7  and  O3_8
REMARK    4  A    between atoms: O3_8  and  C5_9
REMARK    5  A    between atoms: C8_14  and  N2_15
REMARK    6  A    between atoms: N2_15  and  C9_17
REMARK    7  A    between atoms: C10_21  and  O4_22
REMARK    8  A    between atoms: C11_24  and  O5_25
REMARK    9  A    between atoms: C12_27  and  C13_28
REMARK   10  A    between atoms: C13_28  and  O6_29
ROOT
HETATM    1  O3  UNL     1       9.920   6.888  16.486  1.00  0.00    -0.356 OA
ENDROOT
BRANCH   1   2
HETATM    2  C4  UNL     1      10.470   7.876  17.247  1.00  0.00     0.163 C
HETATM    3  C3  UNL     1      10.045   9.210  16.606  1.00  0.00     0.136 C
HETATM    4  C2  UNL     1       8.541   9.330  16.599  1.00  0.00     0.282 C
HETATM    5  O7  UNL     1       7.881   8.555  17.494  1.00  0.00    -0.323 OA
HETATM    6  C12 UNL     1       8.471   8.197  18.657  1.00  0.00     0.182 C
HETATM    7  C11 UNL     1       9.937   7.936  18.652  1.00  0.00     0.178 C
BRANCH   4   8
HETATM    8  O1  UNL     1       8.163  10.677  16.577  1.00  0.00    -0.338 OA
HETATM    9  C1  UNL     1       9.210  11.505  16.976  1.00  0.00     0.208 C
ENDBRANCH   4   8
BRANCH   4  10
HETATM   10  O2  UNL     1       8.162   8.850  15.312  1.00  0.00    -0.343 OA
ATOM     11  H2  UNL     1       7.695   8.044  15.500  1.00  0.00     0.215 HD
ENDBRANCH   4  10
BRANCH   6  12
HETATM   12  C13 UNL     1       8.180   9.173  19.811  1.00  0.00     0.199 C
BRANCH  12  13
HETATM   13  O6  UNL     1       8.083   8.423  20.975  1.00  0.00    -0.398 OA
ATOM     14  H6  UNL     1       8.379   8.972  21.692  1.00  0.00     0.209 HD
ENDBRANCH  12  13
ENDBRANCH   6  12
BRANCH   7  15
HETATM   15  O5  UNL     1      10.242   6.820  19.402  1.00  0.00    -0.390 OA
ATOM     16  H5  UNL     1      10.410   7.014  20.316  1.00  0.00     0.210 HD
ENDBRANCH   7  15
ENDBRANCH   1   2
BRANCH   1  17
HETATM   17  C5  UNL     1      10.697   6.365  15.497  1.00  0.00     0.248 C
HETATM   18  N1  UNL     1      10.302   6.824  14.191  1.00  0.00    -0.395 N
HETATM   19  C6  UNL     1      10.910   6.171  13.099  1.00  0.00     0.118 C
ATOM     20  H1  UNL     1       9.624   7.575  14.063  1.00  0.00     0.155 HD
HETATM   21  C7  UNL     1      11.144   4.704  13.243  1.00  0.00     0.047 C
HETATM   22  C8  UNL     1      11.620   4.312  14.624  1.00  0.00     0.116 C
HETATM   23  C10 UNL     1      10.568   4.855  15.575  1.00  0.00     0.189 C
BRANCH  22  24
HETATM   24  N2  UNL     1      11.780   2.906  14.711  1.00  0.00    -0.379 N
ATOM     25  H2  UNL     1      11.876   2.351  13.860  1.00  0.00     0.160 HD
BRANCH  24  26
HETATM   26  C9  UNL     1      11.808   2.273  15.976  1.00  0.00     0.169 C
HETATM   27  N3  UNL     1      11.193   1.186  16.238  1.00  0.00    -0.396 N
ATOM     28  H32 UNL     1      10.656   0.763  15.482  1.00  0.00     0.156 HD
ATOM     29  H31 UNL     1      11.213   0.729  17.150  1.00  0.00     0.156 HD
ENDBRANCH  24  26
ENDBRANCH  22  24
BRANCH  23  30
HETATM   30  O4  UNL     1       9.328   4.501  15.039  1.00  0.00    -0.389 OA
ATOM     31  H4  UNL     1       8.774   5.272  15.049  1.00  0.00     0.210 HD
ENDBRANCH  23  30
ENDBRANCH   1  17
TORSDOF 10
ENDMDL