MODEL 4
REMARK VINA RESULT: -5.729325345      5.430      8.006
REMARK  10 active torsions:
REMARK  status: ('A' for Active; 'I' for Inactive)
REMARK    1  A    between atoms: C1_4  and  S1_5
REMARK    2  A    between atoms: S1_5  and  C2_6
REMARK    3  A    between atoms: C3_10  and  N3_11
REMARK    4  A    between atoms: C4_16  and  C5_17
REMARK    5  A    between atoms: C5_17  and  S2_18
REMARK    6  A    between atoms: S2_18  and  C6_19
REMARK    7  A    between atoms: C6_19  and  C7_20
REMARK    8  A    between atoms: C9_25  and  O2_26
REMARK    9  A    between atoms: C10_28  and  O3_29
REMARK   10  A    between atoms: C11_31  and  O4_32
ROOT
HETATM    1  C5  UNL     1      10.789   7.202  18.771  1.00  0.00     0.109 C
ENDROOT
BRANCH   1   2
HETATM    2  C4  UNL     1      10.431   8.086  19.970  1.00  0.00     0.176 C
HETATM    3  C2  UNL     1       9.820   7.265  21.075  1.00  0.00     0.287 C
HETATM    4  N2  UNL     1       8.605   7.986  21.384  1.00  0.00    -0.007 N
HETATM    5  C3  UNL     1       8.274   8.571  20.099  1.00  0.00     0.523 C
ATOM      6  H22 UNL     1       7.865   7.427  21.809  1.00  0.00     0.283 HD
ATOM      7  H21 UNL     1       8.678   8.649  22.156  1.00  0.00     0.283 HD
HETATM    8  O1  UNL     1       9.477   9.042  19.613  1.00  0.00    -0.330 OA
BRANCH   3   9
HETATM    9  S1  UNL     1      10.871   7.276  22.549  1.00  0.00    -0.089 SA
BRANCH   9  10
HETATM   10  C1  UNL     1       9.851   7.148  24.000  1.00  0.00     0.128 C
HETATM   11  N1  UNL     1       9.344   6.028  24.330  1.00  0.00    -0.403 N
ATOM     12  H12 UNL     1       9.534   5.211  23.750  1.00  0.00     0.155 HD
ATOM     13  H11 UNL     1       8.758   5.955  25.162  1.00  0.00     0.155 HD
ENDBRANCH   9  10
ENDBRANCH   3   9
BRANCH   5  14
HETATM   14  N3  UNL     1       7.289   9.606  20.266  1.00  0.00    -0.027 N
ATOM     15  H33 UNL     1       6.412   9.377  19.797  1.00  0.00     0.279 HD
ATOM     16  H32 UNL     1       6.940   9.650  21.223  1.00  0.00     0.279 HD
ATOM     17  H31 UNL     1       7.664  10.502  19.955  1.00  0.00     0.279 HD
ENDBRANCH   5  14
ENDBRANCH   1   2
BRANCH   1  18
HETATM   18  S2  UNL     1      10.668   8.223  17.313  1.00  0.00    -0.164 SA
BRANCH  18  19
HETATM   19  C6  UNL     1       9.702   7.554  15.976  1.00  0.00     0.109 C
BRANCH  19  20
HETATM   20  C7  UNL     1      10.373   6.561  15.102  1.00  0.00     0.226 C
HETATM   21  N4  UNL     1       9.789   5.254  15.057  1.00  0.00    -0.065 N
HETATM   22  C8  UNL     1      10.884   4.367  14.620  1.00  0.00     0.267 C
ATOM     23  H42 UNL     1       9.347   4.968  15.931  1.00  0.00     0.277 HD
ATOM     24  H41 UNL     1       8.951   5.195  14.479  1.00  0.00     0.277 HD
HETATM   25  C9  UNL     1      11.271   4.687  13.220  1.00  0.00     0.175 C
HETATM   26  C10 UNL     1      11.062   6.059  12.739  1.00  0.00     0.179 C
HETATM   27  C11 UNL     1      10.612   7.087  13.711  1.00  0.00     0.180 C
BRANCH  25  28
HETATM   28  O2  UNL     1      10.617   3.743  12.391  1.00  0.00    -0.391 OA
ATOM     29  H2  UNL     1       9.990   4.228  11.867  1.00  0.00     0.210 HD
ENDBRANCH  25  28
BRANCH  26  30
HETATM   30  O3  UNL     1      12.225   6.531  12.083  1.00  0.00    -0.390 OA
ATOM     31  H3  UNL     1      12.964   5.968  12.279  1.00  0.00     0.210 HD
ENDBRANCH  26  30
BRANCH  27  32
HETATM   32  O4  UNL     1       9.454   7.750  13.304  1.00  0.00    -0.391 OA
ATOM     33  H4  UNL     1       8.739   7.127  13.337  1.00  0.00     0.210 HD
ENDBRANCH  27  32
ENDBRANCH  19  20
ENDBRANCH  18  19
ENDBRANCH   1  18
TORSDOF 10
ENDMDL