MODEL 1
REMARK VINA RESULT: -6.625489037      0.000      0.000
REMARK  9 active torsions:
REMARK  status: ('A' for Active; 'I' for Inactive)
REMARK    1  A    between atoms: N1_1  and  C1_4
REMARK    2  A    between atoms: C2_7  and  S1_8
REMARK    3  A    between atoms: S1_8  and  S2_9
REMARK    4  A    between atoms: S2_9  and  C3_10
REMARK    5  A    between atoms: C4_13  and  C5_14
REMARK    6  A    between atoms: C5_14  and  N4_15
REMARK    7  A    between atoms: C5_14  and  C6_19
REMARK    8  A    between atoms: C7_22  and  N5_23
REMARK    9  A    between atoms: C8_26  and  N6_27
ROOT
HETATM    1  C1  UNL     1      11.570   3.936  15.044  1.00  0.00     0.678 A
HETATM    2  N2  UNL     1      12.865   3.559  15.203  1.00  0.00    -0.183 N
ATOM      3  H2  UNL     1      13.079   2.577  15.379  1.00  0.00     0.185 HD
HETATM    4  C2  UNL     1      13.865   4.443  15.136  1.00  0.00     0.133 A
HETATM    5  C7  UNL     1      13.569   5.755  14.899  1.00  0.00     0.181 A
HETATM    6  C8  UNL     1      12.273   6.177  14.730  1.00  0.00     0.151 A
HETATM    7  N7  UNL     1      11.289   5.234  14.809  1.00  0.00    -0.175 N
ATOM      8  H7  UNL     1      10.316   5.518  14.688  1.00  0.00     0.186 HD
ENDROOT
BRANCH   4   9
HETATM    9  S1  UNL     1      15.535   3.926  15.355  1.00  0.00    -0.035 SA
BRANCH   9  10
HETATM   10  S2  UNL     1      15.735   1.842  15.583  1.00  0.00    -0.064 SA
BRANCH  10  11
HETATM   11  C3  UNL     1      15.437   1.264  17.256  1.00  0.00     0.212 C
HETATM   12  N3  UNL     1      16.188   0.004  17.444  1.00  0.00    -0.081 NA
HETATM   13  O1  UNL     1      15.183  -0.550  16.681  1.00  0.00    -0.275 OA
HETATM   14  C4  UNL     1      14.325   0.249  17.429  1.00  0.00     0.220 C
BRANCH  14  15
HETATM   15  C5  UNL     1      13.001   0.592  16.826  1.00  0.00     0.316 C
BRANCH  15  16
HETATM   16  N4  UNL     1      12.429  -0.499  16.066  1.00  0.00    -0.062 N
ATOM     17  H43 UNL     1      13.111  -0.886  15.415  1.00  0.00     0.275 HD
ATOM     18  H42 UNL     1      12.280  -1.317  16.658  1.00  0.00     0.275 HD
ATOM     19  H41 UNL     1      11.569  -0.238  15.582  1.00  0.00     0.275 HD
ENDBRANCH  15  16
BRANCH  15  20
HETATM   20  C6  UNL     1      12.079   0.880  17.956  1.00  0.00     0.207 C
HETATM   21  O2  UNL     1      12.406   0.543  19.142  1.00  0.00    -0.646 OA
HETATM   22  O3  UNL     1      10.875   1.504  17.749  1.00  0.00    -0.646 OA
ENDBRANCH  15  20
ENDBRANCH  14  15
ENDBRANCH  10  11
ENDBRANCH   9  10
ENDBRANCH   4   9
BRANCH   5  23
HETATM   23  N5  UNL     1      14.629   6.688  14.840  1.00  0.00    -0.109 N
HETATM   24  O4  UNL     1      15.188   6.927  13.763  1.00  0.00    -0.532 OA
HETATM   25  O5  UNL     1      15.027   7.326  15.989  1.00  0.00    -0.532 OA
ENDBRANCH   5  23
BRANCH   1  26
HETATM   26  N1  UNL     1      10.586   3.113  15.105  1.00  0.00    -0.234 N
ATOM     27  H12 UNL     1      10.690   2.293  15.703  1.00  0.00     0.174 HD
ATOM     28  H11 UNL     1       9.717   3.243  14.587  1.00  0.00     0.174 HD
ENDBRANCH   1  26
BRANCH   6  29
HETATM   29  N6  UNL     1      11.957   7.384  14.507  1.00  0.00    -0.383 N
ATOM     30  H62 UNL     1      12.017   8.062  15.266  1.00  0.00     0.157 HD
ATOM     31  H61 UNL     1      11.642   7.722  13.599  1.00  0.00     0.157 HD
ENDBRANCH   6  29
TORSDOF 9
ENDMDL