MODEL 2
REMARK VINA RESULT: -5.794322140      2.719      5.062
REMARK  12 active torsions:
REMARK  status: ('A' for Active; 'I' for Inactive)
REMARK    1  A    between atoms: C2_2  and  C4_4
REMARK    2  A    between atoms: C4_4  and  O1_5
REMARK    3  A    between atoms: C4_4  and  C5_7
REMARK    4  A    between atoms: C5_7  and  N1_8
REMARK    5  A    between atoms: C5_7  and  C12_33
REMARK    6  A    between atoms: N1_8  and  C6_10
REMARK    7  A    between atoms: C9_20  and  N6_21
REMARK    8  A    between atoms: N6_21  and  C10_23
REMARK    9  A    between atoms: C10_23  and  N7_25
REMARK   10  A    between atoms: C10_23  and  N8_29
REMARK   11  A    between atoms: C12_33  and  O2_34
REMARK   12  A    between atoms: C12_33  and  O3_36
ROOT
HETATM    1  C6  UNL     1      13.036   4.018  15.041  1.00  0.00     0.150 A
HETATM    2  N2  UNL     1      13.198   2.713  15.378  1.00  0.00    -0.316 N
ATOM      3  H2  UNL     1      14.105   2.264  15.258  1.00  0.00     0.170 HD
HETATM    4  C7  UNL     1      12.160   2.015  15.871  1.00  0.00     0.204 A
HETATM    5  C8  UNL     1      12.385   0.641  16.212  1.00  0.00     0.138 C
HETATM    6  N3  UNL     1      12.549  -0.477  16.483  1.00  0.00    -0.188 NA
HETATM    7  N4  UNL     1      10.971   2.623  16.023  1.00  0.00    -0.275 N
ATOM      8  H4  UNL     1      10.184   2.092  16.397  1.00  0.00     0.189 HD
HETATM    9  N5  UNL     1      10.796   3.910  15.694  1.00  0.00    -0.281 N
ATOM     10  H5  UNL     1       9.880   4.342  15.821  1.00  0.00     0.188 HD
HETATM   11  C9  UNL     1      11.809   4.636  15.201  1.00  0.00     0.164 A
ENDROOT
BRANCH   1  12
HETATM   12  N1  UNL     1      14.003   4.733  14.562  1.00  0.00    -0.361 N
ATOM     13  H1  UNL     1      13.996   5.034  13.588  1.00  0.00     0.162 HD
BRANCH  12  14
HETATM   14  C5  UNL     1      15.096   5.099  15.442  1.00  0.00     0.167 C
BRANCH  14  15
HETATM   15  C4  UNL     1      15.586   6.501  15.159  1.00  0.00     0.149 C
BRANCH  15  16
HETATM   16  C2  UNL     1      17.056   6.657  15.364  1.00  0.00     0.008 C
HETATM   17  C1  UNL     1      17.411   7.315  16.674  1.00  0.00     0.012 C
HETATM   18  C3  UNL     1      17.776   7.366  14.259  1.00  0.00     0.012 C
ENDBRANCH  15  16
BRANCH  15  19
HETATM   19  O1  UNL     1      15.304   6.847  13.840  1.00  0.00    -0.393 OA
ATOM     20  H1  UNL     1      14.370   7.005  13.776  1.00  0.00     0.210 HD
ENDBRANCH  15  19
ENDBRANCH  14  15
BRANCH  14  21
HETATM   21  C12 UNL     1      16.211   4.101  15.220  1.00  0.00     0.278 C
BRANCH  21  22
HETATM   22  O2  UNL     1      16.225   3.109  16.194  1.00  0.00    -0.369 OA
ATOM     23  H2  UNL     1      16.693   3.383  16.975  1.00  0.00     0.212 HD
ENDBRANCH  21  22
BRANCH  21  24
HETATM   24  O3  UNL     1      16.045   3.484  13.959  1.00  0.00    -0.369 OA
ATOM     25  H3  UNL     1      15.777   2.581  14.082  1.00  0.00     0.212 HD
ENDBRANCH  21  24
ENDBRANCH  14  21
ENDBRANCH  12  14
ENDBRANCH   1  12
BRANCH  11  26
HETATM   26  N6  UNL     1      11.660   6.004  14.841  1.00  0.00    -0.317 N
ATOM     27  H6  UNL     1      11.821   6.734  15.535  1.00  0.00     0.165 HD
BRANCH  26  28
HETATM   28  C10 UNL     1      11.280   6.362  13.492  1.00  0.00     0.355 C
HETATM   29  C11 UNL     1      10.032   7.221  13.510  1.00  0.00     0.104 C
BRANCH  28  30
HETATM   30  N7  UNL     1      10.959   5.182  12.700  1.00  0.00    -0.027 N
ATOM     31  H73 UNL     1      11.718   4.941  12.062  1.00  0.00     0.279 HD
ATOM     32  H72 UNL     1      10.960   4.337  13.271  1.00  0.00     0.279 HD
ATOM     33  H71 UNL     1      10.076   5.297  12.203  1.00  0.00     0.279 HD
ENDBRANCH  28  30
BRANCH  28  34
HETATM   34  N8  UNL     1      12.324   7.150  12.867  1.00  0.00    -0.027 N
ATOM     35  H83 UNL     1      13.231   6.995  13.306  1.00  0.00     0.279 HD
ATOM     36  H82 UNL     1      12.550   6.809  11.932  1.00  0.00     0.279 HD
ATOM     37  H81 UNL     1      12.068   8.137  12.861  1.00  0.00     0.279 HD
ENDBRANCH  28  34
ENDBRANCH  26  28
ENDBRANCH  11  26
TORSDOF 12
ENDMDL