MODEL 1
REMARK VINA RESULT: -7.003752394      0.000      0.000
REMARK  9 active torsions:
REMARK  status: ('A' for Active; 'I' for Inactive)
REMARK    1  A    between atoms: C2_2  and  N1_3
REMARK    2  A    between atoms: C2_2  and  N6_23
REMARK       I    between atoms: N1_3  and  C3_5
REMARK    3  A    between atoms: C3_5  and  C4_7
REMARK    4  A    between atoms: C4_7  and  O2_8
REMARK    5  A    between atoms: C4_7  and  N2_10
REMARK    6  A    between atoms: N2_10  and  N3_11
REMARK       I    between atoms: N3_11  and  C5_13
REMARK    7  A    between atoms: C5_13  and  C6_15
REMARK    8  A    between atoms: N6_23  and  C8_26
REMARK    9  A    between atoms: C8_26  and  O5_27
ROOT
HETATM    1  C4  UNL     1      12.354   4.135  14.332  1.00  0.00     0.324 C
ENDROOT
BRANCH   1   2
HETATM    2  C3  UNL     1      11.704   5.362  14.854  1.00  0.00     0.265 C
HETATM    3  N1  UNL     1      10.638   5.931  14.122  1.00  0.00    -0.330 N
ATOM      4  H1  UNL     1      10.321   5.507  13.251  1.00  0.00     0.164 HD
HETATM    5  O1  UNL     1      12.075   5.902  15.922  1.00  0.00    -0.269 OA
BRANCH   3   6
HETATM    6  C2  UNL     1      10.001   7.131  14.634  1.00  0.00     0.286 C
HETATM    7  C1  UNL     1       8.787   6.794  15.462  1.00  0.00     0.063 C
BRANCH   6   8
HETATM    8  N6  UNL     1       9.744   8.019  13.550  1.00  0.00    -0.018 N
ATOM      9  H62 UNL     1       8.782   7.925  13.223  1.00  0.00     0.283 HD
ATOM     10  H61 UNL     1       9.717   8.987  13.871  1.00  0.00     0.283 HD
BRANCH   8  11
HETATM   11  C8  UNL     1      10.664   7.865  12.477  1.00  0.00     0.396 C
HETATM   12  S2  UNL     1      11.211   9.461  11.853  1.00  0.00    -0.033 SA
BRANCH  11  13
HETATM   13  O5  UNL     1      10.115   7.202  11.384  1.00  0.00    -0.361 OA
ATOM     14  H5  UNL     1      10.695   6.542  11.023  1.00  0.00     0.213 HD
ENDBRANCH  11  13
ENDBRANCH   8  11
ENDBRANCH   6   8
ENDBRANCH   3   6
ENDBRANCH   1   2
BRANCH   1  15
HETATM   15  O2  UNL     1      11.708   2.988  14.794  1.00  0.00    -0.370 OA
ATOM     16  H2  UNL     1      12.039   2.211  14.359  1.00  0.00     0.212 HD
ENDBRANCH   1  15
BRANCH   1  17
HETATM   17  N2  UNL     1      13.744   4.155  14.777  1.00  0.00    -0.096 NA
BRANCH  17  18
HETATM   18  N3  UNL     1      13.966   2.898  15.394  1.00  0.00    -0.266 N
HETATM   19  C5  UNL     1      15.212   2.547  15.927  1.00  0.00     0.288 C
HETATM   20  O3  UNL     1      16.142   3.406  15.834  1.00  0.00    -0.264 OA
ATOM     21  H3  UNL     1      13.196   2.230  15.451  1.00  0.00     0.185 HD
BRANCH  19  22
HETATM   22  C6  UNL     1      15.556   1.299  16.580  1.00  0.00     0.165 A
HETATM   23  N4  UNL     1      16.833   0.906  16.919  1.00  0.00    -0.233 N
HETATM   24  O4  UNL     1      16.782  -0.232  17.473  1.00  0.00    -0.155 OA
ATOM     25  H4  UNL     1      17.683   1.445  16.750  1.00  0.00     0.197 HD
HETATM   26  N5  UNL     1      15.593  -0.705  17.571  1.00  0.00    -0.228 N
HETATM   27  C7  UNL     1      14.787   0.248  17.010  1.00  0.00     0.157 A
ATOM     28  H5  UNL     1      15.311  -1.597  17.977  1.00  0.00     0.198 HD
HETATM   29  S1  UNL     1      13.157   0.138  16.879  1.00  0.00    -0.056 SA
ENDBRANCH  19  22
ENDBRANCH  17  18
ENDBRANCH   1  17
TORSDOF 9
ENDMDL