MODEL 3
REMARK VINA RESULT: -6.407285654      3.338      6.966
REMARK  9 active torsions:
REMARK  status: ('A' for Active; 'I' for Inactive)
REMARK    1  A    between atoms: N1_1  and  C1_4
REMARK    2  A    between atoms: N3_7  and  N4_8
REMARK    3  A    between atoms: C2_11  and  N5_12
REMARK    4  A    between atoms: N5_12  and  C3_14
REMARK    5  A    between atoms: C4_16  and  N6_17
REMARK    6  A    between atoms: C5_21  and  C6_22
REMARK    7  A    between atoms: C8_24  and  C9_25
REMARK    8  A    between atoms: C9_25  and  S1_26
REMARK    9  A    between atoms: S1_26  and  C10_27
ROOT
HETATM    1  C1  UNL     1      10.915   5.261  13.178  1.00  0.00     0.128 A
HETATM    2  N2  UNL     1      10.732   6.469  12.707  1.00  0.00    -0.263 N
ATOM      3  H2  UNL     1      10.667   6.721  11.720  1.00  0.00     0.190 HD
HETATM    4  N3  UNL     1      10.648   7.286  13.704  1.00  0.00    -0.184 N
HETATM    5  C2  UNL     1      10.788   6.606  14.931  1.00  0.00     0.155 A
HETATM    6  C5  UNL     1      10.951   5.315  14.596  1.00  0.00     0.063 A
ENDROOT
BRANCH   6   7
HETATM    7  C6  UNL     1      11.168   4.039  15.319  1.00  0.00     0.165 C
HETATM    8  C7  UNL     1      12.643   3.725  15.205  1.00  0.00     0.070 C
HETATM    9  C8  UNL     1      12.169   2.321  15.221  1.00  0.00     0.135 C
HETATM   10  O2  UNL     1      10.957   2.848  14.601  1.00  0.00    -0.375 OA
BRANCH   9  11
HETATM   11  C9  UNL     1      11.840   1.799  16.603  1.00  0.00     0.114 C
BRANCH  11  12
HETATM   12  S1  UNL     1      12.602   0.116  16.799  1.00  0.00    -0.089 SA
BRANCH  12  13
HETATM   13  C10 UNL     1      14.376   0.313  16.914  1.00  0.00     0.176 A
HETATM   14  N7  UNL     1      15.242  -0.636  17.380  1.00  0.00    -0.263 N
HETATM   15  N8  UNL     1      16.474  -0.118  17.369  1.00  0.00    -0.226 N
ATOM     16  H7  UNL     1      14.992  -1.577  17.684  1.00  0.00     0.190 HD
HETATM   17  N9  UNL     1      16.430   1.116  16.914  1.00  0.00    -0.226 N
ATOM     18  H8  UNL     1      17.319  -0.604  17.667  1.00  0.00     0.210 HD
HETATM   19  N10 UNL     1      15.123   1.359  16.639  1.00  0.00    -0.263 N
ATOM     20  H9  UNL     1      17.214   1.757  16.794  1.00  0.00     0.210 HD
ATOM     21  H10 UNL     1      14.767   2.240  16.267  1.00  0.00     0.190 HD
ENDBRANCH  12  13
ENDBRANCH  11  12
ENDBRANCH   9  11
ENDBRANCH   6   7
BRANCH   1  22
HETATM   22  N1  UNL     1      10.992   4.195  12.442  1.00  0.00    -0.384 N
ATOM     23  H12 UNL     1      11.464   4.110  11.542  1.00  0.00     0.157 HD
ATOM     24  H11 UNL     1      10.617   3.285  12.710  1.00  0.00     0.157 HD
ENDBRANCH   1  22
BRANCH   5  25
HETATM   25  N5  UNL     1      10.775   7.269  16.154  1.00  0.00    -0.343 N
ATOM     26  H5  UNL     1      11.478   8.007  16.192  1.00  0.00     0.164 HD
BRANCH  25  27
HETATM   27  C3  UNL     1      10.043   7.186  17.349  1.00  0.00     0.281 A
HETATM   28  O1  UNL     1      10.761   6.423  18.411  1.00  0.00    -0.326 OA
HETATM   29  C4  UNL     1      10.486   7.865  18.575  1.00  0.00     0.369 A
BRANCH  29  30
HETATM   30  N6  UNL     1       9.450   8.094  19.543  1.00  0.00    -0.049 N
ATOM     31  H63 UNL     1       8.696   8.645  19.131  1.00  0.00     0.277 HD
ATOM     32  H62 UNL     1       8.950   7.227  19.737  1.00  0.00     0.277 HD
ATOM     33  H61 UNL     1       9.767   8.523  20.413  1.00  0.00     0.277 HD
ENDBRANCH  29  30
ENDBRANCH  25  27
ENDBRANCH   5  25
BRANCH   4  34
HETATM   34  N4  UNL     1      10.456   8.654  13.607  1.00  0.00    -0.322 N
ATOM     35  H42 UNL     1      11.193   9.339  13.774  1.00  0.00     0.179 HD
ATOM     36  H41 UNL     1       9.580   9.112  13.355  1.00  0.00     0.179 HD
ENDBRANCH   4  34
TORSDOF 9
ENDMDL