MODEL 1
REMARK VINA RESULT: -8.083418075      0.000      0.000
REMARK  10 active torsions:
REMARK  status: ('A' for Active; 'I' for Inactive)
REMARK    1  A    between atoms: C4_4  and  C5_5
REMARK    2  A    between atoms: C5_5  and  C6_7
REMARK    3  A    between atoms: C6_7  and  C7_9
REMARK    4  A    between atoms: C7_9  and  O3_10
REMARK    5  A    between atoms: C7_9  and  N1_12
REMARK    6  A    between atoms: N1_12  and  C8_14
REMARK    7  A    between atoms: C8_14  and  C9_18
REMARK    8  A    between atoms: C9_18  and  O4_19
REMARK    9  A    between atoms: N3_21  and  O5_23
REMARK   10  A    between atoms: C10_27  and  C11_28
ROOT
HETATM    1  C7  UNL     1      12.214   1.799  15.767  1.00  0.00     0.197 C
ENDROOT
BRANCH   1   2
HETATM    2  C6  UNL     1      12.595   3.168  15.418  1.00  0.00     0.274 C
HETATM    3  O2  UNL     1      13.750   3.472  15.101  1.00  0.00    -0.279 OA
BRANCH   2   4
HETATM    4  C5  UNL     1      11.537   4.228  15.434  1.00  0.00     0.248 C
HETATM    5  O1  UNL     1      10.882   4.383  16.484  1.00  0.00    -0.282 OA
BRANCH   4   6
HETATM    6  C4  UNL     1      11.277   5.014  14.252  1.00  0.00     0.065 C
HETATM    7  C3  UNL     1      11.356   6.450  14.101  1.00  0.00     0.092 C
HETATM    8  C2  UNL     1      11.354   6.903  12.633  1.00  0.00     0.126 C
HETATM    9  C1  UNL     1      10.260   7.934  12.426  1.00  0.00     0.040 C
HETATM   10  O8  UNL     1      11.207   5.964  11.699  1.00  0.00    -0.351 OA
HETATM   11  C10 UNL     1      10.818   4.702  11.999  1.00  0.00     0.324 C
HETATM   12  N4  UNL     1      11.725   4.238  13.049  1.00  0.00    -0.355 N
ATOM     13  H4  UNL     1      12.479   3.554  12.980  1.00  0.00     0.162 HD
BRANCH  11  14
HETATM   14  C11 UNL     1      10.979   3.818  10.820  1.00  0.00     0.224 C
HETATM   15  O6  UNL     1      11.974   3.908  10.096  1.00  0.00    -0.645 OA
HETATM   16  O7  UNL     1       9.967   2.859  10.561  1.00  0.00    -0.645 OA
ENDBRANCH  11  14
ENDBRANCH   4   6
ENDBRANCH   2   4
ENDBRANCH   1   2
BRANCH   1  17
HETATM   17  O3  UNL     1      11.040   1.717  16.498  1.00  0.00    -0.343 OA
ATOM     18  H3  UNL     1      10.611   0.871  16.438  1.00  0.00     0.219 HD
ENDBRANCH   1  17
BRANCH   1  19
HETATM   19  N1  UNL     1      13.164   0.812  16.010  1.00  0.00    -0.317 N
ATOM     20  H1  UNL     1      13.414   0.302  15.163  1.00  0.00     0.169 HD
BRANCH  19  21
HETATM   21  C8  UNL     1      13.868   0.342  17.141  1.00  0.00     0.154 C
HETATM   22  N2  UNL     1      13.258   0.018  18.205  1.00  0.00    -0.382 N
ATOM     23  H22 UNL     1      12.246   0.140  18.157  1.00  0.00     0.157 HD
ATOM     24  H21 UNL     1      13.766  -0.322  19.022  1.00  0.00     0.157 HD
BRANCH  21  25
HETATM   25  C9  UNL     1      15.309   0.168  17.211  1.00  0.00     0.204 C
HETATM   26  N3  UNL     1      16.108   1.139  17.183  1.00  0.00    -0.244 N
ATOM     27  H3  UNL     1      15.710   2.077  17.117  1.00  0.00     0.196 HD
BRANCH  25  28
HETATM   28  O4  UNL     1      15.810  -1.136  17.323  1.00  0.00    -0.342 OA
ATOM     29  H4  UNL     1      16.722  -1.244  17.565  1.00  0.00     0.219 HD
ENDBRANCH  25  28
BRANCH  26  30
HETATM   30  O5  UNL     1      17.480   1.032  17.236  1.00  0.00    -0.288 OA
ATOM     31  H5  UNL     1      18.063   1.691  17.595  1.00  0.00     0.244 HD
ENDBRANCH  26  30
ENDBRANCH  21  25
ENDBRANCH  19  21
ENDBRANCH   1  19
TORSDOF 10
ENDMDL