MODEL 1
REMARK VINA RESULT: -7.238922795      0.000      0.000
REMARK  11 active torsions:
REMARK  status: ('A' for Active; 'I' for Inactive)
REMARK    1  A    between atoms: C1_4  and  N2_5
REMARK    2  A    between atoms: N2_5  and  C2_7
REMARK    3  A    between atoms: C2_7  and  C3_11
REMARK    4  A    between atoms: C3_11  and  O2_13
REMARK    5  A    between atoms: O2_13  and  C4_14
REMARK    6  A    between atoms: C4_14  and  O3_15
REMARK    7  A    between atoms: O3_15  and  C5_16
REMARK    8  A    between atoms: C8_22  and  O4_23
REMARK    9  A    between atoms: O4_23  and  C9_24
REMARK   10  A    between atoms: C11_29  and  O5_30
REMARK   11  A    between atoms: C12_32  and  O6_33
ROOT
HETATM    1  C5  UNL     1      16.259   5.377  15.310  1.00  0.00     0.473 C
HETATM    2  N4  UNL     1      17.452   6.183  14.971  1.00  0.00    -0.025 N
ATOM      3  H41 UNL     1      17.829   5.987  14.044  1.00  0.00     0.283 HD
ATOM      4  H42 UNL     1      18.286   5.922  15.498  1.00  0.00     0.283 HD
HETATM    5  C6  UNL     1      17.058   7.545  15.154  1.00  0.00     0.243 C
HETATM    6  C7  UNL     1      15.627   7.710  15.618  1.00  0.00     0.088 C
HETATM    7  C8  UNL     1      14.652   6.896  14.807  1.00  0.00     0.269 C
HETATM    8  O7  UNL     1      15.240   5.701  14.450  1.00  0.00    -0.308 OA
ENDROOT
BRANCH   1   9
HETATM    9  O3  UNL     1      16.688   4.052  15.143  1.00  0.00    -0.314 OA
BRANCH   9  10
HETATM   10  C4  UNL     1      15.654   3.179  15.421  1.00  0.00     0.353 C
BRANCH  10  11
HETATM   11  O2  UNL     1      15.956   2.331  16.521  1.00  0.00    -0.289 OA
BRANCH  11  12
HETATM   12  C3  UNL     1      15.621   0.992  16.509  1.00  0.00     0.329 C
HETATM   13  O1  UNL     1      16.451   0.130  16.125  1.00  0.00    -0.256 OA
BRANCH  12  14
HETATM   14  C2  UNL     1      14.303   0.514  16.936  1.00  0.00     0.176 C
HETATM   15  N3  UNL     1      14.165  -0.265  17.958  1.00  0.00    -0.380 N
ATOM     16  H32 UNL     1      13.248  -0.599  18.255  1.00  0.00     0.157 HD
ATOM     17  H31 UNL     1      15.008  -0.540  18.462  1.00  0.00     0.157 HD
BRANCH  14  18
HETATM   18  N2  UNL     1      13.133   0.895  16.235  1.00  0.00    -0.334 N
ATOM     19  H2  UNL     1      13.196   1.242  15.277  1.00  0.00     0.168 HD
BRANCH  18  20
HETATM   20  C1  UNL     1      11.879   0.790  16.872  1.00  0.00     0.175 C
HETATM   21  N1  UNL     1      11.027   1.734  16.898  1.00  0.00    -0.395 N
ATOM     22  H12 UNL     1      11.278   2.604  16.430  1.00  0.00     0.156 HD
ATOM     23  H11 UNL     1      10.120   1.658  17.359  1.00  0.00     0.156 HD
ENDBRANCH  18  20
ENDBRANCH  14  18
ENDBRANCH  12  14
ENDBRANCH  11  12
ENDBRANCH  10  11
ENDBRANCH   9  10
ENDBRANCH   1   9
BRANCH   7  24
HETATM   24  O4  UNL     1      13.483   6.612  15.472  1.00  0.00    -0.326 OA
BRANCH  24  25
HETATM   25  C9  UNL     1      12.479   6.071  14.776  1.00  0.00     0.354 C
HETATM   26  N5  UNL     1      11.230   6.730  14.697  1.00  0.00    -0.044 N
HETATM   27  C10 UNL     1      10.326   5.755  14.094  1.00  0.00     0.269 C
ATOM     28  H52 UNL     1      10.902   7.103  15.588  1.00  0.00     0.280 HD
ATOM     29  H51 UNL     1      11.264   7.622  14.203  1.00  0.00     0.280 HD
HETATM   30  C11 UNL     1      11.019   4.417  14.146  1.00  0.00     0.176 C
HETATM   31  C12 UNL     1      12.049   4.680  15.257  1.00  0.00     0.205 C
BRANCH  30  32
HETATM   32  O5  UNL     1      10.217   3.383  14.547  1.00  0.00    -0.391 OA
ATOM     33  H5  UNL     1      10.424   2.549  14.143  1.00  0.00     0.210 HD
ENDBRANCH  30  32
BRANCH  31  34
HETATM   34  O6  UNL     1      11.337   4.733  16.435  1.00  0.00    -0.389 OA
ATOM     35  H6  UNL     1      11.039   3.875  16.713  1.00  0.00     0.210 HD
ENDBRANCH  31  34
ENDBRANCH  24  25
ENDBRANCH   7  24
TORSDOF 11
ENDMDL