MODEL 1
REMARK VINA RESULT: -9.585015662      0.000      0.000
REMARK  4 active torsions:
REMARK  status: ('A' for Active; 'I' for Inactive)
REMARK    1  A    between atoms: C6_6  and  N1_7
REMARK    2  A    between atoms: C7_10  and  C8_11
REMARK    3  A    between atoms: C15_18  and  N3_19
REMARK       I    between atoms: N3_19  and  C16_21
REMARK    4  A    between atoms: C16_21  and  C17_23
ROOT
HETATM    1  C1  UNL     1      -6.401   0.208  17.212  1.00  0.00     0.018 C
HETATM    2  C2  UNL     1      -5.711   1.041  16.679  1.00  0.00    -0.076 C
HETATM    3  C3  UNL     1      -4.908   2.041  16.029  1.00  0.00     0.032 A
HETATM    4  C4  UNL     1      -5.497   3.140  15.434  1.00  0.00     0.026 A
HETATM    5  C5  UNL     1      -4.711   4.091  14.813  1.00  0.00     0.052 A
HETATM    6  C6  UNL     1      -3.327   3.971  14.770  1.00  0.00     0.129 A
HETATM    7  N5  UNL     1      -2.783   2.913  15.345  1.00  0.00    -0.349 N
ATOM      8  H5  UNL     1      -1.768   2.809  15.325  1.00  0.00     0.167 HD
HETATM    9  C23 UNL     1      -3.528   1.960  15.964  1.00  0.00     0.110 A
ENDROOT
BRANCH   6  10
HETATM   10  N1  UNL     1      -2.582   4.996  14.109  1.00  0.00    -0.223 N
HETATM   11  N2  UNL     1      -2.816   6.312  14.224  1.00  0.00    -0.290 N
HETATM   12  C7  UNL     1      -1.930   6.986  13.469  1.00  0.00     0.062 A
ATOM     13  H2  UNL     1      -3.549   6.734  14.793  1.00  0.00     0.187 HD
HETATM   14  C14 UNL     1      -1.111   6.075  12.859  1.00  0.00     0.082 A
HETATM   15  C15 UNL     1      -1.540   4.819  13.278  1.00  0.00     0.134 A
BRANCH  12  16
HETATM   16  C8  UNL     1      -1.846   8.437  13.319  1.00  0.00    -0.008 A
HETATM   17  C9  UNL     1      -2.060   9.067  12.110  1.00  0.00     0.014 A
HETATM   18  C10 UNL     1      -1.981  10.435  11.965  1.00  0.00     0.001 A
HETATM   19  C11 UNL     1      -1.680  11.238  13.046  1.00  0.00     0.000 A
HETATM   20  C12 UNL     1      -1.467  10.612  14.252  1.00  0.00     0.001 A
HETATM   21  C13 UNL     1      -1.545   9.243  14.397  1.00  0.00     0.014 A
ENDBRANCH  12  16
BRANCH  15  22
HETATM   22  N3  UNL     1      -1.061   3.659  12.956  1.00  0.00    -0.307 N
HETATM   23  C16 UNL     1      -1.434   3.029  11.734  1.00  0.00     0.257 C
HETATM   24  O1  UNL     1      -1.025   3.570  10.678  1.00  0.00    -0.267 OA
ATOM     25  H3  UNL     1      -0.410   3.191  13.586  1.00  0.00     0.170 HD
BRANCH  23  26
HETATM   26  C17 UNL     1      -2.241   1.824  11.687  1.00  0.00     0.032 A
HETATM   27  C18 UNL     1      -1.684   0.672  11.173  1.00  0.00     0.019 A
HETATM   28  C19 UNL     1      -2.427  -0.474  11.120  1.00  0.00     0.027 A
HETATM   29  C20 UNL     1      -3.733  -0.516  11.569  1.00  0.00     0.046 A
HETATM   30  N4  UNL     1      -4.485  -1.713  11.504  1.00  0.00    -0.102 NA
HETATM   31  C21 UNL     1      -4.308   0.622  12.086  1.00  0.00     0.027 A
HETATM   32  C22 UNL     1      -3.542   1.776  12.133  1.00  0.00     0.019 A
ENDBRANCH  23  26
ENDBRANCH  15  22
ENDBRANCH   6  10
TORSDOF 4
ENDMDL