MODEL 3
REMARK VINA RESULT: -8.871457904      0.987      1.703
REMARK  6 active torsions:
REMARK  status: ('A' for Active; 'I' for Inactive)
REMARK    1  A    between atoms: C2_2  and  C3_4
REMARK    2  A    between atoms: C6_7  and  C7_8
REMARK    3  A    between atoms: C8_9  and  C9_10
REMARK    4  A    between atoms: C11_14  and  N2_15
REMARK    5  A    between atoms: N2_15  and  C12_17
REMARK    6  A    between atoms: C12_17  and  C14_19
ROOT
HETATM    1  C9  UNL     1      -4.460   4.717  10.100  1.00  0.00     0.164 A
HETATM    2  N1  UNL     1      -4.686   3.883  11.112  1.00  0.00    -0.329 N
ATOM      3  H1  UNL     1      -5.529   3.888  11.688  1.00  0.00     0.168 HD
HETATM    4  C10 UNL     1      -3.650   3.026  11.277  1.00  0.00     0.123 A
HETATM    5  C11 UNL     1      -3.411   1.999  12.166  1.00  0.00     0.133 A
HETATM    6  N3  UNL     1      -2.244   1.345  12.033  1.00  0.00    -0.337 N
ATOM      7  H3  UNL     1      -2.034   0.580  12.674  1.00  0.00     0.168 HD
HETATM    8  C20 UNL     1      -1.333   1.667  11.074  1.00  0.00     0.183 A
HETATM    9  N4  UNL     1      -1.593   2.663  10.230  1.00  0.00    -0.337 N
ATOM     10  H4  UNL     1      -0.906   2.900   9.513  1.00  0.00     0.168 HD
HETATM   11  C21 UNL     1      -2.737   3.367  10.298  1.00  0.00     0.139 A
HETATM   12  N5  UNL     1      -3.237   4.390   9.592  1.00  0.00    -0.319 N
ATOM     13  H5  UNL     1      -2.779   4.848   8.804  1.00  0.00     0.169 HD
ENDROOT
BRANCH   1  14
HETATM   14  C8  UNL     1      -5.354   5.749   9.657  1.00  0.00    -0.025 C
HETATM   15  C7  UNL     1      -6.109   6.605   9.269  1.00  0.00    -0.059 C
BRANCH  15  16
HETATM   16  C6  UNL     1      -7.024   7.626   8.779  1.00  0.00     0.018 A
HETATM   17  C5  UNL     1      -8.275   7.239   8.412  1.00  0.00     0.021 A
HETATM   18  C4  UNL     1      -9.170   8.194   7.941  1.00  0.00     0.016 A
HETATM   19  C3  UNL     1      -8.796   9.533   7.844  1.00  0.00     0.009 A
HETATM   20  C23 UNL     1      -7.530   9.924   8.217  1.00  0.00     0.016 A
HETATM   21  C22 UNL     1      -6.676   8.943   8.677  1.00  0.00     0.021 A
BRANCH  19  22
HETATM   22  C2  UNL     1      -9.734  10.516   7.354  1.00  0.00     0.155 C
HETATM   23  C1  UNL     1     -10.712  10.233   6.269  1.00  0.00     0.096 C
HETATM   24  O1  UNL     1      -9.738  11.671   7.857  1.00  0.00    -0.293 OA
ENDBRANCH  19  22
ENDBRANCH  15  16
ENDBRANCH   1  14
BRANCH   5  25
HETATM   25  N2  UNL     1      -4.264   1.688  13.074  1.00  0.00    -0.366 N
ATOM     26  H2  UNL     1      -5.222   1.502  12.779  1.00  0.00     0.161 HD
BRANCH  25  27
HETATM   27  C12 UNL     1      -3.968   1.584  14.467  1.00  0.00     0.112 C
HETATM   28  C13 UNL     1      -4.153   0.111  14.853  1.00  0.00     0.037 C
BRANCH  27  29
HETATM   29  C14 UNL     1      -4.968   2.336  15.285  1.00  0.00    -0.036 A
HETATM   30  C15 UNL     1      -5.372   3.609  15.009  1.00  0.00     0.009 A
HETATM   31  C16 UNL     1      -6.305   4.267  15.798  1.00  0.00     0.001 A
HETATM   32  C17 UNL     1      -6.831   3.614  16.882  1.00  0.00     0.000 A
HETATM   33  C18 UNL     1      -6.435   2.324  17.178  1.00  0.00     0.001 A
HETATM   34  C19 UNL     1      -5.496   1.675  16.375  1.00  0.00     0.009 A
ENDBRANCH  27  29
ENDBRANCH  25  27
ENDBRANCH   5  25
TORSDOF 6
ENDMDL