MODEL 2
REMARK VINA RESULT: -9.171231157      3.870      5.702
REMARK  6 active torsions:
REMARK  status: ('A' for Active; 'I' for Inactive)
REMARK    1  A    between atoms: C4_5  and  C5_6
REMARK    2  A    between atoms: C5_6  and  O1_7
REMARK    3  A    between atoms: C5_6  and  N2_9
REMARK    4  A    between atoms: C7_12  and  N3_13
REMARK    5  A    between atoms: N3_13  and  N4_15
REMARK       I    between atoms: N4_15  and  C8_16
REMARK    6  A    between atoms: C8_16  and  C9_18
ROOT
HETATM    1  N2  UNL     1      -1.330   2.956  11.434  1.00  0.00    -0.255 N
HETATM    2  C6  UNL     1      -2.263   3.977  11.920  1.00  0.00     0.284 A
HETATM    3  O2  UNL     1      -2.022   5.200  12.113  1.00  0.00    -0.265 OA
HETATM    4  C7  UNL     1      -3.564   3.405  12.170  1.00  0.00     0.141 A
HETATM    5  C15 UNL     1      -3.413   1.989  11.824  1.00  0.00     0.026 A
HETATM    6  C16 UNL     1      -4.338   0.966  11.907  1.00  0.00     0.016 A
HETATM    7  C17 UNL     1      -4.002  -0.322  11.581  1.00  0.00     0.001 A
HETATM    8  C18 UNL     1      -2.692  -0.535  11.169  1.00  0.00     0.002 A
HETATM    9  C19 UNL     1      -1.781   0.484  11.087  1.00  0.00     0.031 A
HETATM   10  C20 UNL     1      -2.111   1.787  11.409  1.00  0.00     0.057 A
ENDROOT
BRANCH   4  11
HETATM   11  N3  UNL     1      -4.653   3.926  12.587  1.00  0.00    -0.226 N
ATOM     12  H3  UNL     1      -5.207   4.406  11.877  1.00  0.00     0.202 HD
BRANCH  11  13
HETATM   13  N4  UNL     1      -5.173   3.935  13.817  1.00  0.00    -0.281 NA
HETATM   14  C8  UNL     1      -5.694   3.944  15.049  1.00  0.00     0.345 C
HETATM   15  O3  UNL     1      -6.174   4.926  15.726  1.00  0.00    -0.249 OA
BRANCH  14  16
HETATM   16  C9  UNL     1      -5.733   2.627  15.782  1.00  0.00     0.048 A
HETATM   17  C10 UNL     1      -4.667   1.787  15.641  1.00  0.00     0.018 A
HETATM   18  C11 UNL     1      -4.714   0.587  16.344  1.00  0.00     0.001 A
HETATM   19  C12 UNL     1      -5.796   0.263  17.148  1.00  0.00     0.000 A
HETATM   20  C13 UNL     1      -6.833   1.148  17.246  1.00  0.00     0.001 A
HETATM   21  C14 UNL     1      -6.804   2.349  16.554  1.00  0.00     0.018 A
ENDBRANCH  14  16
ENDBRANCH  11  13
ENDBRANCH   4  11
BRANCH   1  22
HETATM   22  C5  UNL     1      -0.059   3.327  11.000  1.00  0.00     0.160 C
BRANCH  22  23
HETATM   23  C4  UNL     1       0.595   3.373   9.724  1.00  0.00     0.015 A
HETATM   24  C3  UNL     1      -0.173   3.229   8.536  1.00  0.00     0.017 A
HETATM   25  C2  UNL     1       0.421   3.155   7.321  1.00  0.00     0.027 A
HETATM   26  C1  UNL     1       1.785   3.208   7.123  1.00  0.00     0.046 A
HETATM   27  N1  UNL     1       2.343   3.130   5.825  1.00  0.00    -0.102 NA
HETATM   28  C22 UNL     1       2.553   3.346   8.256  1.00  0.00     0.027 A
HETATM   29  C21 UNL     1       1.948   3.422   9.503  1.00  0.00     0.017 A
ENDBRANCH  22  23
BRANCH  22  30
HETATM   30  O1  UNL     1       0.738   3.735  11.971  1.00  0.00    -0.345 OA
ATOM     31  H1  UNL     1       0.825   3.079  12.653  1.00  0.00     0.219 HD
ENDBRANCH  22  30
ENDBRANCH   1  22
TORSDOF 6
ENDMDL