MODEL 1
REMARK VINA RESULT: -8.070205611      0.000      0.000
REMARK  6 active torsions:
REMARK  status: ('A' for Active; 'I' for Inactive)
REMARK    1  A    between atoms: C3_5  and  C4_6
REMARK    2  A    between atoms: C7_9  and  C8_10
REMARK    3  A    between atoms: C8_10  and  N2_11
REMARK    4  A    between atoms: C13_18  and  N4_19
REMARK       I    between atoms: N4_19  and  C14_21
REMARK       I    between atoms: C14_21  and  N6_27
REMARK    5  A    between atoms: N5_22  and  C15_24
REMARK    6  A    between atoms: N6_27  and  C18_29
ROOT
HETATM    1  C1  UNL     1      -3.829  -2.373  11.336  1.00  0.00     0.089 C
HETATM    2  C2  UNL     1      -3.545  -0.991  11.817  1.00  0.00     0.095 A
HETATM    3  N1  UNL     1      -2.714  -0.194  11.125  1.00  0.00    -0.331 N
ATOM      4  H1  UNL     1      -2.279  -0.535  10.268  1.00  0.00     0.168 HD
HETATM    5  C3  UNL     1      -2.453   1.065  11.561  1.00  0.00     0.132 A
HETATM    6  N3  UNL     1      -3.019   1.504  12.672  1.00  0.00    -0.175 N
ATOM      7  H3  UNL     1      -2.815   2.451  12.990  1.00  0.00     0.186 HD
HETATM    8  C13 UNL     1      -3.870   0.728  13.405  1.00  0.00     0.699 A
HETATM    9  N7  UNL     1      -4.094  -0.498  12.936  1.00  0.00    -0.180 N
ATOM     10  H7  UNL     1      -4.725  -1.100  13.462  1.00  0.00     0.185 HD
ENDROOT
BRANCH   8  11
HETATM   11  N4  UNL     1      -4.350   1.253  14.445  1.00  0.00    -0.022 N
HETATM   12  C14 UNL     1      -5.129   2.374  14.652  1.00  0.00     0.689 C
HETATM   13  N5  UNL     1      -5.947   2.343  15.686  1.00  0.00    -0.222 N
HETATM   14  N6  UNL     1      -5.176   3.572  13.903  1.00  0.00    -0.218 N
ATOM     15  H5  UNL     1      -6.538   3.155  15.867  1.00  0.00     0.178 HD
ATOM     16  H6  UNL     1      -5.846   3.626  13.136  1.00  0.00     0.178 HD
ATOM     17  H4  UNL     1      -4.117   0.751  15.302  1.00  0.00     0.203 HD
BRANCH  13  18
HETATM   18  C15 UNL     1      -6.040   1.211  16.572  1.00  0.00     0.091 C
HETATM   19  C16 UNL     1      -5.474   1.530  17.951  1.00  0.00     0.032 C
HETATM   20  C17 UNL     1      -7.505   0.871  16.762  1.00  0.00     0.032 C
ENDBRANCH  13  18
BRANCH  14  21
HETATM   21  C18 UNL     1      -4.350   4.714  14.145  1.00  0.00     0.036 C
HETATM   22  C19 UNL     1      -2.918   4.355  14.501  1.00  0.00     0.038 C
HETATM   23  C20 UNL     1      -4.287   5.559  12.891  1.00  0.00     0.038 C
HETATM   24  C21 UNL     1      -4.967   5.583  15.221  1.00  0.00     0.038 C
ENDBRANCH  14  21
ENDBRANCH   8  11
BRANCH   5  25
HETATM   25  C4  UNL     1      -1.534   1.864  10.748  1.00  0.00     0.009 A
HETATM   26  C5  UNL     1      -1.635   1.927   9.378  1.00  0.00     0.016 A
HETATM   27  C6  UNL     1      -0.779   2.672   8.590  1.00  0.00     0.010 A
HETATM   28  C7  UNL     1       0.241   3.403   9.164  1.00  0.00    -0.030 A
HETATM   29  C11 UNL     1       0.343   3.340  10.544  1.00  0.00     0.010 A
HETATM   30  C12 UNL     1      -0.510   2.598  11.332  1.00  0.00     0.016 A
BRANCH  28  31
HETATM   31  C8  UNL     1       1.209   4.226   8.384  1.00  0.00     0.309 C
BRANCH  31  32
HETATM   32  N2  UNL     1       2.204   3.463   7.697  1.00  0.00     0.084 N
HETATM   33  C9  UNL     1       3.430   3.416   8.470  1.00  0.00     0.309 C
HETATM   34  C10 UNL     1       2.509   4.162   6.460  1.00  0.00     0.309 C
ENDBRANCH  31  32
ENDBRANCH  28  31
ENDBRANCH   5  25
TORSDOF 6
ENDMDL