MODEL 4
REMARK VINA RESULT: -8.062203494      4.793      8.857
REMARK  4 active torsions:
REMARK  status: ('A' for Active; 'I' for Inactive)
REMARK    1  A    between atoms: C2_2  and  C3_3
REMARK       I    between atoms: C3_3  and  N1_5
REMARK    2  A    between atoms: N1_5  and  C4_7
REMARK    3  A    between atoms: C6_9  and  C7_10
REMARK    4  A    between atoms: C10_13  and  C11_14
ROOT
HETATM    1  C7  UNL     1      -1.390   3.635  12.221  1.00  0.00    -0.009 A
HETATM    2  C8  UNL     1      -1.334   4.179  13.480  1.00  0.00     0.014 A
HETATM    3  C9  UNL     1      -2.429   4.098  14.329  1.00  0.00     0.013 A
HETATM    4  C10 UNL     1      -3.599   3.485  13.968  1.00  0.00    -0.024 A
HETATM    5  C18 UNL     1      -3.634   2.949  12.709  1.00  0.00     0.013 A
HETATM    6  C19 UNL     1      -2.561   3.012  11.835  1.00  0.00     0.014 A
ENDROOT
BRANCH   1   7
HETATM    7  C6  UNL     1      -0.261   3.695  11.285  1.00  0.00     0.046 A
HETATM    8  C5  UNL     1      -0.382   3.399   9.945  1.00  0.00     0.079 A
HETATM    9  C4  UNL     1       0.704   3.464   9.081  1.00  0.00     0.110 A
HETATM   10  N4  UNL     1       1.891   3.822   9.575  1.00  0.00    -0.338 N
HETATM   11  C20 UNL     1       2.046   4.119  10.882  1.00  0.00     0.182 A
ATOM     12  H4  UNL     1       2.698   3.872   8.951  1.00  0.00     0.168 HD
HETATM   13  N3  UNL     1       0.965   4.048  11.706  1.00  0.00    -0.352 N
ATOM     14  H3  UNL     1       1.091   4.273  12.693  1.00  0.00     0.166 HD
BRANCH   9  15
HETATM   15  N1  UNL     1       0.541   3.183   7.860  1.00  0.00    -0.309 N
HETATM   16  C3  UNL     1       1.604   3.152   6.916  1.00  0.00     0.245 C
HETATM   17  O1  UNL     1       2.685   2.615   7.250  1.00  0.00    -0.268 OA
ATOM     18  H1  UNL     1      -0.402   2.968   7.535  1.00  0.00     0.170 HD
BRANCH  16  19
HETATM   19  C2  UNL     1       1.450   3.723   5.599  1.00  0.00     0.064 C
HETATM   20  C1  UNL     1       0.275   4.186   5.157  1.00  0.00     0.017 C
ENDBRANCH  16  19
ENDBRANCH   9  15
ENDBRANCH   1   7
BRANCH   4  21
HETATM   21  C11 UNL     1      -4.739   3.371  14.933  1.00  0.00    -0.002 A
HETATM   22  C12 UNL     1      -5.551   4.473  15.112  1.00  0.00     0.063 A
HETATM   23  S1  UNL     1      -6.650   3.975  16.298  1.00  0.00    -0.100 SA
HETATM   24  C13 UNL     1      -6.082   2.389  16.556  1.00  0.00     0.022 A
HETATM   25  C14 UNL     1      -6.482   1.325  17.389  1.00  0.00     0.037 A
HETATM   26  C17 UNL     1      -5.027   2.285  15.693  1.00  0.00     0.061 A
HETATM   27  C15 UNL     1      -5.818   0.117  17.367  1.00  0.00     0.092 A
HETATM   28  N2  UNL     1      -4.790   0.052  16.507  1.00  0.00    -0.333 N
HETATM   29  C16 UNL     1      -4.378   1.033  15.703  1.00  0.00     0.257 A
ATOM     30  H2  UNL     1      -4.276  -0.827  16.464  1.00  0.00     0.168 HD
HETATM   31  O2  UNL     1      -3.398   0.780  14.964  1.00  0.00    -0.267 OA
ENDBRANCH   4  21
TORSDOF 4
ENDMDL