MODEL 3
REMARK VINA RESULT: -7.599333960      2.147      2.942
REMARK  5 active torsions:
REMARK  status: ('A' for Active; 'I' for Inactive)
REMARK    1  A    between atoms: N1_2  and  C2_4
REMARK    2  A    between atoms: C6_10  and  C7_11
REMARK       I    between atoms: C7_11  and  N3_13
REMARK    3  A    between atoms: C8_15  and  N4_16
REMARK    4  A    between atoms: C8_15  and  C12_21
REMARK    5  A    between atoms: N4_16  and  C9_18
ROOT
HETATM    1  C7  UNL     1      -2.378   3.978  13.783  1.00  0.00     0.273 C
HETATM    2  O1  UNL     1      -1.204   4.107  14.160  1.00  0.00    -0.266 OA
HETATM    3  N3  UNL     1      -3.417   3.490  14.617  1.00  0.00    -0.307 N
ATOM      4  H3  UNL     1      -3.807   4.131  15.308  1.00  0.00     0.170 HD
HETATM    5  C8  UNL     1      -3.901   2.311  14.567  1.00  0.00     0.122 C
ENDROOT
BRANCH   1   6
HETATM    6  C6  UNL     1      -2.757   4.337  12.403  1.00  0.00     0.101 A
HETATM    7  N2  UNL     1      -2.037   3.956  11.335  1.00  0.00    -0.350 N
HETATM    8  C5  UNL     1      -2.342   4.259  10.065  1.00  0.00     0.059 A
ATOM      9  H2  UNL     1      -1.199   3.398  11.503  1.00  0.00     0.166 HD
HETATM   10  C4  UNL     1      -1.585   3.856   8.984  1.00  0.00     0.035 A
HETATM   11  C19 UNL     1      -3.482   5.018   9.827  1.00  0.00     0.060 A
HETATM   12  C3  UNL     1      -1.913   4.175   7.686  1.00  0.00     0.050 A
HETATM   13  C2  UNL     1      -3.057   4.933   7.504  1.00  0.00     0.101 A
HETATM   14  N5  UNL     1      -3.804   5.332   8.559  1.00  0.00    -0.341 N
ATOM     15  H5  UNL     1      -4.641   5.891   8.387  1.00  0.00     0.167 HD
HETATM   16  C18 UNL     1      -4.244   5.426  10.905  1.00  0.00     0.034 A
HETATM   17  C17 UNL     1      -3.901   5.099  12.182  1.00  0.00     0.037 A
BRANCH  13  18
HETATM   18  N1  UNL     1      -3.409   5.260   6.310  1.00  0.00    -0.381 N
HETATM   19  C1  UNL     1      -3.467   6.645   5.882  1.00  0.00     0.147 C
ATOM     20  H1  UNL     1      -3.653   4.526   5.646  1.00  0.00     0.160 HD
ENDBRANCH  13  18
ENDBRANCH   1   6
BRANCH   5  21
HETATM   21  N4  UNL     1      -3.412   1.368  13.636  1.00  0.00    -0.371 N
ATOM     22  H4  UNL     1      -2.409   1.205  13.551  1.00  0.00     0.161 HD
BRANCH  21  23
HETATM   23  C9  UNL     1      -4.338   0.638  12.810  1.00  0.00     0.075 C
HETATM   24  C10 UNL     1      -4.677   1.492  11.608  1.00  0.00     0.031 C
HETATM   25  C11 UNL     1      -3.811  -0.714  12.406  1.00  0.00     0.031 C
ENDBRANCH  21  23
ENDBRANCH   5  21
BRANCH   5  26
HETATM   26  C12 UNL     1      -4.976   1.981  15.511  1.00  0.00     0.054 A
HETATM   27  S1  UNL     1      -5.150   0.555  16.424  1.00  0.00    -0.098 SA
HETATM   28  C13 UNL     1      -6.599   0.919  17.248  1.00  0.00     0.051 A
HETATM   29  C14 UNL     1      -6.906   2.166  16.776  1.00  0.00     0.015 A
HETATM   30  C15 UNL     1      -6.065   2.714  15.876  1.00  0.00    -0.041 A
HETATM   31  C16 UNL     1      -6.297   4.087  15.281  1.00  0.00     0.049 C
ENDBRANCH   5  26
TORSDOF 5
ENDMDL