MODEL 5
REMARK VINA RESULT: -9.294654551      0.857      1.158
REMARK  4 active torsions:
REMARK  status: ('A' for Active; 'I' for Inactive)
REMARK    1  A    between atoms: C3_3  and  C4_4
REMARK    2  A    between atoms: C7_7  and  C8_8
REMARK    3  A    between atoms: C14_17  and  N2_18
REMARK       I    between atoms: N2_18  and  C15_20
REMARK    4  A    between atoms: C15_20  and  C16_22
ROOT
HETATM    1  C1  UNL     1      -2.711   2.880   9.762  1.00  0.00     0.056 C
HETATM    2  C2  UNL     1      -3.126   2.168  10.996  1.00  0.00     0.037 A
HETATM    3  C3  UNL     1      -3.814   2.872  11.962  1.00  0.00     0.094 A
HETATM    4  N1  UNL     1      -4.186   2.226  13.072  1.00  0.00    -0.188 N
ATOM      5  H1  UNL     1      -4.694   2.751  13.783  1.00  0.00     0.184 HD
HETATM    6  C14 UNL     1      -3.933   0.925  13.308  1.00  0.00     0.688 A
HETATM    7  N4  UNL     1      -3.262   0.238  12.367  1.00  0.00    -0.155 N
ATOM      8  H4  UNL     1      -3.056  -0.749  12.520  1.00  0.00     0.187 HD
HETATM    9  C21 UNL     1      -2.858   0.824  11.229  1.00  0.00     0.267 A
HETATM   10  O3  UNL     1      -2.231   0.196  10.340  1.00  0.00    -0.267 OA
ENDROOT
BRANCH   3  11
HETATM   11  C4  UNL     1      -4.109   4.280  11.746  1.00  0.00     0.104 A
HETATM   12  C5  UNL     1      -3.420   5.316  12.357  1.00  0.00     0.042 A
HETATM   13  C6  UNL     1      -3.979   6.494  11.912  1.00  0.00     0.041 A
HETATM   14  C7  UNL     1      -4.989   6.132  11.046  1.00  0.00     0.086 A
HETATM   15  O1  UNL     1      -5.001   4.840  11.004  1.00  0.00    -0.308 OA
BRANCH  14  16
HETATM   16  C8  UNL     1      -5.848   7.094  10.340  1.00  0.00    -0.002 A
HETATM   17  C9  UNL     1      -6.848   6.669   9.494  1.00  0.00     0.014 A
HETATM   18  C10 UNL     1      -7.668   7.548   8.820  1.00  0.00     0.001 A
HETATM   19  C11 UNL     1      -7.487   8.902   8.995  1.00  0.00     0.000 A
HETATM   20  C12 UNL     1      -6.492   9.352   9.838  1.00  0.00     0.001 A
HETATM   21  C13 UNL     1      -5.680   8.452  10.504  1.00  0.00     0.014 A
ENDBRANCH  14  16
ENDBRANCH   3  11
BRANCH   6  22
HETATM   22  N2  UNL     1      -4.322   0.345  14.412  1.00  0.00    -0.155 N
HETATM   23  C15 UNL     1      -4.005   0.991  15.630  1.00  0.00     0.270 C
HETATM   24  O2  UNL     1      -2.857   0.955  16.139  1.00  0.00    -0.267 OA
ATOM     25  H2  UNL     1      -4.833  -0.538  14.397  1.00  0.00     0.187 HD
BRANCH  23  26
HETATM   26  C16 UNL     1      -5.044   1.731  16.330  1.00  0.00     0.035 A
HETATM   27  C17 UNL     1      -5.483   1.326  17.575  1.00  0.00     0.034 A
HETATM   28  C18 UNL     1      -6.462   2.051  18.198  1.00  0.00     0.088 A
HETATM   29  N3  UNL     1      -7.003   3.142  17.629  1.00  0.00    -0.375 N
HETATM   30  C19 UNL     1      -6.579   3.543  16.413  1.00  0.00     0.088 A
ATOM     31  H3  UNL     1      -7.732   3.665  18.115  1.00  0.00     0.164 HD
HETATM   32  C20 UNL     1      -5.603   2.844  15.760  1.00  0.00     0.034 A
ENDBRANCH  23  26
ENDBRANCH   6  22
TORSDOF 4
ENDMDL