MODEL 1
REMARK VINA RESULT: -8.855170596      0.000      0.000
REMARK  4 active torsions:
REMARK  status: ('A' for Active; 'I' for Inactive)
REMARK    1  A    between atoms: C4_6  and  N2_7
REMARK    2  A    between atoms: N2_7  and  C5_9
REMARK    3  A    between atoms: C10_18  and  C11_19
REMARK       I    between atoms: N5_24  and  C16_26
REMARK    4  A    between atoms: C16_26  and  C17_28
ROOT
HETATM    1  C1  UNL     1      -1.547   2.168   9.411  1.00  0.00     0.052 C
HETATM    2  C2  UNL     1      -2.301   3.394   9.181  1.00  0.00    -0.017 A
HETATM    3  C3  UNL     1      -2.400   3.793   7.824  1.00  0.00     0.115 A
HETATM    4  N1  UNL     1      -3.088   4.873   7.481  1.00  0.00    -0.201 N
ATOM      5  H1  UNL     1      -3.164   5.166   6.508  1.00  0.00     0.183 HD
HETATM    6  C4  UNL     1      -3.679   5.562   8.466  1.00  0.00     0.684 A
HETATM    7  N4  UNL     1      -3.591   5.197   9.740  1.00  0.00    -0.189 N
ATOM      8  H4  UNL     1      -4.066   5.768  10.439  1.00  0.00     0.184 HD
HETATM    9  C10 UNL     1      -2.893   4.087  10.167  1.00  0.00     0.083 A
ENDROOT
BRANCH   9  10
HETATM   10  C11 UNL     1      -2.886   3.783  11.576  1.00  0.00     0.061 A
HETATM   11  C12 UNL     1      -2.226   4.716  12.405  1.00  0.00     0.032 A
HETATM   12  C13 UNL     1      -2.142   4.634  13.751  1.00  0.00     0.006 A
HETATM   13  C14 UNL     1      -2.738   3.566  14.379  1.00  0.00     0.049 A
HETATM   14  C15 UNL     1      -3.378   2.656  13.591  1.00  0.00     0.108 A
HETATM   15  N5  UNL     1      -3.959   1.623  14.149  1.00  0.00    -0.309 N
HETATM   16  N6  UNL     1      -3.439   2.778  12.230  1.00  0.00    -0.341 N
HETATM   17  C16 UNL     1      -3.922   1.458  15.542  1.00  0.00     0.257 C
ATOM     18  H5  UNL     1      -4.440   0.936  13.569  1.00  0.00     0.170 HD
HETATM   19  O1  UNL     1      -2.979   0.863  16.129  1.00  0.00    -0.267 OA
ATOM     20  H6  UNL     1      -3.932   2.062  11.697  1.00  0.00     0.167 HD
BRANCH  17  21
HETATM   21  C17 UNL     1      -5.002   1.984  16.362  1.00  0.00     0.032 A
HETATM   22  C18 UNL     1      -5.253   1.465  17.615  1.00  0.00     0.017 A
HETATM   23  C19 UNL     1      -6.254   1.934  18.406  1.00  0.00     0.001 A
HETATM   24  C20 UNL     1      -7.080   2.971  17.985  1.00  0.00     0.000 A
HETATM   25  C21 UNL     1      -6.837   3.498  16.732  1.00  0.00     0.001 A
HETATM   26  C22 UNL     1      -5.819   3.015  15.937  1.00  0.00     0.017 A
ENDBRANCH  17  21
ENDBRANCH   9  10
BRANCH   6  27
HETATM   27  N2  UNL     1      -4.345   6.608   8.132  1.00  0.00    -0.176 N
ATOM     28  H2  UNL     1      -4.233   7.018   7.205  1.00  0.00     0.186 HD
BRANCH  27  29
HETATM   29  C5  UNL     1      -5.237   7.185   9.064  1.00  0.00     0.120 A
HETATM   30  C6  UNL     1      -4.924   8.418   9.587  1.00  0.00     0.049 A
HETATM   31  C7  UNL     1      -5.766   9.000  10.489  1.00  0.00     0.005 A
HETATM   32  C8  UNL     1      -6.914   8.300  10.835  1.00  0.00     0.017 A
HETATM   33  C9  UNL     1      -7.193   7.063  10.286  1.00  0.00     0.089 A
HETATM   34  N3  UNL     1      -6.350   6.526   9.411  1.00  0.00    -0.352 N
ATOM     35  H3  UNL     1      -6.550   5.613   9.004  1.00  0.00     0.166 HD
ENDBRANCH  27  29
ENDBRANCH   6  27
TORSDOF 4
ENDMDL