MODEL 5
REMARK VINA RESULT: -8.590443736      2.620      6.691
REMARK  3 active torsions:
REMARK  status: ('A' for Active; 'I' for Inactive)
REMARK       I    between atoms: C2_2  and  N1_4
REMARK       I    between atoms: C3_6  and  N2_7
REMARK       I    between atoms: C3_6  and  N3_22
REMARK       I    between atoms: N2_7  and  C4_9
REMARK    1  A    between atoms: C4_9  and  C5_11
REMARK    2  A    between atoms: C8_15  and  C9_16
REMARK       I    between atoms: N3_22  and  C15_24
REMARK    3  A    between atoms: C15_24  and  C16_26
ROOT
HETATM    1  C1  UNL     1      -0.729   2.222   8.951  1.00  0.00     0.118 C
HETATM    2  C2  UNL     1      -1.852   3.298   8.979  1.00  0.00     0.231 C
HETATM    3  O1  UNL     1      -2.018   3.789   7.854  1.00  0.00    -0.273 OA
HETATM    4  N1  UNL     1      -2.501   3.574  10.172  1.00  0.00    -0.160 N
ATOM      5  H1  UNL     1      -2.105   2.979  10.901  1.00  0.00     0.187 HD
HETATM    6  C3  UNL     1      -3.468   4.345  10.725  1.00  0.00     0.690 C
HETATM    7  N2  UNL     1      -3.698   4.166  12.087  1.00  0.00    -0.155 N
ATOM      8  H2  UNL     1      -4.415   4.719  12.557  1.00  0.00     0.187 HD
HETATM    9  C4  UNL     1      -2.949   3.228  12.816  1.00  0.00     0.272 C
HETATM   10  O2  UNL     1      -1.881   3.632  13.285  1.00  0.00    -0.267 OA
HETATM   11  N3  UNL     1      -4.334   5.320  10.252  1.00  0.00    -0.155 N
ATOM     12  H3  UNL     1      -4.923   5.666  11.009  1.00  0.00     0.187 HD
HETATM   13  C15 UNL     1      -4.644   5.967   9.073  1.00  0.00     0.270 C
HETATM   14  O4  UNL     1      -4.124   5.793   7.975  1.00  0.00    -0.267 OA
ENDROOT
BRANCH   9  15
HETATM   15  C5  UNL     1      -3.445   1.889  12.976  1.00  0.00     0.069 A
HETATM   16  C6  UNL     1      -3.177   0.876  12.022  1.00  0.00     0.044 A
HETATM   17  C7  UNL     1      -3.884  -0.243  12.375  1.00  0.00     0.143 A
HETATM   18  O3  UNL     1      -4.529   0.038  13.443  1.00  0.00    -0.321 OA
HETATM   19  C8  UNL     1      -4.307   1.299  13.859  1.00  0.00     0.101 A
BRANCH  19  20
HETATM   20  C9  UNL     1      -4.964   1.774  15.055  1.00  0.00    -0.001 A
HETATM   21  C10 UNL     1      -5.732   2.881  15.156  1.00  0.00     0.014 A
HETATM   22  C11 UNL     1      -6.413   3.239  16.321  1.00  0.00     0.001 A
HETATM   23  C12 UNL     1      -6.328   2.467  17.442  1.00  0.00     0.000 A
HETATM   24  C13 UNL     1      -5.552   1.333  17.380  1.00  0.00     0.001 A
HETATM   25  C14 UNL     1      -4.891   0.994  16.229  1.00  0.00     0.014 A
ENDBRANCH  19  20
ENDBRANCH   9  15
BRANCH  13  26
HETATM   26  C16 UNL     1      -5.731   7.012   9.064  1.00  0.00     0.035 A
HETATM   27  C17 UNL     1      -5.446   8.306   8.721  1.00  0.00     0.034 A
HETATM   28  C18 UNL     1      -6.401   9.300   8.686  1.00  0.00     0.088 A
HETATM   29  N4  UNL     1      -7.661   8.938   9.011  1.00  0.00    -0.375 N
HETATM   30  C19 UNL     1      -7.965   7.680   9.349  1.00  0.00     0.088 A
ATOM     31  H4  UNL     1      -8.399   9.642   8.999  1.00  0.00     0.164 HD
HETATM   32  C20 UNL     1      -7.020   6.668   9.389  1.00  0.00     0.034 A
ENDBRANCH  13  26
TORSDOF 3
ENDMDL