MODEL 3
REMARK VINA RESULT: -7.960446276      3.092      7.585
REMARK  5 active torsions:
REMARK  status: ('A' for Active; 'I' for Inactive)
REMARK    1  A    between atoms: C2_2  and  C15_26
REMARK    2  A    between atoms: N1_3  and  N2_5
REMARK    3  A    between atoms: N2_5  and  C3_7
REMARK    4  A    between atoms: C3_7  and  N3_9
REMARK    5  A    between atoms: N6_19  and  C9_20
ROOT
HETATM    1  N3  UNL     1      -1.969   4.705  12.405  1.00  0.00    -0.315 N
ATOM      2  H3  UNL     1      -1.431   5.218  13.103  1.00  0.00     0.170 HD
HETATM    3  C4  UNL     1      -2.929   5.335  11.891  1.00  0.00     0.152 A
HETATM    4  C5  UNL     1      -3.819   4.925  10.943  1.00  0.00     0.114 A
HETATM    5  C6  UNL     1      -3.900   3.672  10.280  1.00  0.00     0.105 C
HETATM    6  N4  UNL     1      -3.982   2.669   9.734  1.00  0.00    -0.191 NA
HETATM    7  C7  UNL     1      -4.679   5.983  10.715  1.00  0.00     0.047 A
HETATM    8  C8  UNL     1      -5.831   6.081   9.786  1.00  0.00     0.071 C
HETATM    9  N5  UNL     1      -4.287   6.985  11.521  1.00  0.00    -0.295 N
ATOM     10  H5  UNL     1      -4.734   7.900  11.575  1.00  0.00     0.187 HD
HETATM   11  N6  UNL     1      -3.240   6.613  12.233  1.00  0.00    -0.238 N
ENDROOT
BRANCH   1  12
HETATM   12  C3  UNL     1      -1.538   3.399  12.152  1.00  0.00     0.192 C
HETATM   13  S1  UNL     1      -0.175   3.098  11.316  1.00  0.00    -0.039 SA
BRANCH  12  14
HETATM   14  N2  UNL     1      -2.313   2.314  12.633  1.00  0.00    -0.276 N
ATOM     15  H2  UNL     1      -2.238   1.417  12.153  1.00  0.00     0.189 HD
BRANCH  14  16
HETATM   16  N1  UNL     1      -3.174   2.408  13.728  1.00  0.00    -0.302 N
HETATM   17  C2  UNL     1      -3.972   1.465  14.056  1.00  0.00     0.032 C
HETATM   18  C1  UNL     1      -4.012   0.216  13.269  1.00  0.00     0.070 C
ATOM     19  H1  UNL     1      -3.166   3.261  14.288  1.00  0.00     0.186 HD
BRANCH  17  20
HETATM   20  C15 UNL     1      -4.850   1.609  15.205  1.00  0.00    -0.010 A
HETATM   21  C16 UNL     1      -5.625   2.739  15.365  1.00  0.00     0.030 A
HETATM   22  C17 UNL     1      -6.438   2.819  16.476  1.00  0.00     0.088 A
HETATM   23  N7  UNL     1      -6.490   1.852  17.379  1.00  0.00    -0.375 N
HETATM   24  C18 UNL     1      -5.751   0.735  17.261  1.00  0.00     0.088 A
ATOM     25  H7  UNL     1      -7.106   1.958  18.185  1.00  0.00     0.164 HD
HETATM   26  C19 UNL     1      -4.924   0.610  16.167  1.00  0.00     0.030 A
ENDBRANCH  17  20
ENDBRANCH  14  16
ENDBRANCH  12  14
ENDBRANCH   1  12
BRANCH  11  27
HETATM   27  C9  UNL     1      -2.582   7.439  13.181  1.00  0.00     0.058 A
HETATM   28  C10 UNL     1      -2.628   7.228  14.550  1.00  0.00     0.031 A
HETATM   29  C11 UNL     1      -1.971   8.060  15.437  1.00  0.00     0.002 A
HETATM   30  C12 UNL     1      -1.244   9.135  14.978  1.00  0.00     0.000 A
HETATM   31  C13 UNL     1      -1.189   9.361  13.605  1.00  0.00     0.002 A
HETATM   32  C14 UNL     1      -1.856   8.514  12.736  1.00  0.00     0.031 A
ENDBRANCH  11  27
TORSDOF 5
ENDMDL