MODEL 1
REMARK VINA RESULT: -7.682068777      0.000      0.000
REMARK  3 active torsions:
REMARK  status: ('A' for Active; 'I' for Inactive)
REMARK       I    between atoms: C3_3  and  N1_5
REMARK    1  A    between atoms: N1_5  and  C4_7
REMARK    2  A    between atoms: C7_10  and  C8_11
REMARK    3  A    between atoms: N3_19  and  C12_20
ROOT
HETATM    1  C1  UNL     1       7.085   4.026   6.418  1.00  0.00     0.022 C
HETATM    2  C2  UNL     1       6.144   3.794   7.145  1.00  0.00    -0.016 C
HETATM    3  C3  UNL     1       5.012   3.495   8.002  1.00  0.00     0.300 C
HETATM    4  O1  UNL     1       4.785   2.310   8.324  1.00  0.00    -0.258 OA
HETATM    5  N1  UNL     1       4.215   4.550   8.439  1.00  0.00    -0.316 N
ATOM      6  H1  UNL     1       4.496   5.475   8.115  1.00  0.00     0.170 HD
ENDROOT
BRANCH   5   7
HETATM    7  C4  UNL     1       3.075   4.517   9.265  1.00  0.00     0.035 A
HETATM    8  C5  UNL     1       3.196   4.200  10.628  1.00  0.00     0.030 A
HETATM    9  C6  UNL     1       2.127   4.158  11.475  1.00  0.00     0.013 A
HETATM   10  C7  UNL     1       0.862   4.423  11.040  1.00  0.00    -0.035 A
HETATM   11  C19 UNL     1       0.699   4.739   9.705  1.00  0.00     0.013 A
HETATM   12  C20 UNL     1       1.794   4.780   8.854  1.00  0.00     0.030 A
BRANCH  10  13
HETATM   13  C8  UNL     1      -0.298   4.370  11.900  1.00  0.00     0.034 C
HETATM   14  C9  UNL     1      -1.145   3.381  12.027  1.00  0.00     0.101 A
HETATM   15  C10 UNL     1      -1.075   2.131  11.301  1.00  0.00     0.263 A
HETATM   16  C18 UNL     1      -2.247   3.512  13.019  1.00  0.00     0.270 A
HETATM   17  O2  UNL     1      -0.203   1.881  10.428  1.00  0.00    -0.267 OA
HETATM   18  N2  UNL     1      -2.043   1.115  11.570  1.00  0.00    -0.299 N
HETATM   19  C11 UNL     1      -3.070   1.299  12.530  1.00  0.00     0.188 A
ATOM     20  H2  UNL     1      -1.994   0.234  11.059  1.00  0.00     0.171 HD
HETATM   21  S1  UNL     1      -4.152   0.113  12.806  1.00  0.00    -0.040 SA
HETATM   22  N3  UNL     1      -3.194   2.503  13.275  1.00  0.00    -0.254 N
HETATM   23  O3  UNL     1      -2.352   4.582  13.678  1.00  0.00    -0.266 OA
BRANCH  22  24
HETATM   24  C12 UNL     1      -4.235   2.664  14.239  1.00  0.00     0.045 A
HETATM   25  C13 UNL     1      -4.140   2.130  15.513  1.00  0.00     0.030 A
HETATM   26  C14 UNL     1      -5.149   2.285  16.444  1.00  0.00     0.002 A
HETATM   27  C15 UNL     1      -6.297   2.983  16.137  1.00  0.00     0.000 A
HETATM   28  C16 UNL     1      -6.403   3.520  14.868  1.00  0.00     0.002 A
HETATM   29  C17 UNL     1      -5.386   3.361  13.938  1.00  0.00     0.030 A
ENDBRANCH  22  24
ENDBRANCH  10  13
ENDBRANCH   5   7
TORSDOF 3
ENDMDL