MODEL 2
REMARK VINA RESULT: -8.402139145      0.069      1.261
REMARK  5 active torsions:
REMARK  status: ('A' for Active; 'I' for Inactive)
REMARK    1  A    between atoms: O1_2  and  C2_3
REMARK    2  A    between atoms: C5_6  and  C6_7
REMARK    3  A    between atoms: C8_10  and  N1_11
REMARK       I    between atoms: N1_11  and  C9_13
REMARK       I    between atoms: C9_13  and  N2_15
REMARK    4  A    between atoms: N2_15  and  C10_17
REMARK    5  A    between atoms: N4_22  and  C13_23
ROOT
HETATM    1  N1  UNL     1      -2.199   5.422  14.180  1.00  0.00    -0.288 N
ATOM      2  H1  UNL     1      -2.149   5.764  15.139  1.00  0.00     0.172 HD
HETATM    3  C9  UNL     1      -1.860   4.092  13.897  1.00  0.00     0.340 C
HETATM    4  O2  UNL     1      -0.868   3.884  13.146  1.00  0.00    -0.246 OA
HETATM    5  N2  UNL     1      -2.607   3.009  14.435  1.00  0.00    -0.140 N
ATOM      6  H2  UNL     1      -2.807   2.990  15.434  1.00  0.00     0.189 HD
ENDROOT
BRANCH   1   7
HETATM    7  C8  UNL     1      -2.580   6.233  13.217  1.00  0.00     0.152 A
HETATM    8  S1  UNL     1      -1.777   7.585  12.575  1.00  0.00    -0.063 SA
HETATM    9  C7  UNL     1      -2.940   8.032  11.406  1.00  0.00     0.083 A
HETATM   10  C6  UNL     1      -3.914   7.074  11.588  1.00  0.00     0.051 A
HETATM   11  N5  UNL     1      -3.704   6.179  12.510  1.00  0.00    -0.335 N
ATOM     12  H5  UNL     1      -4.393   5.448  12.688  1.00  0.00     0.168 HD
BRANCH  10  13
HETATM   13  C5  UNL     1      -5.132   7.116  10.734  1.00  0.00    -0.009 A
HETATM   14  C4  UNL     1      -5.048   6.756   9.422  1.00  0.00     0.016 A
HETATM   15  C3  UNL     1      -6.172   6.787   8.603  1.00  0.00     0.037 A
HETATM   16  C2  UNL     1      -7.395   7.177   9.083  1.00  0.00     0.068 A
HETATM   17  C20 UNL     1      -7.490   7.544  10.406  1.00  0.00     0.037 A
HETATM   18  C19 UNL     1      -6.351   7.507  11.218  1.00  0.00     0.016 A
BRANCH  16  19
HETATM   19  O1  UNL     1      -8.511   7.200   8.238  1.00  0.00    -0.356 OA
HETATM   20  C1  UNL     1      -9.112   8.419   7.849  1.00  0.00     0.210 C
ENDBRANCH  16  19
ENDBRANCH  10  13
ENDBRANCH   1   7
BRANCH   5  21
HETATM   21  C10 UNL     1      -3.042   2.037  13.678  1.00  0.00     0.693 A
HETATM   22  N3  UNL     1      -2.538   1.650  12.495  1.00  0.00    -0.200 N
HETATM   23  C11 UNL     1      -3.297   0.614  12.076  1.00  0.00     0.124 A
ATOM     24  H3  UNL     1      -1.739   2.057  12.010  1.00  0.00     0.183 HD
HETATM   25  C12 UNL     1      -4.265   0.387  13.029  1.00  0.00     0.133 A
HETATM   26  N4  UNL     1      -4.104   1.275  14.027  1.00  0.00    -0.157 N
BRANCH  26  27
HETATM   27  C13 UNL     1      -4.881   1.407  15.219  1.00  0.00     0.056 A
HETATM   28  C14 UNL     1      -5.730   2.486  15.347  1.00  0.00     0.030 A
HETATM   29  C15 UNL     1      -6.502   2.651  16.490  1.00  0.00     0.002 A
HETATM   30  C16 UNL     1      -6.448   1.750  17.524  1.00  0.00     0.000 A
HETATM   31  C17 UNL     1      -5.603   0.667  17.407  1.00  0.00     0.002 A
HETATM   32  C18 UNL     1      -4.827   0.502  16.259  1.00  0.00     0.030 A
ENDBRANCH  26  27
ENDBRANCH   5  21
TORSDOF 5
ENDMDL