MODEL 1
REMARK VINA RESULT: -8.404824482      0.000      0.000
REMARK  6 active torsions:
REMARK  status: ('A' for Active; 'I' for Inactive)
REMARK    1  A    between atoms: C5_7  and  N2_8
REMARK    2  A    between atoms: N2_8  and  C6_9
REMARK    3  A    between atoms: C6_9  and  O1_10
REMARK    4  A    between atoms: C6_9  and  C7_12
REMARK    5  A    between atoms: C8_15  and  C9_16
REMARK    6  A    between atoms: C18_26  and  C19_27
ROOT
HETATM    1  C9  UNL     1      -5.112   3.633  14.957  1.00  0.00    -0.008 A
HETATM    2  C10 UNL     1      -6.052   4.401  15.589  1.00  0.00     0.014 A
HETATM    3  C11 UNL     1      -6.861   3.885  16.612  1.00  0.00     0.002 A
HETATM    4  C12 UNL     1      -6.745   2.582  17.026  1.00  0.00     0.023 A
HETATM    5  C13 UNL     1      -5.805   1.799  16.401  1.00  0.00     0.045 A
HETATM    6  C14 UNL     1      -5.674   0.437  16.821  1.00  0.00     0.099 C
HETATM    7  N4  UNL     1      -5.590  -0.654  17.160  1.00  0.00    -0.191 NA
HETATM    8  C15 UNL     1      -5.010   2.306  15.396  1.00  0.00     0.036 A
ENDROOT
BRANCH   1   9
HETATM    9  C8  UNL     1      -4.250   4.116  13.892  1.00  0.00     0.043 A
HETATM   10  N3  UNL     1      -4.658   4.229  12.628  1.00  0.00    -0.350 N
HETATM   11  C7  UNL     1      -3.841   4.686  11.626  1.00  0.00     0.111 A
ATOM     12  H3  UNL     1      -5.616   3.965  12.397  1.00  0.00     0.166 HD
HETATM   13  C18 UNL     1      -2.573   5.037  11.867  1.00  0.00     0.023 A
HETATM   14  C17 UNL     1      -2.096   4.937  13.207  1.00  0.00     0.018 A
HETATM   15  C16 UNL     1      -2.959   4.477  14.173  1.00  0.00     0.031 A
BRANCH  11  16
HETATM   16  C6  UNL     1      -4.462   4.868  10.284  1.00  0.00     0.246 C
BRANCH  16  17
HETATM   17  N2  UNL     1      -5.282   5.784   9.927  1.00  0.00    -0.344 NA
BRANCH  17  18
HETATM   18  C5  UNL     1      -6.050   6.645   9.595  1.00  0.00     0.261 A
HETATM   19  N1  UNL     1      -7.175   6.330   8.881  1.00  0.00    -0.326 N
HETATM   20  C4  UNL     1      -8.006   7.303   8.503  1.00  0.00     0.094 A
ATOM     21  H1  UNL     1      -7.377   5.360   8.640  1.00  0.00     0.169 HD
HETATM   22  C3  UNL     1      -7.753   8.620   8.818  1.00  0.00     0.041 A
HETATM   23  C2  UNL     1      -6.624   8.948   9.536  1.00  0.00     0.010 A
HETATM   24  C1  UNL     1      -6.381  10.384   9.862  1.00  0.00     0.068 C
HETATM   25  N6  UNL     1      -5.800   7.977   9.909  1.00  0.00    -0.320 N
ATOM     26  H6  UNL     1      -4.962   8.213  10.441  1.00  0.00     0.169 HD
ENDBRANCH  17  18
ENDBRANCH  16  17
BRANCH  16  27
HETATM   27  O1  UNL     1      -4.114   3.974   9.395  1.00  0.00    -0.334 OA
ATOM     28  H1  UNL     1      -3.633   4.268   8.630  1.00  0.00     0.220 HD
ENDBRANCH  16  27
ENDBRANCH  11  16
BRANCH  13  29
HETATM   29  C19 UNL     1      -1.540   5.278  10.891  1.00  0.00     0.044 A
HETATM   30  C20 UNL     1      -0.991   6.388  10.316  1.00  0.00     0.032 A
HETATM   31  C21 UNL     1      -0.146   6.000   9.295  1.00  0.00     0.019 A
HETATM   32  C22 UNL     1      -0.176   4.629   9.241  1.00  0.00     0.088 A
HETATM   33  N5  UNL     1      -1.003   4.224  10.188  1.00  0.00    -0.365 N
ATOM     34  H5  UNL     1      -1.218   3.245  10.376  1.00  0.00     0.165 HD
ENDBRANCH  13  29
ENDBRANCH   1   9
TORSDOF 6
ENDMDL