MODEL 2
REMARK VINA RESULT: -8.962074835      0.571      1.176
REMARK  5 active torsions:
REMARK  status: ('A' for Active; 'I' for Inactive)
REMARK    1  A    between atoms: C3_3  and  N1_4
REMARK    2  A    between atoms: N1_4  and  C4_6
REMARK    3  A    between atoms: C5_9  and  C6_10
REMARK    4  A    between atoms: C9_13  and  C10_14
REMARK    5  A    between atoms: N5_26  and  O1_27
ROOT
HETATM    1  C1  UNL     1      -6.379   2.659  18.421  1.00  0.00     0.014 C
HETATM    2  C2  UNL     1      -6.203   1.670  17.754  1.00  0.00    -0.097 C
HETATM    3  C3  UNL     1      -5.967   0.466  16.923  1.00  0.00     0.231 C
ENDROOT
BRANCH   3   4
HETATM    4  N1  UNL     1      -4.577   0.418  16.521  1.00  0.00    -0.216 N
ATOM      5  H1  UNL     1      -3.902  -0.065  17.113  1.00  0.00     0.178 HD
BRANCH   4   6
HETATM    6  C4  UNL     1      -4.173   0.979  15.418  1.00  0.00     0.679 A
HETATM    7  N2  UNL     1      -3.752   2.244  15.361  1.00  0.00    -0.189 N
HETATM    8  C5  UNL     1      -3.339   2.782  14.174  1.00  0.00     0.090 A
ATOM      9  H2  UNL     1      -3.740   2.813  16.207  1.00  0.00     0.184 HD
HETATM   10  C18 UNL     1      -3.341   2.057  13.002  1.00  0.00     0.021 A
HETATM   11  C19 UNL     1      -2.963   2.564  11.782  1.00  0.00     0.016 A
HETATM   12  C23 UNL     1      -3.786   0.734  13.089  1.00  0.00     0.061 A
HETATM   13  C20 UNL     1      -3.002   1.801  10.608  1.00  0.00     0.001 A
HETATM   14  C21 UNL     1      -3.442   0.500  10.732  1.00  0.00     0.002 A
HETATM   15  C22 UNL     1      -3.828  -0.028  11.946  1.00  0.00     0.031 A
HETATM   16  N6  UNL     1      -4.176   0.266  14.285  1.00  0.00    -0.191 N
ATOM     17  H6  UNL     1      -4.498  -0.701  14.334  1.00  0.00     0.184 HD
BRANCH   8  18
HETATM   18  C6  UNL     1      -2.898   4.170  14.130  1.00  0.00     0.090 A
HETATM   19  C7  UNL     1      -3.820   5.220  14.130  1.00  0.00     0.035 A
HETATM   20  C8  UNL     1      -3.432   6.541  14.148  1.00  0.00     0.019 A
HETATM   21  C9  UNL     1      -2.090   6.851  14.165  1.00  0.00     0.026 A
HETATM   22  C17 UNL     1      -1.203   5.816  14.165  1.00  0.00     0.138 A
HETATM   23  N5  UNL     1      -1.605   4.514  14.148  1.00  0.00    -0.233 N
BRANCH  21  24
HETATM   24  C10 UNL     1      -1.651   8.253  14.183  1.00  0.00     0.118 A
HETATM   25  N3  UNL     1      -2.300   9.304  13.705  1.00  0.00    -0.340 N
HETATM   26  C11 UNL     1      -1.598  10.447  13.894  1.00  0.00     0.060 A
ATOM     27  H3  UNL     1      -3.212   9.258  13.252  1.00  0.00     0.167 HD
HETATM   28  C12 UNL     1      -1.830  11.763  13.588  1.00  0.00     0.032 A
HETATM   29  C16 UNL     1      -0.437  10.022  14.542  1.00  0.00     0.060 A
HETATM   30  C13 UNL     1      -0.910  12.727  13.914  1.00  0.00     0.002 A
HETATM   31  C14 UNL     1       0.244  12.342  14.552  1.00  0.00     0.002 A
HETATM   32  C15 UNL     1       0.458  11.022  14.851  1.00  0.00     0.032 A
HETATM   33  N4  UNL     1      -0.493   8.693  14.705  1.00  0.00    -0.340 N
ATOM     34  H4  UNL     1       0.221   8.115  15.150  1.00  0.00     0.167 HD
ENDBRANCH  21  24
BRANCH  23  35
HETATM   35  O1  UNL     1      -0.631   3.524  14.205  1.00  0.00    -0.283 OA
ATOM     36  H1  UNL     1       0.062   3.583  14.853  1.00  0.00     0.245 HD
ENDBRANCH  23  35
ENDBRANCH   8  18
ENDBRANCH   4   6
ENDBRANCH   3   4
TORSDOF 5
ENDMDL