MODEL 2
REMARK VINA RESULT: -9.231816190      1.546      8.726
REMARK  4 active torsions:
REMARK  status: ('A' for Active; 'I' for Inactive)
REMARK    1  A    between atoms: C5_9  and  C6_10
REMARK    2  A    between atoms: C6_10  and  C7_11
REMARK    3  A    between atoms: C14_19  and  C15_20
REMARK       I    between atoms: C15_20  and  N4_22
REMARK    4  A    between atoms: N4_22  and  C16_24
ROOT
HETATM    1  C1  UNL     1      -2.282   1.280  11.457  1.00  0.00     0.070 C
HETATM    2  C2  UNL     1      -1.290   2.319  11.168  1.00  0.00     0.040 A
HETATM    3  N1  UNL     1      -0.367   2.166  10.171  1.00  0.00    -0.194 N
ATOM      4  H1  UNL     1      -0.375   1.306   9.622  1.00  0.00     0.184 HD
HETATM    5  C3  UNL     1       0.551   3.104   9.887  1.00  0.00     0.689 A
HETATM    6  N2  UNL     1       1.544   3.189   8.976  1.00  0.00    -0.199 N
ATOM      7  H2  UNL     1       1.770   2.471   8.287  1.00  0.00     0.183 HD
HETATM    8  C4  UNL     1       2.182   4.346   9.107  1.00  0.00     0.132 A
HETATM    9  C5  UNL     1       1.568   5.042  10.156  1.00  0.00     0.054 A
HETATM   10  N3  UNL     1       0.587   4.245  10.593  1.00  0.00    -0.159 N
HETATM   11  C13 UNL     1      -0.298   4.421  11.568  1.00  0.00     0.134 A
HETATM   12  C14 UNL     1      -1.265   3.472  11.894  1.00  0.00     0.072 A
ENDROOT
BRANCH  12  13
HETATM   13  C15 UNL     1      -2.182   3.736  12.956  1.00  0.00     0.273 C
HETATM   14  O1  UNL     1      -3.209   4.475  12.725  1.00  0.00    -0.267 OA
HETATM   15  N4  UNL     1      -2.122   3.285  14.286  1.00  0.00    -0.155 N
ATOM     16  H4  UNL     1      -1.244   3.391  14.793  1.00  0.00     0.187 HD
BRANCH  15  17
HETATM   17  C16 UNL     1      -3.121   2.741  14.903  1.00  0.00     0.686 A
HETATM   18  N5  UNL     1      -3.232   1.560  15.494  1.00  0.00    -0.189 N
HETATM   19  C17 UNL     1      -4.480   1.417  16.015  1.00  0.00     0.076 A
ATOM     20  H5  UNL     1      -2.491   0.861  15.548  1.00  0.00     0.184 HD
HETATM   21  C18 UNL     1      -5.117   0.421  16.711  1.00  0.00     0.032 A
HETATM   22  C22 UNL     1      -5.154   2.576  15.721  1.00  0.00     0.076 A
HETATM   23  C19 UNL     1      -6.427   0.528  17.139  1.00  0.00     0.002 A
HETATM   24  C20 UNL     1      -7.066   1.708  16.822  1.00  0.00     0.002 A
HETATM   25  C21 UNL     1      -6.459   2.720  16.130  1.00  0.00     0.032 A
HETATM   26  N6  UNL     1      -4.308   3.359  15.048  1.00  0.00    -0.189 N
ATOM     27  H6  UNL     1      -4.529   4.290  14.695  1.00  0.00     0.184 HD
ENDBRANCH  15  17
ENDBRANCH  12  13
BRANCH   9  28
HETATM   28  C6  UNL     1       1.937   6.387  10.669  1.00  0.00     0.098 C
BRANCH  28  29
HETATM   29  C7  UNL     1       3.052   6.262  11.641  1.00  0.00    -0.052 A
HETATM   30  C8  UNL     1       3.487   7.408  12.291  1.00  0.00     0.007 A
HETATM   31  C9  UNL     1       4.515   7.345  13.201  1.00  0.00     0.001 A
HETATM   32  C10 UNL     1       5.135   6.142  13.486  1.00  0.00     0.000 A
HETATM   33  C11 UNL     1       4.690   5.031  12.836  1.00  0.00     0.001 A
HETATM   34  C12 UNL     1       3.648   5.052  11.905  1.00  0.00     0.007 A
ENDBRANCH  28  29
ENDBRANCH   9  28
TORSDOF 4
ENDMDL