MODEL 4
REMARK VINA RESULT: -7.806020143      6.592     10.006
REMARK  4 active torsions:
REMARK  status: ('A' for Active; 'I' for Inactive)
REMARK    1  A    between atoms: N1_2  and  C2_4
REMARK    2  A    between atoms: C5_7  and  C6_8
REMARK       I    between atoms: C6_8  and  N2_10
REMARK    3  A    between atoms: C8_15  and  C9_16
REMARK    4  A    between atoms: C12_19  and  C13_20
ROOT
HETATM    1  C6  UNL     1      -4.974   3.735  12.935  1.00  0.00     0.260 C
HETATM    2  O1  UNL     1      -5.990   4.074  13.588  1.00  0.00    -0.267 OA
HETATM    3  N2  UNL     1      -4.030   4.709  12.517  1.00  0.00    -0.287 N
ATOM      4  H2  UNL     1      -3.652   4.690  11.570  1.00  0.00     0.172 HD
HETATM    5  C7  UNL     1      -3.655   5.619  13.354  1.00  0.00     0.251 A
HETATM    6  N3  UNL     1      -2.775   6.595  13.092  1.00  0.00    -0.304 N
ATOM      7  H3  UNL     1      -2.298   6.730  12.201  1.00  0.00     0.171 HD
HETATM    8  C8  UNL     1      -2.614   7.369  14.183  1.00  0.00     0.139 A
HETATM    9  N4  UNL     1      -3.441   6.813  15.118  1.00  0.00    -0.240 N
ATOM     10  H4  UNL     1      -3.567   7.151  16.072  1.00  0.00     0.196 HD
HETATM   11  O2  UNL     1      -4.038   5.788  14.597  1.00  0.00    -0.199 OA
ENDROOT
BRANCH   1  12
HETATM   12  C5  UNL     1      -4.730   2.344  12.586  1.00  0.00     0.048 A
HETATM   13  C4  UNL     1      -4.947   1.874  11.311  1.00  0.00     0.022 A
HETATM   14  C3  UNL     1      -4.704   0.532  10.996  1.00  0.00     0.049 A
HETATM   15  C2  UNL     1      -4.240  -0.304  12.006  1.00  0.00     0.100 A
HETATM   16  N5  UNL     1      -4.043   0.203  13.236  1.00  0.00    -0.352 N
HETATM   17  C21 UNL     1      -4.269   1.488  13.565  1.00  0.00     0.106 A
ATOM     18  H5  UNL     1      -3.702  -0.424  13.963  1.00  0.00     0.166 HD
BRANCH  15  19
HETATM   19  N1  UNL     1      -4.017  -1.532  11.718  1.00  0.00    -0.381 N
HETATM   20  C1  UNL     1      -2.670  -1.902  11.322  1.00  0.00     0.147 C
ATOM     21  H1  UNL     1      -4.762  -2.227  11.765  1.00  0.00     0.160 HD
ENDBRANCH  15  19
ENDBRANCH   1  12
BRANCH   8  22
HETATM   22  C9  UNL     1      -1.758   8.534  14.350  1.00  0.00     0.010 A
HETATM   23  C10 UNL     1      -2.027   9.710  13.717  1.00  0.00     0.016 A
HETATM   24  C11 UNL     1      -1.184  10.816  13.898  1.00  0.00     0.013 A
HETATM   25  C12 UNL     1      -0.080  10.714  14.716  1.00  0.00    -0.026 A
HETATM   26  C19 UNL     1       0.183   9.522  15.349  1.00  0.00     0.013 A
HETATM   27  C20 UNL     1      -0.655   8.435  15.166  1.00  0.00     0.016 A
BRANCH  25  28
HETATM   28  C13 UNL     1       0.838  11.828  14.948  1.00  0.00    -0.026 A
HETATM   29  C14 UNL     1       1.114  12.265  16.242  1.00  0.00     0.012 A
HETATM   30  C15 UNL     1       1.962  13.299  16.538  1.00  0.00     0.001 A
HETATM   31  C16 UNL     1       2.569  13.930  15.474  1.00  0.00     0.000 A
HETATM   32  C17 UNL     1       2.316  13.518  14.164  1.00  0.00     0.001 A
HETATM   33  C18 UNL     1       1.459  12.477  13.910  1.00  0.00     0.012 A
ENDBRANCH  25  28
ENDBRANCH   8  22
TORSDOF 4
ENDMDL