MODEL 4
REMARK VINA RESULT: -8.424054070      1.403      1.512
REMARK  6 active torsions:
REMARK  status: ('A' for Active; 'I' for Inactive)
REMARK    1  A    between atoms: C2_2  and  C3_3
REMARK    2  A    between atoms: C3_3  and  C4_4
REMARK    3  A    between atoms: C5_5  and  C6_6
REMARK    4  A    between atoms: C11_11  and  C12_12
REMARK    5  A    between atoms: C15_17  and  N2_18
REMARK    6  A    between atoms: N2_18  and  C16_20
ROOT
HETATM    1  C12 UNL     1      -2.609   5.169  10.176  1.00  0.00     0.062 A
HETATM    2  C13 UNL     1      -3.753   5.793   9.788  1.00  0.00     0.048 A
HETATM    3  C14 UNL     1      -4.726   6.261  10.695  1.00  0.00     0.108 A
HETATM    4  N1  UNL     1      -4.497   6.073  12.002  1.00  0.00    -0.202 N
ATOM      5  H1  UNL     1      -5.179   6.400  12.687  1.00  0.00     0.183 HD
HETATM    6  C15 UNL     1      -3.378   5.456  12.421  1.00  0.00     0.683 A
HETATM    7  N5  UNL     1      -2.471   5.023  11.543  1.00  0.00    -0.191 N
ATOM      8  H5  UNL     1      -1.634   4.561  11.899  1.00  0.00     0.184 HD
ENDROOT
BRANCH   6   9
HETATM    9  N2  UNL     1      -3.212   5.301  13.693  1.00  0.00    -0.190 N
ATOM     10  H2  UNL     1      -2.827   6.078  14.231  1.00  0.00     0.184 HD
BRANCH   9  11
HETATM   11  C16 UNL     1      -3.540   4.107  14.378  1.00  0.00     0.065 A
HETATM   12  C17 UNL     1      -2.552   3.167  14.573  1.00  0.00     0.119 A
HETATM   13  N3  UNL     1      -2.769   2.006  15.213  1.00  0.00    -0.349 N
HETATM   14  C18 UNL     1      -4.019   1.742  15.687  1.00  0.00     0.118 A
ATOM     15  H3  UNL     1      -2.013   1.334  15.340  1.00  0.00     0.167 HD
HETATM   16  N4  UNL     1      -4.284   0.589  16.335  1.00  0.00    -0.309 N
HETATM   17  C22 UNL     1      -5.052   2.640  15.524  1.00  0.00     0.010 A
HETATM   18  C19 UNL     1      -5.512   0.317  16.807  1.00  0.00     0.246 A
ATOM     19  H4  UNL     1      -3.535  -0.091  16.468  1.00  0.00     0.170 HD
HETATM   20  O1  UNL     1      -5.720  -0.764  17.403  1.00  0.00    -0.268 OA
HETATM   21  C20 UNL     1      -6.576   1.182  16.670  1.00  0.00     0.075 A
HETATM   22  C21 UNL     1      -6.335   2.368  16.013  1.00  0.00     0.021 A
HETATM   23  C23 UNL     1      -4.795   3.828  14.862  1.00  0.00     0.046 A
ENDBRANCH   9  11
ENDBRANCH   6   9
BRANCH   1  24
HETATM   24  C11 UNL     1      -1.607   4.591   9.306  1.00  0.00     0.010 A
HETATM   25  C6  UNL     1      -1.217   3.302   9.340  1.00  0.00     0.030 A
HETATM   26  C7  UNL     1      -0.266   2.800   8.420  1.00  0.00     0.021 A
HETATM   27  C8  UNL     1       0.256   3.653   7.483  1.00  0.00     0.002 A
HETATM   28  C9  UNL     1      -0.111   4.979   7.404  1.00  0.00     0.001 A
HETATM   29  C10 UNL     1      -1.028   5.421   8.308  1.00  0.00     0.015 A
BRANCH  25  30
HETATM   30  C5  UNL     1      -1.807   2.352  10.237  1.00  0.00    -0.066 C
HETATM   31  C4  UNL     1      -2.318   1.510  10.971  1.00  0.00    -0.097 C
BRANCH  31  32
HETATM   32  C3  UNL     1      -2.947   0.521  11.847  1.00  0.00     0.120 C
BRANCH  32  33
HETATM   33  C2  UNL     1      -4.414   0.695  11.718  1.00  0.00    -0.025 C
HETATM   34  C1  UNL     1      -4.955   1.901  11.759  1.00  0.00     0.008 C
ENDBRANCH  32  33
ENDBRANCH  31  32
ENDBRANCH  25  30
ENDBRANCH   1  24
TORSDOF 6
ENDMDL