MODEL 5
REMARK VINA RESULT: -8.616876072      1.960      3.100
REMARK  5 active torsions:
REMARK  status: ('A' for Active; 'I' for Inactive)
REMARK    1  A    between atoms: C5_5  and  C6_6
REMARK    2  A    between atoms: C9_11  and  N2_12
REMARK    3  A    between atoms: N2_12  and  C10_14
REMARK    4  A    between atoms: C14_20  and  C15_21
REMARK       I    between atoms: C15_21  and  N4_23
REMARK    5  A    between atoms: N4_23  and  C16_25
ROOT
HETATM    1  C10 UNL     1      -4.103   3.294  12.280  1.00  0.00     0.081 A
HETATM    2  C11 UNL     1      -4.245   2.843  10.991  1.00  0.00     0.034 A
HETATM    3  C12 UNL     1      -3.566   1.693  10.644  1.00  0.00     0.019 A
HETATM    4  C13 UNL     1      -2.779   1.033  11.564  1.00  0.00     0.088 A
HETATM    5  N3  UNL     1      -2.674   1.520  12.818  1.00  0.00    -0.360 N
ATOM      6  H3  UNL     1      -2.089   1.024  13.491  1.00  0.00     0.165 HD
HETATM    7  C14 UNL     1      -3.309   2.626  13.207  1.00  0.00     0.128 A
ENDROOT
BRANCH   1   8
HETATM    8  N2  UNL     1      -4.768   4.459  12.729  1.00  0.00    -0.189 N
ATOM      9  H2  UNL     1      -5.438   4.403  13.496  1.00  0.00     0.184 HD
BRANCH   8  10
HETATM   10  C9  UNL     1      -4.524   5.581  12.170  1.00  0.00     0.683 A
HETATM   11  N1  UNL     1      -3.360   6.237  12.372  1.00  0.00    -0.202 N
HETATM   12  C8  UNL     1      -3.136   7.414  11.770  1.00  0.00     0.108 A
ATOM     13  H1  UNL     1      -2.649   5.836  12.983  1.00  0.00     0.183 HD
HETATM   14  C7  UNL     1      -4.084   7.999  10.923  1.00  0.00     0.048 A
HETATM   15  C6  UNL     1      -5.283   7.319  10.717  1.00  0.00     0.060 A
HETATM   16  N6  UNL     1      -5.419   6.146  11.363  1.00  0.00    -0.191 N
ATOM     17  H6  UNL     1      -6.293   5.640  11.220  1.00  0.00     0.184 HD
BRANCH  15  18
HETATM   18  C5  UNL     1      -6.320   7.854   9.853  1.00  0.00    -0.009 A
HETATM   19  C4  UNL     1      -6.394   9.177   9.509  1.00  0.00     0.014 A
HETATM   20  C3  UNL     1      -7.394   9.672   8.678  1.00  0.00     0.007 A
HETATM   21  C2  UNL     1      -8.329   8.780   8.199  1.00  0.00    -0.062 A
HETATM   22  C1  UNL     1      -9.404   9.305   7.306  1.00  0.00     0.048 C
HETATM   23  C22 UNL     1      -8.294   7.444   8.519  1.00  0.00     0.007 A
HETATM   24  C21 UNL     1      -7.271   6.995   9.355  1.00  0.00     0.014 A
ENDBRANCH  15  18
ENDBRANCH   8  10
ENDBRANCH   1   8
BRANCH   7  25
HETATM   25  C15 UNL     1      -3.175   3.124  14.568  1.00  0.00     0.275 C
HETATM   26  O1  UNL     1      -2.836   4.301  14.810  1.00  0.00    -0.266 OA
HETATM   27  N4  UNL     1      -3.435   2.263  15.671  1.00  0.00    -0.322 N
ATOM     28  H4  UNL     1      -2.637   1.861  16.163  1.00  0.00     0.169 HD
BRANCH  27  29
HETATM   29  C16 UNL     1      -4.598   1.962  16.080  1.00  0.00     0.037 A
HETATM   30  C17 UNL     1      -4.842   0.728  16.617  1.00  0.00     0.046 A
HETATM   31  C18 UNL     1      -6.130   0.415  17.060  1.00  0.00     0.090 A
HETATM   32  N5  UNL     1      -7.106   1.331  16.951  1.00  0.00    -0.375 N
HETATM   33  C19 UNL     1      -6.911   2.566  16.426  1.00  0.00     0.090 A
ATOM     34  H5  UNL     1      -8.040   1.085  17.278  1.00  0.00     0.164 HD
HETATM   35  C20 UNL     1      -5.623   2.864  15.989  1.00  0.00     0.046 A
ENDBRANCH  27  29
ENDBRANCH   7  25
TORSDOF 5
ENDMDL