MODEL 2
REMARK VINA RESULT: -8.244371106      1.395      1.912
REMARK  4 active torsions:
REMARK  status: ('A' for Active; 'I' for Inactive)
REMARK    1  A    between atoms: C5_5  and  N1_6
REMARK       I    between atoms: N1_6  and  C6_8
REMARK    2  A    between atoms: C6_8  and  C7_10
REMARK    3  A    between atoms: C10_13  and  N2_14
REMARK    4  A    between atoms: C12_19  and  C13_20
ROOT
HETATM    1  C7  UNL     1      -3.373   2.150  11.333  1.00  0.00     0.032 A
HETATM    2  C8  UNL     1      -3.146   3.283  10.588  1.00  0.00     0.019 A
HETATM    3  C9  UNL     1      -1.922   3.437   9.972  1.00  0.00     0.031 A
HETATM    4  C10 UNL     1      -0.925   2.472  10.093  1.00  0.00     0.049 A
HETATM    5  C20 UNL     1      -1.196   1.338  10.860  1.00  0.00     0.031 A
HETATM    6  C21 UNL     1      -2.407   1.161  11.482  1.00  0.00     0.019 A
ENDROOT
BRANCH   4   7
HETATM    7  N2  UNL     1       0.329   2.641   9.452  1.00  0.00    -0.192 N
HETATM    8  C11 UNL     1       1.190   3.427  10.016  1.00  0.00     0.683 A
HETATM    9  N3  UNL     1       2.378   3.544   9.345  1.00  0.00    -0.191 N
HETATM   10  N5  UNL     1       0.981   4.086  11.162  1.00  0.00    -0.202 N
HETATM   11  C12 UNL     1       3.379   4.318   9.801  1.00  0.00     0.062 A
ATOM     12  H3  UNL     1       2.507   3.030   8.474  1.00  0.00     0.184 HD
HETATM   13  C18 UNL     1       3.146   4.986  10.980  1.00  0.00     0.048 A
HETATM   14  C19 UNL     1       1.945   4.873  11.667  1.00  0.00     0.108 A
ATOM     15  H5  UNL     1       0.091   3.991  11.651  1.00  0.00     0.183 HD
ATOM     16  H2  UNL     1       0.545   2.162   8.578  1.00  0.00     0.184 HD
BRANCH  11  17
HETATM   17  C13 UNL     1       4.621   4.411   9.037  1.00  0.00     0.007 A
HETATM   18  C14 UNL     1       5.086   3.332   8.292  1.00  0.00     0.016 A
HETATM   19  C15 UNL     1       6.258   3.408   7.567  1.00  0.00     0.018 A
HETATM   20  C16 UNL     1       6.998   4.566   7.569  1.00  0.00     0.087 A
HETATM   21  N4  UNL     1       6.544   5.603   8.290  1.00  0.00    -0.374 N
HETATM   22  C17 UNL     1       5.388   5.547   9.013  1.00  0.00     0.101 A
ATOM     23  H4  UNL     1       7.086   6.467   8.298  1.00  0.00     0.164 HD
ENDBRANCH  11  17
ENDBRANCH   4   7
BRANCH   1  24
HETATM   24  C6  UNL     1      -4.672   1.938  11.953  1.00  0.00     0.257 C
HETATM   25  N1  UNL     1      -5.220   2.920  12.778  1.00  0.00    -0.309 N
ATOM     26  H1  UNL     1      -5.456   3.830  12.382  1.00  0.00     0.170 HD
HETATM   27  O1  UNL     1      -5.290   0.885  11.740  1.00  0.00    -0.267 OA
BRANCH  25  28
HETATM   28  C5  UNL     1      -5.439   2.699  14.056  1.00  0.00     0.107 A
HETATM   29  C4  UNL     1      -6.207   3.535  14.811  1.00  0.00     0.049 A
HETATM   30  C3  UNL     1      -6.415   3.311  16.167  1.00  0.00     0.012 A
HETATM   31  C2  UNL     1      -5.829   2.221  16.750  1.00  0.00    -0.046 A
HETATM   32  C1  UNL     1      -6.020   1.941  18.195  1.00  0.00     0.049 C
HETATM   33  C22 UNL     1      -5.061   1.399  15.954  1.00  0.00     0.096 A
HETATM   34  N6  UNL     1      -4.870   1.630  14.644  1.00  0.00    -0.352 N
ATOM     35  H6  UNL     1      -4.293   0.993  14.095  1.00  0.00     0.166 HD
ENDBRANCH  25  28
ENDBRANCH   1  24
TORSDOF 4
ENDMDL