MODEL 4
REMARK VINA RESULT: -9.558701712      1.824      1.930
REMARK  5 active torsions:
REMARK  status: ('A' for Active; 'I' for Inactive)
REMARK    1  A    between atoms: C5_5  and  N1_6
REMARK    2  A    between atoms: N1_6  and  C6_8
REMARK    3  A    between atoms: C10_14  and  C11_15
REMARK    4  A    between atoms: C14_20  and  N4_21
REMARK       I    between atoms: N4_21  and  C15_23
REMARK    5  A    between atoms: C15_23  and  C16_25
ROOT
HETATM    1  C11 UNL     1      -2.376   2.339  11.698  1.00  0.00     0.064 A
HETATM    2  C12 UNL     1      -3.322   2.257  10.705  1.00  0.00     0.048 A
HETATM    3  C13 UNL     1      -4.511   1.552  10.906  1.00  0.00     0.108 A
HETATM    4  N3  UNL     1      -4.684   0.965  12.096  1.00  0.00    -0.202 N
ATOM      5  H3  UNL     1      -5.544   0.443  12.269  1.00  0.00     0.183 HD
HETATM    6  C14 UNL     1      -3.761   1.042  13.069  1.00  0.00     0.685 A
HETATM    7  N5  UNL     1      -2.626   1.719  12.870  1.00  0.00    -0.191 N
ATOM      8  H5  UNL     1      -1.935   1.768  13.619  1.00  0.00     0.184 HD
ENDROOT
BRANCH   1   9
HETATM    9  C10 UNL     1      -1.123   3.077  11.498  1.00  0.00     0.035 A
HETATM   10  C6  UNL     1      -0.956   4.289  12.150  1.00  0.00     0.118 A
HETATM   11  N2  UNL     1       0.179   5.036  12.016  1.00  0.00    -0.352 N
HETATM   12  C7  UNL     1       1.190   4.619  11.236  1.00  0.00     0.090 A
ATOM     13  H2  UNL     1       0.259   5.923  12.515  1.00  0.00     0.166 HD
HETATM   14  C8  UNL     1       1.039   3.420  10.582  1.00  0.00     0.018 A
HETATM   15  C9  UNL     1      -0.111   2.626  10.696  1.00  0.00     0.019 A
BRANCH  10  16
HETATM   16  N1  UNL     1      -1.928   4.691  12.901  1.00  0.00    -0.341 N
ATOM     17  H1  UNL     1      -1.953   4.454  13.893  1.00  0.00     0.167 HD
BRANCH  16  18
HETATM   18  C5  UNL     1      -2.963   5.472  12.316  1.00  0.00     0.049 A
HETATM   19  C4  UNL     1      -4.262   5.404  12.810  1.00  0.00     0.033 A
HETATM   20  C3  UNL     1      -5.227   6.180  12.209  1.00  0.00     0.027 A
HETATM   21  C2  UNL     1      -4.959   7.013  11.150  1.00  0.00     0.005 A
HETATM   22  C1  UNL     1      -6.031   7.840  10.524  1.00  0.00     0.068 C
HETATM   23  N6  UNL     1      -3.704   7.070  10.685  1.00  0.00    -0.367 N
HETATM   24  C22 UNL     1      -2.760   6.322  11.261  1.00  0.00     0.117 A
ATOM     25  H6  UNL     1      -3.472   7.678   9.900  1.00  0.00     0.165 HD
ENDBRANCH  16  18
ENDBRANCH  10  16
ENDBRANCH   1   9
BRANCH   6  26
HETATM   26  N4  UNL     1      -4.010   0.437  14.205  1.00  0.00    -0.155 N
HETATM   27  C15 UNL     1      -3.842   1.119  15.439  1.00  0.00     0.269 C
HETATM   28  O1  UNL     1      -2.731   1.034  16.041  1.00  0.00    -0.267 OA
ATOM     29  H4  UNL     1      -4.328  -0.532  14.203  1.00  0.00     0.187 HD
BRANCH  27  30
HETATM   30  C16 UNL     1      -4.886   1.914  16.050  1.00  0.00     0.032 A
HETATM   31  C17 UNL     1      -5.436   3.007  15.418  1.00  0.00     0.017 A
HETATM   32  C18 UNL     1      -6.428   3.749  16.021  1.00  0.00     0.001 A
HETATM   33  C19 UNL     1      -6.901   3.430  17.258  1.00  0.00     0.000 A
HETATM   34  C20 UNL     1      -6.346   2.327  17.897  1.00  0.00     0.001 A
HETATM   35  C21 UNL     1      -5.354   1.579  17.303  1.00  0.00     0.017 A
ENDBRANCH  27  30
ENDBRANCH   6  26
TORSDOF 5
ENDMDL