MODEL 1
REMARK VINA RESULT: -10.032361432      0.000      0.000
REMARK  5 active torsions:
REMARK  status: ('A' for Active; 'I' for Inactive)
REMARK    1  A    between atoms: N1_4  and  C4_5
REMARK    2  A    between atoms: C4_5  and  C5_6
REMARK    3  A    between atoms: C5_6  and  C6_7
REMARK    4  A    between atoms: C10_11  and  N2_12
REMARK       I    between atoms: N2_12  and  C11_14
REMARK    5  A    between atoms: C11_14  and  C12_16
ROOT
HETATM    1  C6  UNL     1      54.331  15.257 128.763  1.00  0.00    -0.013 C
HETATM    2  C7  UNL     1      53.490  16.203 129.547  1.00  0.00     0.005 C
HETATM    3  C8  UNL     1      52.048  16.035 129.049  1.00  0.00     0.002 C
HETATM    4  C9  UNL     1      52.111  16.139 127.548  1.00  0.00     0.025 C
HETATM    5  C10 UNL     1      52.903  17.349 127.172  1.00  0.00     0.084 C
HETATM    6  C16 UNL     1      54.375  17.181 127.120  1.00  0.00     0.025 C
HETATM    7  C17 UNL     1      54.928  15.869 127.527  1.00  0.00     0.007 C
ENDROOT
BRANCH   1   8
HETATM    8  C5  UNL     1      55.375  14.565 129.602  1.00  0.00     0.034 C
BRANCH   8   9
HETATM    9  C4  UNL     1      56.718  15.196 129.538  1.00  0.00     0.272 C
BRANCH   9  10
HETATM   10  N1  UNL     1      56.990  16.102 130.619  1.00  0.00     0.088 N
HETATM   11  C3  UNL     1      57.064  17.500 130.193  1.00  0.00     0.277 C
HETATM   12  C2  UNL     1      56.892  18.292 131.494  1.00  0.00     0.021 C
HETATM   13  C1  UNL     1      55.498  18.037 131.989  1.00  0.00     0.012 C
HETATM   14  C20 UNL     1      57.964  18.003 132.492  1.00  0.00    -0.007 C
HETATM   15  C19 UNL     1      58.458  16.590 132.519  1.00  0.00     0.042 C
HETATM   16  C21 UNL     1      57.422  18.328 133.868  1.00  0.00     0.041 C
HETATM   17  C23 UNL     1      59.095  18.999 132.235  1.00  0.00     0.219 C
HETATM   18  C18 UNL     1      58.266  15.831 131.238  1.00  0.00     0.273 C
HETATM   19  C22 UNL     1      58.515  19.042 134.636  1.00  0.00     0.210 C
HETATM   20  O2  UNL     1      58.782  20.263 134.062  1.00  0.00    -0.241 OA
HETATM   21  O3  UNL     1      58.672  20.224 132.772  1.00  0.00    -0.240 OA
ENDBRANCH   9  10
ENDBRANCH   8   9
ENDBRANCH   1   8
BRANCH   5  22
HETATM   22  N2  UNL     1      52.366  17.811 125.900  1.00  0.00    -0.356 N
HETATM   23  C11 UNL     1      51.635  18.998 125.785  1.00  0.00     0.225 C
HETATM   24  O1  UNL     1      51.397  19.748 126.790  1.00  0.00    -0.273 OA
ATOM     25  H2  UNL     1      52.528  17.250 125.064  1.00  0.00     0.162 HD
BRANCH  23  26
HETATM   26  C12 UNL     1      51.101  19.436 124.477  1.00  0.00     0.030 C
HETATM   27  C13 UNL     1      49.599  19.688 124.678  1.00  0.00     0.024 C
HETATM   28  C14 UNL     1      51.798  20.679 124.006  1.00  0.00     0.024 C
HETATM   29  C15 UNL     1      51.226  18.332 123.445  1.00  0.00     0.024 C
ENDBRANCH  23  26
ENDBRANCH   5  22
TORSDOF 5
ENDMDL