MODEL 1
REMARK VINA RESULT: -9.529885102      0.000      0.000
REMARK  4 active torsions:
REMARK  status: ('A' for Active; 'I' for Inactive)
REMARK    1  A    between atoms: O1_2  and  C2_3
REMARK    2  A    between atoms: C5_6  and  N1_7
REMARK    3  A    between atoms: C8_10  and  C9_11
REMARK    4  A    between atoms: C13_15  and  N2_16
REMARK       I    between atoms: N2_16  and  C14_18
REMARK       I    between atoms: C14_18  and  N3_20
ROOT
HETATM    1  C9  UNL     1      53.172  16.229 129.660  1.00  0.00     0.012 C
HETATM    2  C10 UNL     1      52.536  14.930 129.135  1.00  0.00     0.007 C
HETATM    3  C11 UNL     1      53.637  14.144 128.465  1.00  0.00     0.002 C
HETATM    4  C12 UNL     1      54.913  14.937 128.599  1.00  0.00     0.026 C
HETATM    5  C13 UNL     1      54.574  15.849 129.795  1.00  0.00     0.090 C
ENDROOT
BRANCH   1   6
HETATM    6  C8  UNL     1      52.788  17.291 128.708  1.00  0.00    -0.005 C
HETATM    7  C7  UNL     1      52.106  18.512 129.241  1.00  0.00     0.035 C
HETATM    8  C6  UNL     1      51.956  19.492 128.099  1.00  0.00     0.273 C
HETATM    9  N1  UNL     1      52.714  19.163 126.914  1.00  0.00     0.093 N
HETATM   10  C20 UNL     1      52.413  17.893 126.370  1.00  0.00     0.273 C
HETATM   11  C19 UNL     1      52.053  16.871 127.468  1.00  0.00     0.035 C
BRANCH   9  12
HETATM   12  C5  UNL     1      52.514  20.217 125.967  1.00  0.00     0.223 C
HETATM   13  C4  UNL     1      51.761  19.856 124.736  1.00  0.00     0.038 C
HETATM   14  C3  UNL     1      51.763  20.908 123.682  1.00  0.00     0.034 C
HETATM   15  C2  UNL     1      53.084  21.584 123.427  1.00  0.00     0.120 C
HETATM   16  C22 UNL     1      53.520  22.123 124.775  1.00  0.00     0.034 C
HETATM   17  C21 UNL     1      53.818  20.905 125.617  1.00  0.00     0.038 C
BRANCH  15  18
HETATM   18  O1  UNL     1      52.890  22.550 122.478  1.00  0.00    -0.391 OA
HETATM   19  C1  UNL     1      51.614  23.004 122.310  1.00  0.00     0.202 C
ENDBRANCH  15  18
ENDBRANCH   9  12
ENDBRANCH   1   6
BRANCH   5  20
HETATM   20  N2  UNL     1      55.563  16.812 130.055  1.00  0.00    -0.338 N
HETATM   21  C14 UNL     1      56.825  16.467 130.623  1.00  0.00     0.325 C
HETATM   22  O2  UNL     1      57.049  15.279 130.884  1.00  0.00    -0.247 OA
HETATM   23  N3  UNL     1      57.801  17.470 130.879  1.00  0.00    -0.270 N
HETATM   24  C15 UNL     1      57.698  18.910 130.691  1.00  0.00     0.137 C
HETATM   25  C18 UNL     1      59.128  17.249 131.332  1.00  0.00     0.227 C
HETATM   26  C16 UNL     1      58.341  19.379 132.003  1.00  0.00     0.029 C
HETATM   27  C17 UNL     1      59.610  18.514 132.001  1.00  0.00     0.105 C
HETATM   28  O3  UNL     1      59.818  16.179 131.212  1.00  0.00    -0.273 OA
ATOM     29  H2  UNL     1      55.372  17.789 129.831  1.00  0.00     0.164 HD
ENDBRANCH   5  20
TORSDOF 4
ENDMDL