MODEL 5
REMARK VINA RESULT: -8.339367688      2.083      2.719
REMARK  4 active torsions:
REMARK  status: ('A' for Active; 'I' for Inactive)
REMARK    1  A    between atoms: C2_2  and  C3_3
REMARK    2  A    between atoms: C2_2  and  C5_5
REMARK    3  A    between atoms: C8_8  and  O1_9
REMARK    4  A    between atoms: O1_9  and  S1_10
ROOT
HETATM    1  C5  UNL     1      51.753  19.360 124.539  1.00  0.00     0.018 C
HETATM    2  C6  UNL     1      51.468  20.848 124.498  1.00  0.00     0.012 C
HETATM    3  C7  UNL     1      52.719  21.672 124.238  1.00  0.00     0.034 C
HETATM    4  C8  UNL     1      53.329  21.913 125.604  1.00  0.00     0.145 C
HETATM    5  C9  UNL     1      53.808  20.529 126.069  1.00  0.00     0.039 C
HETATM    6  C10 UNL     1      52.706  19.813 126.815  1.00  0.00    -0.003 C
HETATM    7  C11 UNL     1      51.931  18.843 125.910  1.00  0.00    -0.002 C
HETATM    8  C12 UNL     1      52.690  17.536 125.831  1.00  0.00     0.006 C
HETATM    9  C13 UNL     1      52.530  16.864 127.172  1.00  0.00     0.013 C
HETATM   10  C14 UNL     1      52.752  17.774 128.306  1.00  0.00    -0.007 C
HETATM   11  C15 UNL     1      51.491  17.822 129.152  1.00  0.00     0.019 C
HETATM   12  C16 UNL     1      53.278  19.144 128.008  1.00  0.00     0.001 C
HETATM   13  C17 UNL     1      54.771  19.009 128.050  1.00  0.00     0.009 C
HETATM   14  C18 UNL     1      55.106  17.818 128.890  1.00  0.00     0.041 C
HETATM   15  C19 UNL     1      53.822  17.141 129.207  1.00  0.00     0.090 A
HETATM   16  C20 UNL     1      53.706  15.799 129.628  1.00  0.00     0.207 A
HETATM   17  O5  UNL     1      53.542  16.906 130.528  1.00  0.00    -0.374 OA
ENDROOT
BRANCH   4  18
HETATM   18  O1  UNL     1      54.342  22.833 125.575  1.00  0.00    -0.252 OA
BRANCH  18  19
HETATM   19  S1  UNL     1      53.818  24.389 125.947  1.00  0.00     0.251 S
HETATM   20  O2  UNL     1      52.816  24.311 127.057  1.00  0.00    -0.572 OA
HETATM   21  O3  UNL     1      54.956  25.252 126.434  1.00  0.00    -0.572 OA
HETATM   22  O4  UNL     1      53.113  25.101 124.611  1.00  0.00    -0.572 OA
ENDBRANCH  18  19
ENDBRANCH   4  18
BRANCH   1  23
HETATM   23  C2  UNL     1      50.638  18.684 123.839  1.00  0.00    -0.085 C
HETATM   24  C1  UNL     1      50.845  18.060 122.694  1.00  0.00     0.014 C
BRANCH  23  25
HETATM   25  C3  UNL     1      49.243  18.738 124.405  1.00  0.00     0.029 C
HETATM   26  C4  UNL     1      48.879  17.380 124.941  1.00  0.00     0.010 C
ENDBRANCH  23  25
ENDBRANCH   1  23
TORSDOF 4
ENDMDL