MODEL 4
REMARK VINA RESULT: -9.202827790      3.175      5.719
REMARK  5 active torsions:
REMARK  status: ('A' for Active; 'I' for Inactive)
REMARK    1  A    between atoms: C2_2  and  C3_3
REMARK    2  A    between atoms: C2_2  and  O2_15
REMARK    3  A    between atoms: C3_3  and  C4_4
REMARK    4  A    between atoms: O2_15  and  C12_16
REMARK       I    between atoms: C12_16  and  N3_18
REMARK    5  A    between atoms: N3_18  and  C13_20
ROOT
HETATM    1  O2  UNL     1      55.010  21.428 125.833  1.00  0.00    -0.299 OA
ENDROOT
BRANCH   1   2
HETATM    2  C2  UNL     1      53.930  22.233 125.417  1.00  0.00     0.131 C
HETATM    3  C1  UNL     1      54.253  23.652 125.693  1.00  0.00     0.040 C
BRANCH   2   4
HETATM    4  C3  UNL     1      53.424  21.831 124.118  1.00  0.00     0.070 C
BRANCH   4   5
HETATM    5  C4  UNL     1      51.983  21.437 123.921  1.00  0.00     0.260 C
HETATM    6  C5  UNL     1      51.717  20.089 124.380  1.00  0.00     0.282 C
HETATM    7  C6  UNL     1      50.485  20.038 125.314  1.00  0.00     0.208 C
HETATM    8  N1  UNL     1      51.450  19.042 123.493  1.00  0.00     0.120 N
HETATM    9  O1  UNL     1      50.238  18.697 125.386  1.00  0.00    -0.360 OA
HETATM   10  C7  UNL     1      50.534  18.142 124.171  1.00  0.00     0.441 C
HETATM   11  C8  UNL     1      50.948  19.311 122.207  1.00  0.00     0.277 C
HETATM   12  C9  UNL     1      49.797  20.239 122.105  1.00  0.00     0.060 C
HETATM   13  C10 UNL     1      50.309  21.620 122.147  1.00  0.00     0.274 C
HETATM   14  N2  UNL     1      51.579  21.890 122.648  1.00  0.00     0.091 N
HETATM   15  C11 UNL     1      51.731  23.361 122.659  1.00  0.00     0.310 C
ENDBRANCH   4   5
ENDBRANCH   2   4
ENDBRANCH   1   2
BRANCH   1  16
HETATM   16  C12 UNL     1      54.860  20.241 126.543  1.00  0.00     0.361 C
HETATM   17  O3  UNL     1      55.892  19.538 126.603  1.00  0.00    -0.238 OA
HETATM   18  N3  UNL     1      53.668  19.839 127.149  1.00  0.00    -0.328 N
ATOM     19  H3  UNL     1      52.863  20.459 127.062  1.00  0.00     0.165 HD
BRANCH  18  20
HETATM   20  C13 UNL     1      53.486  18.614 127.891  1.00  0.00     0.036 C
HETATM   21  C14 UNL     1      54.447  18.451 129.042  1.00  0.00     0.035 C
HETATM   22  C15 UNL     1      54.138  17.167 129.756  1.00  0.00    -0.012 C
HETATM   23  C16 UNL     1      54.392  15.990 128.853  1.00  0.00     0.009 C
HETATM   24  C20 UNL     1      52.744  17.072 130.276  1.00  0.00     0.009 C
HETATM   25  C17 UNL     1      53.463  16.149 127.667  1.00  0.00    -0.012 C
HETATM   26  C18 UNL     1      52.016  16.090 128.154  1.00  0.00     0.009 C
HETATM   27  C22 UNL     1      53.745  17.431 126.964  1.00  0.00     0.035 C
HETATM   28  C19 UNL     1      51.793  17.222 129.107  1.00  0.00    -0.012 C
HETATM   29  C21 UNL     1      52.082  18.551 128.442  1.00  0.00     0.035 C
ENDBRANCH  18  20
ENDBRANCH   1  16
TORSDOF 5
ENDMDL