MODEL 5
REMARK VINA RESULT: -9.184076282      3.185      5.638
REMARK  4 active torsions:
REMARK  status: ('A' for Active; 'I' for Inactive)
REMARK    1  A    between atoms: C9_9  and  N1_10
REMARK    2  A    between atoms: N1_10  and  C10_12
REMARK    3  A    between atoms: C14_16  and  N2_17
REMARK    4  A    between atoms: N3_20  and  C17_21
ROOT
HETATM    1  C10 UNL     1      53.789  21.390 125.707  1.00  0.00     0.103 C
HETATM    2  C11 UNL     1      54.074  22.846 125.694  1.00  0.00     0.027 C
HETATM    3  C12 UNL     1      55.422  23.009 126.420  1.00  0.00     0.004 C
HETATM    4  C13 UNL     1      56.182  21.844 125.787  1.00  0.00     0.027 C
HETATM    5  C14 UNL     1      55.195  20.741 125.696  1.00  0.00     0.101 C
ENDROOT
BRANCH   5   6
HETATM    6  N2  UNL     1      55.273  19.724 126.648  1.00  0.00    -0.403 N
HETATM    7  C15 UNL     1      54.300  19.684 127.671  1.00  0.00     0.147 C
HETATM    8  C16 UNL     1      54.549  18.698 128.755  1.00  0.00     0.292 C
HETATM    9  N3  UNL     1      55.303  17.563 128.344  1.00  0.00     0.096 N
HETATM   10  C23 UNL     1      56.467  17.795 127.574  1.00  0.00     0.292 C
HETATM   11  C24 UNL     1      56.546  19.186 126.981  1.00  0.00     0.147 C
BRANCH   9  12
HETATM   12  C17 UNL     1      55.542  16.705 129.485  1.00  0.00     0.226 C
HETATM   13  C18 UNL     1      56.879  16.007 129.356  1.00  0.00     0.066 C
HETATM   14  C19 UNL     1      57.265  15.417 130.687  1.00  0.00     0.274 C
HETATM   15  N4  UNL     1      57.401  16.385 131.736  1.00  0.00     0.084 N
HETATM   16  C20 UNL     1      58.685  16.421 132.362  1.00  0.00     0.309 C
HETATM   17  C21 UNL     1      56.942  17.686 131.304  1.00  0.00     0.274 C
HETATM   18  C22 UNL     1      55.530  17.488 130.753  1.00  0.00     0.066 C
ENDBRANCH   9  12
ENDBRANCH   5   6
BRANCH   1  19
HETATM   19  N1  UNL     1      52.998  20.869 124.702  1.00  0.00    -0.389 N
ATOM     20  H1  UNL     1      53.339  20.978 123.746  1.00  0.00     0.159 HD
BRANCH  19  21
HETATM   21  C9  UNL     1      51.772  20.205 124.865  1.00  0.00    -0.014 C
HETATM   22  C2  UNL     1      50.850  20.170 123.723  1.00  0.00     0.027 C
HETATM   23  C1  UNL     1      51.311  19.503 122.462  1.00  0.00     0.016 C
HETATM   24  C3  UNL     1      49.443  19.742 124.126  1.00  0.00     0.010 C
HETATM   25  C4  UNL     1      49.136  18.306 124.105  1.00  0.00     0.001 C
HETATM   26  C5  UNL     1      49.113  17.731 125.523  1.00  0.00     0.000 C
HETATM   27  C6  UNL     1      50.369  17.012 125.869  1.00  0.00     0.000 C
HETATM   28  C7  UNL     1      51.609  17.659 125.217  1.00  0.00     0.006 C
HETATM   29  C8  UNL     1      51.856  18.996 125.746  1.00  0.00     0.052 C
ENDBRANCH  19  21
ENDBRANCH   1  19
TORSDOF 4
ENDMDL