MODEL 1
REMARK VINA RESULT: -9.120138263      0.000      0.000
REMARK  5 active torsions:
REMARK  status: ('A' for Active; 'I' for Inactive)
REMARK    1  A    between atoms: S1_2  and  C1_4
REMARK    2  A    between atoms: S1_2  and  N1_8
REMARK    3  A    between atoms: C7_11  and  N2_12
REMARK    4  A    between atoms: N2_12  and  C8_14
REMARK    5  A    between atoms: C10_18  and  C11_19
ROOT
HETATM    1  N2  UNL     1      54.688  15.743 127.969  1.00  0.00    -0.366 N
ATOM      2  H2  UNL     1      54.898  14.915 127.412  1.00  0.00     0.162 HD
ENDROOT
BRANCH   1   3
HETATM    3  C7  UNL     1      55.633  16.174 128.948  1.00  0.00     0.085 C
HETATM    4  C6  UNL     1      56.507  17.320 128.480  1.00  0.00     0.041 C
HETATM    5  C5  UNL     1      57.688  17.411 129.440  1.00  0.00     0.109 C
HETATM    6  N1  UNL     1      57.306  16.811 130.697  1.00  0.00    -0.210 NA
HETATM    7  C18 UNL     1      57.258  15.383 130.606  1.00  0.00     0.109 C
HETATM    8  C17 UNL     1      56.564  15.023 129.303  1.00  0.00     0.041 C
BRANCH   6   9
HETATM    9  S1  UNL     1      58.357  17.393 131.919  1.00  0.00     0.215 S
HETATM   10  O1  UNL     1      58.828  16.232 132.739  1.00  0.00    -0.211 OA
HETATM   11  O2  UNL     1      59.559  18.059 131.297  1.00  0.00    -0.211 OA
BRANCH   9  12
HETATM   12  C1  UNL     1      57.533  18.601 132.932  1.00  0.00     0.124 C
HETATM   13  C2  UNL     1      57.550  18.232 134.404  1.00  0.00     0.021 C
HETATM   14  C3  UNL     1      56.089  18.610 134.473  1.00  0.00     0.003 C
HETATM   15  C4  UNL     1      56.024  18.474 132.964  1.00  0.00     0.021 C
ENDBRANCH   9  12
ENDBRANCH   6   9
ENDBRANCH   1   3
BRANCH   1  16
HETATM   16  C8  UNL     1      53.554  16.377 127.760  1.00  0.00     0.145 A
HETATM   17  N3  UNL     1      52.546  16.536 128.613  1.00  0.00    -0.346 N
HETATM   18  C9  UNL     1      51.493  17.198 128.229  1.00  0.00     0.105 A
ATOM     19  H3  UNL     1      52.596  16.145 129.554  1.00  0.00     0.167 HD
HETATM   20  C10 UNL     1      51.489  17.699 126.949  1.00  0.00     0.006 A
HETATM   21  S2  UNL     1      53.008  17.187 126.363  1.00  0.00    -0.057 SA
BRANCH  20  22
HETATM   22  C11 UNL     1      50.447  18.492 126.220  1.00  0.00     0.027 C
HETATM   23  C12 UNL     1      49.666  17.609 125.317  1.00  0.00     0.010 C
HETATM   24  C13 UNL     1      49.809  17.846 123.858  1.00  0.00     0.001 C
HETATM   25  C14 UNL     1      51.065  18.507 123.421  1.00  0.00     0.000 C
HETATM   26  C15 UNL     1      51.236  19.775 124.178  1.00  0.00     0.001 C
HETATM   27  C16 UNL     1      51.022  19.722 125.640  1.00  0.00     0.010 C
ENDBRANCH  20  22
ENDBRANCH   1  16
TORSDOF 5
ENDMDL