MODEL 1
REMARK VINA RESULT: -8.863123161      0.000      0.000
REMARK  7 active torsions:
REMARK  status: ('A' for Active; 'I' for Inactive)
REMARK    1  A    between atoms: C7_7  and  N1_8
REMARK    2  A    between atoms: N1_8  and  C8_10
REMARK    3  A    between atoms: C9_13  and  C10_14
REMARK    4  A    between atoms: C10_14  and  O1_15
REMARK    5  A    between atoms: C10_14  and  N3_17
REMARK    6  A    between atoms: C15_22  and  C16_23
REMARK    7  A    between atoms: C16_23  and  N4_24
ROOT
HETATM    1  C8  UNL     1      52.947  18.938 128.793  1.00  0.00     0.145 A
HETATM    2  N2  UNL     1      54.092  18.909 129.476  1.00  0.00    -0.333 N
ATOM      3  H2  UNL     1      54.909  19.403 129.116  1.00  0.00     0.168 HD
HETATM    4  C9  UNL     1      54.177  18.250 130.602  1.00  0.00     0.092 A
HETATM    5  C21 UNL     1      52.986  17.611 130.997  1.00  0.00     0.087 A
HETATM    6  S1  UNL     1      51.905  18.002 129.756  1.00  0.00    -0.064 SA
ENDROOT
BRANCH   4   7
HETATM    7  C10 UNL     1      55.346  18.091 131.471  1.00  0.00     0.166 C
BRANCH   7   8
HETATM    8  O1  UNL     1      55.206  18.411 132.741  1.00  0.00    -0.344 OA
ATOM      9  H1  UNL     1      55.453  17.759 133.386  1.00  0.00     0.219 HD
ENDBRANCH   7   8
BRANCH   7  10
HETATM   10  N3  UNL     1      56.646  17.641 131.195  1.00  0.00    -0.354 N
HETATM   11  C11 UNL     1      57.821  18.406 131.345  1.00  0.00     0.125 C
HETATM   12  C12 UNL     1      59.094  17.779 130.819  1.00  0.00     0.020 C
HETATM   13  C13 UNL     1      59.285  16.342 131.140  1.00  0.00     0.004 C
HETATM   14  C14 UNL     1      57.994  15.642 131.393  1.00  0.00     0.027 C
HETATM   15  C15 UNL     1      56.824  16.250 130.724  1.00  0.00     0.114 C
BRANCH  15  16
HETATM   16  C16 UNL     1      56.848  16.120 129.240  1.00  0.00     0.297 C
BRANCH  16  17
HETATM   17  N4  UNL     1      55.828  15.145 128.884  1.00  0.00     0.090 N
HETATM   18  C17 UNL     1      55.279  14.492 130.053  1.00  0.00     0.272 C
HETATM   19  C18 UNL     1      53.828  14.229 129.783  1.00  0.00     0.032 C
HETATM   20  C19 UNL     1      53.661  14.633 128.327  1.00  0.00     0.032 C
HETATM   21  C20 UNL     1      54.700  15.759 128.234  1.00  0.00     0.272 C
ENDBRANCH  16  17
ENDBRANCH  15  16
ENDBRANCH   7  10
ENDBRANCH   4   7
BRANCH   1  22
HETATM   22  N1  UNL     1      52.685  19.542 127.650  1.00  0.00    -0.365 N
ATOM     23  H1  UNL     1      53.270  20.314 127.330  1.00  0.00     0.162 HD
BRANCH  22  24
HETATM   24  C7  UNL     1      51.584  19.110 126.872  1.00  0.00     0.087 C
HETATM   25  C2  UNL     1      51.276  20.128 125.785  1.00  0.00     0.004 C
HETATM   26  C1  UNL     1      52.508  20.499 125.001  1.00  0.00     0.012 C
HETATM   27  C3  UNL     1      50.130  19.680 124.927  1.00  0.00     0.006 C
HETATM   28  C4  UNL     1      50.210  18.262 124.476  1.00  0.00     0.001 C
HETATM   29  C5  UNL     1      50.668  17.298 125.542  1.00  0.00     0.002 C
HETATM   30  C6  UNL     1      51.929  17.780 126.224  1.00  0.00     0.025 C
ENDBRANCH  22  24
ENDBRANCH   1  22
TORSDOF 7
ENDMDL