MODEL 3
REMARK VINA RESULT: -8.452670624      1.282      2.315
REMARK  5 active torsions:
REMARK  status: ('A' for Active; 'I' for Inactive)
REMARK    1  A    between atoms: C2_3  and  N2_4
REMARK    2  A    between atoms: C2_3  and  O2_10
REMARK    3  A    between atoms: N2_4  and  C3_6
REMARK    4  A    between atoms: C3_6  and  C4_7
REMARK    5  A    between atoms: O2_10  and  C6_11
ROOT
HETATM    1  C1  UNL     1      54.907  21.035 125.771  1.00  0.00     0.233 C
HETATM    2  N1  UNL     1      55.855  20.585 126.592  1.00  0.00    -0.390 NA
HETATM    3  C2  UNL     1      56.704  20.181 127.328  1.00  0.00     0.295 C
ENDROOT
BRANCH   3   4
HETATM    4  N2  UNL     1      57.740  21.035 127.831  1.00  0.00    -0.338 N
ATOM      5  H2  UNL     1      57.966  21.066 128.825  1.00  0.00     0.164 HD
BRANCH   4   6
HETATM    6  C3  UNL     1      58.447  21.844 126.878  1.00  0.00     0.202 C
BRANCH   6   7
HETATM    7  C4  UNL     1      58.110  23.284 126.990  1.00  0.00     0.140 C
HETATM    8  C5  UNL     1      57.084  23.795 127.921  1.00  0.00     0.092 C
HETATM    9  O1  UNL     1      58.707  24.070 126.285  1.00  0.00    -0.297 OA
ENDBRANCH   6   7
ENDBRANCH   4   6
ENDBRANCH   3   4
BRANCH   3  10
HETATM   10  O2  UNL     1      56.713  18.826 127.731  1.00  0.00    -0.305 OA
BRANCH  10  11
HETATM   11  C6  UNL     1      56.384  18.499 129.027  1.00  0.00     0.144 C
HETATM   12  C7  UNL     1      54.979  18.354 129.403  1.00  0.00     0.054 C
HETATM   13  C8  UNL     1      53.951  18.018 128.397  1.00  0.00     0.230 C
HETATM   14  C15 UNL     1      54.922  17.160 130.384  1.00  0.00     0.004 C
HETATM   15  C9  UNL     1      54.168  16.771 127.608  1.00  0.00     0.036 C
HETATM   16  N3  UNL     1      52.669  17.965 129.036  1.00  0.00     0.093 N
HETATM   17  C10 UNL     1      53.354  16.913 126.311  1.00  0.00     0.004 C
HETATM   18  C11 UNL     1      52.008  17.456 126.728  1.00  0.00     0.030 C
HETATM   19  C12 UNL     1      51.756  17.233 128.181  1.00  0.00     0.273 C
HETATM   20  C13 UNL     1      52.546  17.526 130.349  1.00  0.00     0.273 C
HETATM   21  C14 UNL     1      53.754  17.431 131.220  1.00  0.00     0.036 C
HETATM   22  C16 UNL     1      56.282  17.179 130.929  1.00  0.00    -0.034 C
HETATM   23  C17 UNL     1      56.649  18.380 131.728  1.00  0.00     0.016 C
HETATM   24  C18 UNL     1      56.758  15.886 131.519  1.00  0.00     0.010 C
HETATM   25  C23 UNL     1      57.043  17.261 129.583  1.00  0.00     0.024 C
HETATM   26  C19 UNL     1      58.224  15.871 131.794  1.00  0.00     0.005 C
HETATM   27  C20 UNL     1      59.098  16.631 130.899  1.00  0.00    -0.018 C
HETATM   28  C21 UNL     1      60.239  15.717 130.420  1.00  0.00     0.010 C
HETATM   29  C22 UNL     1      58.501  17.331 129.740  1.00  0.00     0.012 C
ENDBRANCH  10  11
ENDBRANCH   3  10
TORSDOF 5
ENDMDL