MODEL 4
REMARK VINA RESULT: -8.663964037      3.821      9.435
REMARK  6 active torsions:
REMARK  status: ('A' for Active; 'I' for Inactive)
REMARK    1  A    between atoms: O1_2  and  C2_3
REMARK    2  A    between atoms: C5_6  and  N1_7
REMARK    3  A    between atoms: N1_7  and  C6_9
REMARK    4  A    between atoms: C6_9  and  N2_11
REMARK    5  A    between atoms: C9_14  and  N3_15
REMARK    6  A    between atoms: N4_18  and  C12_19
ROOT
HETATM    1  N2  UNL     1      51.106  17.866 126.583  1.00  0.00    -0.358 N
HETATM    2  C7  UNL     1      51.042  16.576 127.169  1.00  0.00     0.127 C
HETATM    3  C8  UNL     1      52.339  16.152 127.867  1.00  0.00     0.040 C
HETATM    4  C9  UNL     1      53.063  17.346 128.409  1.00  0.00     0.070 C
HETATM    5  C18 UNL     1      52.034  18.394 128.756  1.00  0.00     0.040 C
HETATM    6  C19 UNL     1      51.576  18.963 127.407  1.00  0.00     0.127 C
ENDROOT
BRANCH   1   7
HETATM    7  C6  UNL     1      50.730  18.125 125.251  1.00  0.00     0.174 C
HETATM    8  S1  UNL     1      49.167  17.761 124.863  1.00  0.00    -0.041 SA
BRANCH   7   9
HETATM    9  N1  UNL     1      51.636  18.626 124.299  1.00  0.00    -0.333 N
ATOM     10  H1  UNL     1      52.339  17.980 123.939  1.00  0.00     0.168 HD
BRANCH   9  11
HETATM   11  C5  UNL     1      51.657  19.951 123.797  1.00  0.00     0.034 A
HETATM   12  C4  UNL     1      50.901  20.431 122.772  1.00  0.00     0.032 A
HETATM   13  C3  UNL     1      51.036  21.753 122.341  1.00  0.00     0.039 A
HETATM   14  C2  UNL     1      51.924  22.612 122.927  1.00  0.00     0.068 A
HETATM   15  C21 UNL     1      52.700  22.158 123.966  1.00  0.00     0.039 A
HETATM   16  C20 UNL     1      52.563  20.854 124.385  1.00  0.00     0.032 A
BRANCH  14  17
HETATM   17  O1  UNL     1      52.037  23.905 122.485  1.00  0.00    -0.356 OA
HETATM   18  C1  UNL     1      52.061  24.986 123.387  1.00  0.00     0.210 C
ENDBRANCH  14  17
ENDBRANCH   9  11
ENDBRANCH   7   9
ENDBRANCH   1   7
BRANCH   4  19
HETATM   19  N3  UNL     1      53.972  17.042 129.466  1.00  0.00    -0.263 NA
HETATM   20  C10 UNL     1      55.306  17.054 129.017  1.00  0.00     0.082 C
HETATM   21  C11 UNL     1      56.240  17.975 129.758  1.00  0.00     0.102 C
HETATM   22  N4  UNL     1      56.068  17.947 131.150  1.00  0.00    -0.360 N
HETATM   23  C16 UNL     1      54.761  17.847 131.661  1.00  0.00     0.102 C
HETATM   24  C17 UNL     1      53.666  17.696 130.676  1.00  0.00     0.082 C
BRANCH  22  25
HETATM   25  C12 UNL     1      57.156  17.792 132.007  1.00  0.00     0.088 C
HETATM   26  C13 UNL     1      56.908  17.788 133.497  1.00  0.00     0.026 C
HETATM   27  C14 UNL     1      58.147  16.891 133.602  1.00  0.00     0.004 C
HETATM   28  C15 UNL     1      57.800  16.436 132.177  1.00  0.00     0.026 C
ENDBRANCH  22  25
ENDBRANCH   4  19
TORSDOF 6
ENDMDL