MODEL 4
REMARK VINA RESULT: -9.898604471      0.872      1.208
REMARK  5 active torsions:
REMARK  status: ('A' for Active; 'I' for Inactive)
REMARK    1  A    between atoms: O1_1  and  C1_3
REMARK    2  A    between atoms: C1_3  and  C2_4
REMARK    3  A    between atoms: C5_7  and  C6_8
REMARK    4  A    between atoms: N1_14  and  C11_15
REMARK    5  A    between atoms: C11_15  and  C12_16
ROOT
HETATM    1  C6  UNL     1      51.754  17.990 125.808  1.00  0.00     0.182 C
HETATM    2  C7  UNL     1      50.748  16.922 126.100  1.00  0.00     0.208 C
HETATM    3  O2  UNL     1      51.221  16.469 127.357  1.00  0.00    -0.351 OA
HETATM    4  C8  UNL     1      51.988  17.475 127.896  1.00  0.00     0.182 C
HETATM    5  C9  UNL     1      51.619  17.864 129.300  1.00  0.00     0.090 C
HETATM    6  C10 UNL     1      52.743  17.220 130.136  1.00  0.00     0.127 C
HETATM    7  N1  UNL     1      53.855  17.376 129.316  1.00  0.00    -0.387 N
HETATM    8  C22 UNL     1      53.466  17.145 127.974  1.00  0.00     0.190 C
HETATM    9  O3  UNL     1      51.810  18.604 127.089  1.00  0.00    -0.341 OA
ENDROOT
BRANCH   7  10
HETATM   10  C11 UNL     1      54.897  18.232 129.577  1.00  0.00     0.068 C
BRANCH  10  11
HETATM   11  C12 UNL     1      56.062  17.751 130.402  1.00  0.00    -0.007 C
HETATM   12  C13 UNL     1      56.215  16.241 130.279  1.00  0.00     0.019 C
HETATM   13  C14 UNL     1      57.428  15.831 131.062  1.00  0.00    -0.013 C
HETATM   14  C15 UNL     1      57.369  16.269 132.509  1.00  0.00     0.009 C
HETATM   15  C19 UNL     1      58.639  16.457 130.384  1.00  0.00     0.009 C
HETATM   16  C16 UNL     1      57.198  17.772 132.577  1.00  0.00    -0.013 C
HETATM   17  C17 UNL     1      58.389  18.422 131.942  1.00  0.00     0.009 C
HETATM   18  C21 UNL     1      55.904  18.101 131.834  1.00  0.00     0.019 C
HETATM   19  C18 UNL     1      58.530  17.961 130.515  1.00  0.00    -0.013 C
HETATM   20  C20 UNL     1      57.295  18.411 129.779  1.00  0.00     0.019 C
ENDBRANCH  10  11
ENDBRANCH   7  10
BRANCH   1  21
HETATM   21  C5  UNL     1      51.335  19.014 124.856  1.00  0.00    -0.027 A
HETATM   22  C4  UNL     1      50.097  18.859 124.226  1.00  0.00     0.010 A
HETATM   23  C3  UNL     1      49.635  19.786 123.314  1.00  0.00     0.010 A
HETATM   24  C2  UNL     1      50.363  20.905 122.977  1.00  0.00    -0.035 A
HETATM   25  C24 UNL     1      51.585  21.048 123.603  1.00  0.00     0.010 A
HETATM   26  C23 UNL     1      52.060  20.134 124.516  1.00  0.00     0.010 A
BRANCH  24  27
HETATM   27  C1  UNL     1      49.833  21.892 121.990  1.00  0.00     0.202 C
BRANCH  27  28
HETATM   28  O1  UNL     1      48.639  21.410 121.490  1.00  0.00    -0.396 OA
ATOM     29  H1  UNL     1      48.006  21.386 122.197  1.00  0.00     0.209 HD
ENDBRANCH  27  28
ENDBRANCH  24  27
ENDBRANCH   1  21
TORSDOF 5
ENDMDL