MODEL 3
REMARK VINA RESULT: -8.164232601      2.371      4.779
REMARK  16 active torsions:
REMARK  status: ('A' for Active; 'I' for Inactive)
REMARK    1  A    between atoms: C2_2  and  C3_3
REMARK    2  A    between atoms: C3_3  and  O1_4
REMARK    3  A    between atoms: O1_4  and  C4_5
REMARK    4  A    between atoms: C4_5  and  C5_6
REMARK    5  A    between atoms: C5_6  and  C6_7
REMARK    6  A    between atoms: C6_7  and  N1_8
REMARK    7  A    between atoms: C9_11  and  C11_13
REMARK    8  A    between atoms: C11_13  and  N2_14
REMARK    9  A    between atoms: C13_19  and  C14_20
REMARK   10  A    between atoms: C15_21  and  C16_22
REMARK   11  A    between atoms: C19_25  and  C20_26
REMARK   12  A    between atoms: C20_26  and  N4_27
REMARK   13  A    between atoms: C23_30  and  O3_31
REMARK   14  A    between atoms: C28_39  and  N6_40
REMARK   15  A    between atoms: N6_40  and  C29_42
REMARK   16  A    between atoms: C29_42  and  C30_43
ROOT
HETATM    1  C30 UNL     1      21.615  24.848  20.241  1.00  0.00     0.058 C
HETATM    2  C31 UNL     1      20.161  24.862  20.647  1.00  0.00     0.033 C
HETATM    3  C32 UNL     1      22.478  24.013  21.146  1.00  0.00     0.033 C
HETATM    4  C33 UNL     1      22.044  26.283  20.330  1.00  0.00     0.070 C
HETATM    5  N7  UNL     1      22.375  27.389  20.381  1.00  0.00    -0.196 NA
ENDROOT
BRANCH   1   6
HETATM    6  C29 UNL     1      21.841  24.445  18.820  1.00  0.00     0.162 C
BRANCH   6   7
HETATM    7  N6  UNL     1      21.951  25.495  17.867  1.00  0.00    -0.224 N
ATOM      8  H6  UNL     1      22.831  26.012  17.855  1.00  0.00     0.177 HD
BRANCH   7   9
HETATM    9  C28 UNL     1      21.054  25.860  17.017  1.00  0.00     0.686 A
HETATM   10  N2  UNL     1      21.141  27.084  16.464  1.00  0.00    -0.132 N
HETATM   11  C12 UNL     1      20.131  27.406  15.595  1.00  0.00     0.342 A
HETATM   12  O2  UNL     1      20.080  28.514  15.014  1.00  0.00    -0.246 OA
HETATM   13  N3  UNL     1      19.138  26.545  15.326  1.00  0.00    -0.286 N
HETATM   14  C13 UNL     1      19.059  25.329  15.877  1.00  0.00     0.180 A
ATOM     15  H3  UNL     1      18.410  26.832  14.670  1.00  0.00     0.172 HD
HETATM   16  N5  UNL     1      20.042  25.002  16.735  1.00  0.00    -0.168 N
ATOM     17  H5  UNL     1      20.027  24.086  17.183  1.00  0.00     0.186 HD
BRANCH  10  18
HETATM   18  C11 UNL     1      22.178  28.032  16.731  1.00  0.00     0.163 C
BRANCH  18  19
HETATM   19  C9  UNL     1      23.288  28.199  15.786  1.00  0.00    -0.009 C
HETATM   20  C8  UNL     1      24.427  29.086  16.142  1.00  0.00     0.032 C
HETATM   21  C7  UNL     1      25.438  28.221  16.911  1.00  0.00     0.122 C
HETATM   22  N1  UNL     1      24.986  26.923  16.681  1.00  0.00    -0.392 N
HETATM   23  C34 UNL     1      24.024  26.810  15.667  1.00  0.00     0.132 C
HETATM   24  C10 UNL     1      22.887  28.508  14.355  1.00  0.00     0.018 C
BRANCH  22  25
HETATM   25  C6  UNL     1      25.529  25.812  17.309  1.00  0.00     0.060 C
BRANCH  25  26
HETATM   26  C5  UNL     1      25.474  25.776  18.820  1.00  0.00     0.070 C
BRANCH  26  27
HETATM   27  C4  UNL     1      25.659  24.340  19.263  1.00  0.00     0.172 C
BRANCH  27  28
HETATM   28  O1  UNL     1      25.091  23.510  18.303  1.00  0.00    -0.391 OA
BRANCH  28  29
HETATM   29  C3  UNL     1      24.954  22.201  18.717  1.00  0.00     0.167 C
BRANCH  29  30
HETATM   30  C2  UNL     1      26.220  21.412  18.746  1.00  0.00     0.022 C
HETATM   31  C1  UNL     1      25.854  19.934  18.636  1.00  0.00     0.007 C
ENDBRANCH  29  30
ENDBRANCH  28  29
ENDBRANCH  27  28
ENDBRANCH  26  27
ENDBRANCH  25  26
ENDBRANCH  22  25
ENDBRANCH  18  19
ENDBRANCH  10  18
BRANCH  14  32
HETATM   32  C14 UNL     1      17.998  24.405  15.587  1.00  0.00    -0.024 C
HETATM   33  C15 UNL     1      17.123  23.621  15.325  1.00  0.00    -0.059 C
BRANCH  33  34
HETATM   34  C16 UNL     1      16.097  22.677  14.992  1.00  0.00     0.018 A
HETATM   35  C17 UNL     1      15.891  22.329  13.677  1.00  0.00     0.021 A
HETATM   36  C18 UNL     1      14.898  21.422  13.366  1.00  0.00     0.010 A
HETATM   37  C19 UNL     1      14.094  20.840  14.317  1.00  0.00    -0.030 A
HETATM   38  C26 UNL     1      14.305  21.191  15.631  1.00  0.00     0.010 A
HETATM   39  C27 UNL     1      15.305  22.108  15.960  1.00  0.00     0.021 A
BRANCH  37  40
HETATM   40  C20 UNL     1      13.066  19.874  13.874  1.00  0.00     0.311 C
BRANCH  40  41
HETATM   41  N4  UNL     1      11.788  20.304  14.345  1.00  0.00     0.092 N
HETATM   42  C21 UNL     1      11.456  21.649  13.933  1.00  0.00     0.275 C
HETATM   43  C22 UNL     1      10.029  21.732  13.489  1.00  0.00     0.062 C
HETATM   44  C23 UNL     1       9.720  20.737  12.402  1.00  0.00     0.121 C
HETATM   45  C24 UNL     1      10.259  19.379  12.737  1.00  0.00     0.062 C
HETATM   46  C25 UNL     1      10.712  19.383  14.177  1.00  0.00     0.275 C
BRANCH  44  47
HETATM   47  O3  UNL     1       8.336  20.647  12.277  1.00  0.00    -0.395 OA
ATOM     48  H3  UNL     1       8.081  19.749  12.451  1.00  0.00     0.210 HD
ENDBRANCH  44  47
ENDBRANCH  40  41
ENDBRANCH  37  40
ENDBRANCH  33  34
ENDBRANCH  14  32
ENDBRANCH   7   9
ENDBRANCH   6   7
ENDBRANCH   1   6
TORSDOF 16
ENDMDL