MODEL 3
REMARK VINA RESULT: -8.988409930      2.062      3.178
REMARK  12 active torsions:
REMARK  status: ('A' for Active; 'I' for Inactive)
REMARK    1  A    between atoms: C5_5  and  C6_6
REMARK       I    between atoms: C6_6  and  N1_8
REMARK    2  A    between atoms: N1_8  and  C7_10
REMARK    3  A    between atoms: C7_10  and  C8_11
REMARK    4  A    between atoms: C8_11  and  C9_12
REMARK    5  A    between atoms: C9_12  and  N2_13
REMARK       I    between atoms: N2_13  and  C10_15
REMARK    6  A    between atoms: C10_15  and  C11_17
REMARK    7  A    between atoms: C12_18  and  C13_19
REMARK    8  A    between atoms: C13_19  and  N3_20
REMARK    9  A    between atoms: C16_25  and  C17_26
REMARK   10  A    between atoms: C23_33  and  S1_34
REMARK   11  A    between atoms: S1_34  and  N5_37
REMARK   12  A    between atoms: N5_37  and  C25_39
ROOT
HETATM    1  C1  UNL     1      15.125  21.568  13.036  1.00  0.00     0.018 C
HETATM    2  C2  UNL     1      14.876  21.415  14.206  1.00  0.00    -0.076 C
HETATM    3  C3  UNL     1      14.539  21.256  15.616  1.00  0.00     0.041 A
HETATM    4  C4  UNL     1      13.494  20.417  15.939  1.00  0.00     0.039 A
HETATM    5  C5  UNL     1      13.067  20.277  17.261  1.00  0.00     0.033 A
HETATM    6  C21 UNL     1      13.732  21.008  18.213  1.00  0.00     0.018 A
HETATM    7  C22 UNL     1      14.777  21.841  17.867  1.00  0.00     0.028 A
HETATM    8  C23 UNL     1      15.220  21.993  16.546  1.00  0.00     0.098 A
ENDROOT
BRANCH   8   9
HETATM    9  S1  UNL     1      16.597  22.963  16.214  1.00  0.00     0.266 S
HETATM   10  O4  UNL     1      16.283  24.056  15.196  1.00  0.00    -0.200 OA
HETATM   11  O5  UNL     1      17.703  22.150  15.538  1.00  0.00    -0.200 OA
BRANCH   9  12
HETATM   12  N5  UNL     1      17.324  23.733  17.546  1.00  0.00    -0.272 N
HETATM   13  C24 UNL     1      16.480  24.834  18.119  1.00  0.00     0.170 C
BRANCH  12  14
HETATM   14  C25 UNL     1      18.557  23.445  18.148  1.00  0.00     0.092 A
HETATM   15  C26 UNL     1      18.821  22.540  19.130  1.00  0.00     0.051 A
HETATM   16  C27 UNL     1      17.954  21.584  19.841  1.00  0.00     0.072 C
HETATM   17  N6  UNL     1      20.140  22.676  19.439  1.00  0.00    -0.301 N
HETATM   18  N7  UNL     1      20.709  23.605  18.711  1.00  0.00    -0.299 N
ATOM     19  H6  UNL     1      20.624  22.124  20.146  1.00  0.00     0.187 HD
HETATM   20  C28 UNL     1      22.092  24.058  18.730  1.00  0.00     0.177 C
HETATM   21  C29 UNL     1      19.748  24.108  17.892  1.00  0.00     0.053 A
HETATM   22  C30 UNL     1      19.973  25.182  16.900  1.00  0.00     0.072 C
ENDBRANCH  12  14
ENDBRANCH   9  12
ENDBRANCH   8   9
BRANCH   5  23
HETATM   23  C6  UNL     1      11.941  19.378  17.553  1.00  0.00     0.251 C
HETATM   24  O1  UNL     1      10.788  19.891  17.673  1.00  0.00    -0.268 OA
HETATM   25  N1  UNL     1      12.096  17.997  17.700  1.00  0.00    -0.357 N
ATOM     26  H1  UNL     1      13.036  17.617  17.588  1.00  0.00     0.162 HD
BRANCH  25  27
HETATM   27  C7  UNL     1      11.038  17.069  17.994  1.00  0.00     0.124 C
BRANCH  27  28
HETATM   28  C8  UNL     1      11.118  15.843  17.124  1.00  0.00     0.039 C
BRANCH  28  29
HETATM   29  C9  UNL     1      10.349  16.051  15.827  1.00  0.00     0.124 C
BRANCH  29  30
HETATM   30  N2  UNL     1      11.159  16.730  14.853  1.00  0.00    -0.358 N
HETATM   31  C10 UNL     1      10.706  18.012  14.345  1.00  0.00     0.240 C
HETATM   32  O2  UNL     1       9.621  18.421  14.803  1.00  0.00    -0.269 OA
ATOM     33  H2  UNL     1      12.033  16.320  14.525  1.00  0.00     0.162 HD
BRANCH  31  34
HETATM   34  C11 UNL     1      11.509  18.704  13.382  1.00  0.00     0.072 C
HETATM   35  C12 UNL     1      11.409  19.872  12.877  1.00  0.00     0.000 C
BRANCH  35  36
HETATM   36  C13 UNL     1      10.379  20.870  13.165  1.00  0.00     0.176 C
BRANCH  36  37
HETATM   37  N3  UNL     1       9.385  20.885  12.071  1.00  0.00    -0.292 N
HETATM   38  N4  UNL     1       9.404  20.022  11.063  1.00  0.00    -0.302 N
HETATM   39  C14 UNL     1       8.374  20.304  10.279  1.00  0.00     0.038 A
ATOM     40  H4  UNL     1      10.087  19.278  10.919  1.00  0.00     0.186 HD
HETATM   41  C15 UNL     1       7.955  19.612   9.011  1.00  0.00     0.070 C
HETATM   42  C16 UNL     1       7.677  21.371  10.793  1.00  0.00     0.057 A
HETATM   43  C19 UNL     1       8.367  21.722  11.963  1.00  0.00     0.041 A
HETATM   44  C20 UNL     1       7.970  22.830  12.845  1.00  0.00     0.071 C
BRANCH  42  45
HETATM   45  C17 UNL     1       6.490  22.015  10.274  1.00  0.00     0.159 C
HETATM   46  C18 UNL     1       6.633  23.109   9.260  1.00  0.00     0.097 C
HETATM   47  O3  UNL     1       5.366  21.656  10.671  1.00  0.00    -0.293 OA
ENDBRANCH  42  45
ENDBRANCH  36  37
ENDBRANCH  35  36
ENDBRANCH  31  34
ENDBRANCH  29  30
ENDBRANCH  28  29
ENDBRANCH  27  28
ENDBRANCH  25  27
ENDBRANCH   5  23
TORSDOF 12
ENDMDL