MODEL 1
REMARK VINA RESULT: -9.123426411      0.000      0.000
REMARK  14 active torsions:
REMARK  status: ('A' for Active; 'I' for Inactive)
REMARK    1  A    between atoms: C2_2  and  O1_5
REMARK    2  A    between atoms: O1_5  and  C5_6
REMARK       I    between atoms: C5_6  and  N1_8
REMARK    3  A    between atoms: N1_8  and  C6_10
REMARK    4  A    between atoms: C6_10  and  C7_11
REMARK    5  A    between atoms: C7_11  and  O3_12
REMARK    6  A    between atoms: O3_12  and  C8_13
REMARK    7  A    between atoms: C10_17  and  O4_18
REMARK    8  A    between atoms: O4_18  and  C11_19
REMARK    9  A    between atoms: C11_19  and  C12_20
REMARK   10  A    between atoms: C12_20  and  C13_21
REMARK       I    between atoms: C13_21  and  N3_23
REMARK   11  A    between atoms: C19_29  and  C20_30
REMARK       I    between atoms: C20_30  and  N4_32
REMARK   12  A    between atoms: N5_35  and  C23_36
REMARK   13  A    between atoms: C23_36  and  C24_37
REMARK   14  A    between atoms: C24_37  and  C25_38
ROOT
HETATM    1  C8  UNL     1      15.917  22.601  15.232  1.00  0.00     0.158 A
HETATM    2  N2  UNL     1      14.802  22.826  14.515  1.00  0.00    -0.343 N
ATOM      3  H2  UNL     1      14.778  23.617  13.872  1.00  0.00     0.167 HD
HETATM    4  C9  UNL     1      13.723  22.041  14.621  1.00  0.00     0.127 A
HETATM    5  C10 UNL     1      13.697  20.956  15.474  1.00  0.00     0.085 A
HETATM    6  C18 UNL     1      14.813  20.685  16.229  1.00  0.00     0.059 A
HETATM    7  C19 UNL     1      15.914  21.499  16.110  1.00  0.00     0.085 A
ENDROOT
BRANCH   7   8
HETATM    8  C20 UNL     1      17.105  21.226  16.905  1.00  0.00     0.258 C
HETATM    9  O6  UNL     1      17.902  20.361  16.420  1.00  0.00    -0.267 OA
HETATM   10  N4  UNL     1      17.394  21.856  18.135  1.00  0.00    -0.345 N
HETATM   11  C21 UNL     1      18.590  21.522  18.840  1.00  0.00     0.145 C
HETATM   12  C31 UNL     1      16.476  22.836  18.673  1.00  0.00     0.145 C
HETATM   13  C22 UNL     1      18.626  22.089  20.236  1.00  0.00     0.136 C
HETATM   14  N5  UNL     1      18.037  23.369  20.395  1.00  0.00    -0.409 N
HETATM   15  C30 UNL     1      17.333  23.917  19.294  1.00  0.00     0.136 C
BRANCH  14  16
HETATM   16  C23 UNL     1      18.894  24.320  21.074  1.00  0.00     0.119 C
BRANCH  16  17
HETATM   17  C24 UNL     1      19.842  25.012  20.160  1.00  0.00     0.052 C
BRANCH  17  18
HETATM   18  C25 UNL     1      21.173  24.297  20.197  1.00  0.00     0.187 C
HETATM   19  C26 UNL     1      22.096  24.930  21.229  1.00  0.00     0.033 C
HETATM   20  C27 UNL     1      23.278  24.023  21.400  1.00  0.00     0.004 C
HETATM   21  C28 UNL     1      23.992  23.903  20.055  1.00  0.00     0.027 C
HETATM   22  C29 UNL     1      22.994  23.339  19.090  1.00  0.00     0.232 C
HETATM   23  N6  UNL     1      21.878  24.273  18.957  1.00  0.00    -0.071 N
ATOM     24  H62 UNL     1      21.275  24.056  18.163  1.00  0.00     0.277 HD
ATOM     25  H61 UNL     1      22.175  25.201  18.653  1.00  0.00     0.277 HD
ENDBRANCH  17  18
ENDBRANCH  16  17
ENDBRANCH  14  16
ENDBRANCH   7   8
BRANCH   1  26
HETATM   26  O3  UNL     1      17.061  23.343  15.196  1.00  0.00    -0.333 OA
BRANCH  26  27
HETATM   27  C7  UNL     1      17.195  24.700  15.450  1.00  0.00     0.197 C
BRANCH  27  28
HETATM   28  C6  UNL     1      18.551  25.005  16.017  1.00  0.00     0.151 C
BRANCH  28  29
HETATM   29  N1  UNL     1      19.139  26.219  15.519  1.00  0.00    -0.335 N
HETATM   30  C5  UNL     1      20.071  26.948  16.298  1.00  0.00     0.361 C
HETATM   31  O2  UNL     1      20.457  26.618  17.442  1.00  0.00    -0.238 OA
ATOM     32  H1  UNL     1      18.881  26.560  14.592  1.00  0.00     0.164 HD
BRANCH  30  33
HETATM   33  O1  UNL     1      20.627  28.137  15.787  1.00  0.00    -0.294 OA
BRANCH  33  34
HETATM   34  C2  UNL     1      21.796  28.086  15.033  1.00  0.00     0.061 C
HETATM   35  C1  UNL     1      22.526  26.781  15.074  1.00  0.00     0.046 C
HETATM   36  C3  UNL     1      21.419  28.348  13.572  1.00  0.00     0.046 C
HETATM   37  C4  UNL     1      22.782  29.169  15.443  1.00  0.00     0.046 C
ENDBRANCH  33  34
ENDBRANCH  30  33
ENDBRANCH  28  29
ENDBRANCH  27  28
ENDBRANCH  26  27
ENDBRANCH   1  26
BRANCH   5  38
HETATM   38  O4  UNL     1      12.567  20.185  15.544  1.00  0.00    -0.349 OA
BRANCH  38  39
HETATM   39  C11 UNL     1      11.250  20.605  15.347  1.00  0.00     0.185 C
BRANCH  39  40
HETATM   40  C12 UNL     1      10.411  19.985  16.450  1.00  0.00     0.129 C
BRANCH  40  41
HETATM   41  C13 UNL     1      10.918  18.613  16.703  1.00  0.00     0.221 C
HETATM   42  O5  UNL     1      10.657  17.675  15.880  1.00  0.00    -0.273 OA
HETATM   43  N3  UNL     1      11.690  18.335  17.849  1.00  0.00    -0.352 N
HETATM   44  C14 UNL     1      12.066  19.277  18.866  1.00  0.00     0.126 C
HETATM   45  C17 UNL     1      12.241  17.057  18.208  1.00  0.00     0.126 C
HETATM   46  C15 UNL     1      13.481  18.865  19.201  1.00  0.00     0.021 C
HETATM   47  C16 UNL     1      13.630  17.438  18.682  1.00  0.00     0.021 C
ENDBRANCH  40  41
ENDBRANCH  39  40
ENDBRANCH  38  39
ENDBRANCH   5  38
TORSDOF 14
ENDMDL