MODEL 3
REMARK VINA RESULT: -8.558851003      1.964      4.131
REMARK  14 active torsions:
REMARK  status: ('A' for Active; 'I' for Inactive)
REMARK    1  A    between atoms: C5_9  and  C6_10
REMARK    2  A    between atoms: C6_10  and  C7_11
REMARK    3  A    between atoms: C7_11  and  C8_12
REMARK    4  A    between atoms: C8_12  and  N3_13
REMARK    5  A    between atoms: N4_16  and  C11_17
REMARK    6  A    between atoms: C11_17  and  C12_18
REMARK    7  A    between atoms: C12_18  and  C13_19
REMARK    8  A    between atoms: C13_19  and  C14_20
REMARK    9  A    between atoms: C14_20  and  C15_21
REMARK   10  A    between atoms: C15_21  and  C16_22
REMARK       I    between atoms: C16_22  and  N5_24
REMARK   11  A    between atoms: N5_24  and  C17_26
REMARK   12  A    between atoms: C21_34  and  O5_35
REMARK   13  A    between atoms: O5_35  and  C22_36
REMARK   14  A    between atoms: C22_36  and  C23_38
ROOT
HETATM    1  C16 UNL     1      14.910  21.496  14.768  1.00  0.00     0.218 C
HETATM    2  O1  UNL     1      15.709  21.611  13.802  1.00  0.00    -0.274 OA
HETATM    3  N5  UNL     1      15.222  21.962  16.066  1.00  0.00    -0.345 N
ATOM      4  H5  UNL     1      14.553  21.862  16.830  1.00  0.00     0.163 HD
ENDROOT
BRANCH   1   5
HETATM    5  C15 UNL     1      13.563  20.834  14.530  1.00  0.00     0.103 C
BRANCH   5   6
HETATM    6  C14 UNL     1      13.532  20.377  13.118  1.00  0.00     0.009 C
BRANCH   6   7
HETATM    7  C13 UNL     1      13.241  18.994  12.781  1.00  0.00     0.002 C
BRANCH   7   8
HETATM    8  C12 UNL     1      11.999  18.550  12.128  1.00  0.00     0.030 C
BRANCH   8   9
HETATM    9  C11 UNL     1      11.104  19.535  11.501  1.00  0.00     0.275 C
BRANCH   9  10
HETATM   10  N4  UNL     1       9.790  19.539  12.181  1.00  0.00     0.118 N
HETATM   11  C10 UNL     1       9.258  20.905  12.123  1.00  0.00     0.304 C
HETATM   12  C9  UNL     1       9.145  21.325  13.555  1.00  0.00     0.304 C
HETATM   13  N3  UNL     1       9.955  20.441  14.298  1.00  0.00     0.118 N
HETATM   14  C29 UNL     1       9.974  19.223  13.568  1.00  0.00     0.542 C
BRANCH  13  15
HETATM   15  C8  UNL     1       9.656  20.326  15.711  1.00  0.00     0.275 C
BRANCH  15  16
HETATM   16  C7  UNL     1      10.147  19.071  16.310  1.00  0.00     0.035 C
BRANCH  16  17
HETATM   17  C6  UNL     1      10.693  19.234  17.686  1.00  0.00     0.044 C
BRANCH  17  18
HETATM   18  C5  UNL     1      11.988  18.599  17.964  1.00  0.00    -0.011 A
HETATM   19  C2  UNL     1      13.174  19.191  18.257  1.00  0.00     0.030 A
HETATM   20  C1  UNL     1      13.551  20.619  18.470  1.00  0.00     0.070 C
HETATM   21  N1  UNL     1      14.082  18.187  18.387  1.00  0.00    -0.305 N
HETATM   22  N2  UNL     1      13.501  17.028  18.190  1.00  0.00    -0.305 N
ATOM     23  H1  UNL     1      15.070  18.316  18.605  1.00  0.00     0.186 HD
HETATM   24  C3  UNL     1      12.220  17.221  17.927  1.00  0.00     0.030 A
ATOM     25  H2  UNL     1      13.964  16.120  18.232  1.00  0.00     0.186 HD
HETATM   26  C4  UNL     1      11.186  16.186  17.646  1.00  0.00     0.070 C
ENDBRANCH  17  18
ENDBRANCH  16  17
ENDBRANCH  15  16
ENDBRANCH  13  15
ENDBRANCH   9  10
ENDBRANCH   8   9
ENDBRANCH   7   8
ENDBRANCH   6   7
ENDBRANCH   5   6
ENDBRANCH   1   5
BRANCH   3  27
HETATM   27  C17 UNL     1      16.495  22.577  16.286  1.00  0.00     0.210 C
HETATM   28  C18 UNL     1      17.463  21.642  16.909  1.00  0.00     0.255 C
HETATM   29  O2  UNL     1      17.731  20.435  16.693  1.00  0.00    -0.270 OA
HETATM   30  N6  UNL     1      17.917  22.671  17.803  1.00  0.00    -0.245 N
HETATM   31  C19 UNL     1      19.059  22.986  18.583  1.00  0.00     0.375 C
HETATM   32  C28 UNL     1      16.662  23.334  17.595  1.00  0.00     0.192 C
HETATM   33  O3  UNL     1      19.711  22.010  19.069  1.00  0.00    -0.237 OA
HETATM   34  O4  UNL     1      19.522  24.281  18.861  1.00  0.00    -0.263 OA
HETATM   35  C20 UNL     1      19.517  25.365  17.969  1.00  0.00     0.090 C
HETATM   36  C21 UNL     1      20.463  26.246  18.136  1.00  0.00     0.179 C
HETATM   37  C27 UNL     1      18.543  25.572  16.880  1.00  0.00     0.143 C
HETATM   38  S1  UNL     1      16.857  25.126  17.404  1.00  0.00    -0.134 SA
BRANCH  36  39
HETATM   39  O5  UNL     1      20.563  27.350  17.324  1.00  0.00    -0.288 OA
BRANCH  39  40
HETATM   40  C22 UNL     1      21.608  27.628  16.484  1.00  0.00     0.271 C
HETATM   41  O6  UNL     1      22.728  27.859  17.000  1.00  0.00    -0.264 OA
BRANCH  40  42
HETATM   42  C23 UNL     1      21.429  27.657  15.001  1.00  0.00     0.037 C
HETATM   43  C24 UNL     1      22.425  28.566  14.361  1.00  0.00     0.025 C
HETATM   44  C25 UNL     1      20.046  28.176  14.628  1.00  0.00     0.025 C
HETATM   45  C26 UNL     1      21.577  26.260  14.440  1.00  0.00     0.025 C
ENDBRANCH  40  42
ENDBRANCH  39  40
ENDBRANCH  36  39
ENDBRANCH   3  27
TORSDOF 14
ENDMDL