MODEL 4
REMARK VINA RESULT: -9.275637211      2.054      4.457
REMARK  12 active torsions:
REMARK  status: ('A' for Active; 'I' for Inactive)
REMARK    1  A    between atoms: C2_2  and  C3_3
REMARK    2  A    between atoms: C5_5  and  C6_6
REMARK       I    between atoms: C6_6  and  N1_8
REMARK    3  A    between atoms: N1_8  and  C7_10
REMARK    4  A    between atoms: C7_10  and  C8_11
REMARK       I    between atoms: C8_11  and  N2_13
REMARK    5  A    between atoms: N2_13  and  C9_15
REMARK    6  A    between atoms: N3_18  and  C12_19
REMARK    7  A    between atoms: C12_19  and  C13_20
REMARK    8  A    between atoms: N4_23  and  C16_24
REMARK    9  A    between atoms: C16_24  and  C17_25
REMARK   10  A    between atoms: C17_25  and  C18_26
REMARK   11  A    between atoms: N5_29  and  C21_30
REMARK   12  A    between atoms: C24_37  and  N8_38
ROOT
HETATM    1  C13 UNL     1      17.306  23.735  16.360  1.00  0.00     0.055 A
HETATM    2  C14 UNL     1      16.747  24.544  17.321  1.00  0.00     0.047 A
HETATM    3  C15 UNL     1      17.670  24.559  18.345  1.00  0.00     0.112 A
HETATM    4  N4  UNL     1      18.711  23.797  17.997  1.00  0.00    -0.303 N
HETATM    5  N9  UNL     1      18.479  23.310  16.803  1.00  0.00    -0.301 N
ATOM      6  H9  UNL     1      19.110  22.693  16.290  1.00  0.00     0.187 HD
ENDROOT
BRANCH   4   7
HETATM    7  C16 UNL     1      19.908  23.518  18.767  1.00  0.00     0.148 C
BRANCH   7   8
HETATM    8  C17 UNL     1      21.158  24.125  18.228  1.00  0.00     0.026 C
BRANCH   8   9
HETATM    9  C18 UNL     1      22.109  24.520  19.328  1.00  0.00    -0.010 C
HETATM   10  C19 UNL     1      21.955  25.954  19.757  1.00  0.00     0.024 C
HETATM   11  C20 UNL     1      23.319  26.634  19.766  1.00  0.00     0.125 C
HETATM   12  N5  UNL     1      23.947  26.489  18.475  1.00  0.00    -0.365 N
HETATM   13  C30 UNL     1      24.226  25.121  18.082  1.00  0.00     0.125 C
HETATM   14  C31 UNL     1      23.536  24.135  18.995  1.00  0.00     0.024 C
BRANCH  12  15
HETATM   15  C21 UNL     1      24.255  27.561  17.657  1.00  0.00     0.132 A
HETATM   16  N6  UNL     1      25.455  28.175  17.890  1.00  0.00    -0.337 N
HETATM   17  C22 UNL     1      25.927  29.199  17.195  1.00  0.00     0.182 A
ATOM     18  H6  UNL     1      26.027  27.819  18.656  1.00  0.00     0.168 HD
HETATM   19  N7  UNL     1      25.170  29.663  16.192  1.00  0.00    -0.360 N
HETATM   20  C23 UNL     1      23.983  29.145  15.873  1.00  0.00     0.122 A
ATOM     21  H7  UNL     1      25.518  30.452  15.645  1.00  0.00     0.166 HD
HETATM   22  C24 UNL     1      23.497  28.055  16.627  1.00  0.00     0.090 A
BRANCH  22  23
HETATM   23  N8  UNL     1      22.257  27.549  16.266  1.00  0.00    -0.377 N
HETATM   24  C25 UNL     1      22.163  26.766  15.016  1.00  0.00     0.123 C
HETATM   25  C26 UNL     1      21.025  27.354  14.177  1.00  0.00     0.020 C
HETATM   26  C27 UNL     1      19.751  26.917  14.877  1.00  0.00     0.003 C
HETATM   27  C28 UNL     1      20.001  26.598  16.322  1.00  0.00     0.020 C
HETATM   28  C29 UNL     1      20.990  27.625  16.934  1.00  0.00     0.123 C
ENDBRANCH  22  23
ENDBRANCH  12  15
ENDBRANCH   8   9
ENDBRANCH   7   8
ENDBRANCH   4   7
BRANCH   1  29
HETATM   29  C12 UNL     1      16.660  23.405  15.048  1.00  0.00     0.330 C
BRANCH  29  30
HETATM   30  N3  UNL     1      15.945  22.169  15.047  1.00  0.00     0.094 N
HETATM   31  C11 UNL     1      14.945  22.267  16.111  1.00  0.00     0.275 C
HETATM   32  C10 UNL     1      13.655  22.868  15.624  1.00  0.00     0.055 C
HETATM   33  C9  UNL     1      12.991  21.953  14.616  1.00  0.00     0.087 C
HETATM   34  C33 UNL     1      14.054  21.012  14.086  1.00  0.00     0.055 C
HETATM   35  C32 UNL     1      15.290  21.870  13.784  1.00  0.00     0.275 C
BRANCH  33  36
HETATM   36  N2  UNL     1      11.892  21.214  15.217  1.00  0.00    -0.355 N
HETATM   37  C8  UNL     1      10.607  21.183  14.589  1.00  0.00     0.235 C
HETATM   38  O2  UNL     1      10.448  21.808  13.516  1.00  0.00    -0.272 OA
ATOM     39  H2  UNL     1      12.038  20.714  16.093  1.00  0.00     0.162 HD
BRANCH  37  40
HETATM   40  C7  UNL     1       9.509  20.417  15.220  1.00  0.00     0.225 C
BRANCH  40  41
HETATM   41  N1  UNL     1       9.884  19.861  16.484  1.00  0.00    -0.352 N
HETATM   42  C6  UNL     1      10.216  18.483  16.622  1.00  0.00     0.222 C
HETATM   43  O1  UNL     1      10.194  17.708  15.641  1.00  0.00    -0.273 OA
ATOM     44  H1  UNL     1       9.915  20.465  17.306  1.00  0.00     0.162 HD
BRANCH  42  45
HETATM   45  C5  UNL     1      10.605  17.915  17.958  1.00  0.00     0.086 A
HETATM   46  C3  UNL     1      11.886  18.287  18.570  1.00  0.00     0.021 A
HETATM   47  C4  UNL     1      11.783  16.959  17.901  1.00  0.00     0.024 A
BRANCH  46  48
HETATM   48  C2  UNL     1      11.948  18.275  20.054  1.00  0.00    -0.031 C
HETATM   49  C1  UNL     1      13.075  18.689  20.633  1.00  0.00     0.007 C
ENDBRANCH  46  48
ENDBRANCH  42  45
ENDBRANCH  40  41
ENDBRANCH  37  40
ENDBRANCH  33  36
ENDBRANCH  29  30
ENDBRANCH   1  29
TORSDOF 12
ENDMDL