MODEL 4
REMARK VINA RESULT: -9.221214691      2.784     10.868
REMARK  12 active torsions:
REMARK  status: ('A' for Active; 'I' for Inactive)
REMARK    1  A    between atoms: C2_2  and  C3_3
REMARK    2  A    between atoms: C3_3  and  N1_4
REMARK    3  A    between atoms: C5_6  and  C6_7
REMARK       I    between atoms: C6_7  and  N2_9
REMARK    4  A    between atoms: N2_9  and  C7_11
REMARK    5  A    between atoms: C7_11  and  C8_12
REMARK    6  A    between atoms: C8_12  and  C9_13
REMARK    7  A    between atoms: C9_13  and  N3_14
REMARK    8  A    between atoms: N4_17  and  C12_18
REMARK    9  A    between atoms: C12_18  and  C13_19
REMARK   10  A    between atoms: C13_19  and  C14_20
REMARK   11  A    between atoms: C14_20  and  N5_21
REMARK   12  A    between atoms: C27_35  and  O3_36
ROOT
HETATM    1  N1  UNL     1      13.886  20.877  17.013  1.00  0.00    -0.354 N
HETATM    2  C4  UNL     1      15.110  21.478  17.038  1.00  0.00     0.112 A
HETATM    3  C5  UNL     1      15.879  21.821  15.951  1.00  0.00     0.098 A
HETATM    4  C22 UNL     1      15.365  21.529  14.737  1.00  0.00     0.201 A
HETATM    5  O2  UNL     1      15.948  21.776  13.647  1.00  0.00    -0.286 OA
HETATM    6  C23 UNL     1      14.138  20.922  14.643  1.00  0.00     0.044 A
HETATM    7  C24 UNL     1      13.633  20.626  13.381  1.00  0.00     0.031 A
HETATM    8  C25 UNL     1      12.421  20.015  13.227  1.00  0.00    -0.004 A
HETATM    9  C26 UNL     1      11.900  19.714  11.999  1.00  0.00     0.056 A
HETATM   10  C27 UNL     1      10.661  19.091  11.869  1.00  0.00     0.137 A
HETATM   11  C29 UNL     1      10.020  18.811  13.053  1.00  0.00     0.279 A
HETATM   12  O4  UNL     1       8.884  18.241  12.960  1.00  0.00    -0.265 OA
HETATM   13  N6  UNL     1      10.517  19.101  14.275  1.00  0.00    -0.319 N
ATOM     14  H6  UNL     1       9.992  18.869  15.117  1.00  0.00     0.169 HD
HETATM   15  C30 UNL     1      11.720  19.705  14.360  1.00  0.00     0.068 A
HETATM   16  C31 UNL     1      12.185  19.983  15.662  1.00  0.00     0.100 A
HETATM   17  C32 UNL     1      11.369  19.565  16.758  1.00  0.00     0.104 C
HETATM   18  N7  UNL     1      10.653  19.189  17.596  1.00  0.00    -0.191 NA
HETATM   19  C33 UNL     1      13.392  20.593  15.795  1.00  0.00     0.071 A
ENDROOT
BRANCH   1  20
HETATM   20  C3  UNL     1      13.202  20.682  18.233  1.00  0.00     0.128 C
BRANCH  20  21
HETATM   21  C2  UNL     1      14.018  19.963  19.299  1.00  0.00     0.016 C
HETATM   22  C1  UNL     1      13.234  18.913  20.042  1.00  0.00     0.006 C
ENDBRANCH  20  21
ENDBRANCH   1  20
BRANCH  10  23
HETATM   23  O3  UNL     1      10.113  18.775  10.629  1.00  0.00    -0.351 OA
HETATM   24  C28 UNL     1      10.793  17.841   9.811  1.00  0.00     0.210 C
ENDBRANCH  10  23
BRANCH   3  25
HETATM   25  C6  UNL     1      17.152  22.502  16.142  1.00  0.00     0.257 C
HETATM   26  O1  UNL     1      18.028  21.851  16.788  1.00  0.00    -0.267 OA
HETATM   27  N2  UNL     1      17.411  23.797  15.654  1.00  0.00    -0.356 N
ATOM     28  H2  UNL     1      16.715  24.334  15.137  1.00  0.00     0.162 HD
BRANCH  27  29
HETATM   29  C7  UNL     1      18.754  24.322  15.942  1.00  0.00     0.128 C
BRANCH  29  30
HETATM   30  C8  UNL     1      18.808  25.831  15.672  1.00  0.00     0.065 C
BRANCH  30  31
HETATM   31  C9  UNL     1      20.285  26.161  15.612  1.00  0.00     0.069 C
BRANCH  31  32
HETATM   32  N3  UNL     1      20.932  26.368  16.824  1.00  0.00    -0.351 N
HETATM   33  C10 UNL     1      21.607  25.324  17.483  1.00  0.00     0.098 C
HETATM   34  C11 UNL     1      22.899  25.866  18.045  1.00  0.00     0.318 C
HETATM   35  N4  UNL     1      22.605  26.907  18.991  1.00  0.00     0.098 N
HETATM   36  C20 UNL     1      21.246  27.353  19.018  1.00  0.00     0.318 C
HETATM   37  C21 UNL     1      20.643  27.493  17.619  1.00  0.00     0.098 C
BRANCH  35  38
HETATM   38  C12 UNL     1      22.917  26.370  20.331  1.00  0.00     0.278 C
BRANCH  38  39
HETATM   39  C13 UNL     1      21.679  25.801  20.945  1.00  0.00     0.074 C
BRANCH  39  40
HETATM   40  C14 UNL     1      21.627  24.320  21.016  1.00  0.00     0.060 C
BRANCH  40  41
HETATM   41  N5  UNL     1      20.504  23.642  20.533  1.00  0.00    -0.393 N
HETATM   42  C15 UNL     1      20.572  22.628  19.576  1.00  0.00     0.122 C
HETATM   43  C16 UNL     1      19.452  21.610  19.901  1.00  0.00     0.020 C
HETATM   44  C17 UNL     1      18.405  22.280  20.774  1.00  0.00     0.003 C
HETATM   45  C18 UNL     1      18.086  23.669  20.282  1.00  0.00     0.020 C
HETATM   46  C19 UNL     1      19.354  24.476  20.271  1.00  0.00     0.122 C
ENDBRANCH  40  41
ENDBRANCH  39  40
ENDBRANCH  38  39
ENDBRANCH  35  38
ENDBRANCH  31  32
ENDBRANCH  30  31
ENDBRANCH  29  30
ENDBRANCH  27  29
ENDBRANCH   3  25
TORSDOF 12
ENDMDL