MODEL 3
REMARK VINA RESULT: -8.853194956      1.779     11.591
REMARK  15 active torsions:
REMARK  status: ('A' for Active; 'I' for Inactive)
REMARK    1  A    between atoms: C2_2  and  N1_3
REMARK    2  A    between atoms: N2_6  and  C5_7
REMARK    3  A    between atoms: C5_7  and  C6_8
REMARK    4  A    between atoms: C6_8  and  C7_9
REMARK       I    between atoms: C7_9  and  N3_11
REMARK    5  A    between atoms: N3_11  and  C8_13
REMARK    6  A    between atoms: C8_13  and  C9_14
REMARK    7  A    between atoms: C9_14  and  O3_16
REMARK    8  A    between atoms: O3_16  and  C10_17
REMARK    9  A    between atoms: C10_17  and  C11_18
REMARK   10  A    between atoms: C11_18  and  C12_19
REMARK   11  A    between atoms: C12_19  and  C13_20
REMARK   12  A    between atoms: C13_20  and  C14_21
REMARK   13  A    between atoms: C15_22  and  C16_23
REMARK   14  A    between atoms: C18_26  and  C19_27
REMARK       I    between atoms: C19_27  and  N5_29
REMARK   15  A    between atoms: N5_29  and  C20_31
ROOT
HETATM    1  C11 UNL     1      13.257  21.811  14.713  1.00  0.00     0.028 C
ENDROOT
BRANCH   1   2
HETATM    2  C10 UNL     1      12.146  20.963  15.268  1.00  0.00     0.178 C
BRANCH   2   3
HETATM    3  O3  UNL     1      12.546  20.383  16.462  1.00  0.00    -0.320 OA
BRANCH   3   4
HETATM    4  C9  UNL     1      11.709  19.697  17.301  1.00  0.00     0.287 C
HETATM    5  O2  UNL     1      10.533  20.072  17.471  1.00  0.00    -0.262 OA
BRANCH   4   6
HETATM    6  C8  UNL     1      12.167  18.479  18.036  1.00  0.00     0.120 C
HETATM    7  C28 UNL     1      11.389  18.462  19.340  1.00  0.00     0.041 C
HETATM    8  C29 UNL     1      12.347  17.951  20.387  1.00  0.00     0.003 C
HETATM    9  C30 UNL     1      13.728  18.058  19.850  1.00  0.00     0.003 C
HETATM   10  C31 UNL     1      13.617  18.625  18.462  1.00  0.00     0.041 C
BRANCH   6  11
HETATM   11  N3  UNL     1      12.018  17.334  17.231  1.00  0.00    -0.342 N
HETATM   12  C7  UNL     1      10.816  16.567  17.036  1.00  0.00     0.223 C
HETATM   13  O1  UNL     1       9.789  16.934  17.634  1.00  0.00    -0.273 OA
ATOM     14  H3  UNL     1      12.850  17.013  16.735  1.00  0.00     0.163 HD
BRANCH  12  15
HETATM   15  C6  UNL     1      10.913  15.410  16.145  1.00  0.00     0.147 C
BRANCH  15  16
HETATM   16  C5  UNL     1      10.110  15.302  14.936  1.00  0.00     0.067 C
BRANCH  16  17
HETATM   17  N2  UNL     1      10.477  15.610  13.648  1.00  0.00    -0.390 N
HETATM   18  C4  UNL     1      11.784  15.699  13.169  1.00  0.00     0.152 C
HETATM   19  C3  UNL     1      11.889  16.902  12.194  1.00  0.00     0.292 C
HETATM   20  N1  UNL     1      11.603  18.143  12.827  1.00  0.00     0.091 N
HETATM   21  C33 UNL     1      10.373  18.047  13.594  1.00  0.00     0.292 C
HETATM   22  C32 UNL     1       9.691  16.778  13.206  1.00  0.00     0.152 C
BRANCH  20  23
HETATM   23  C2  UNL     1      11.485  19.196  11.863  1.00  0.00     0.268 C
HETATM   24  C1  UNL     1      10.388  20.138  12.268  1.00  0.00     0.037 C
ENDBRANCH  20  23
ENDBRANCH  16  17
ENDBRANCH  15  16
ENDBRANCH  12  15
ENDBRANCH   6  11
ENDBRANCH   4   6
ENDBRANCH   3   4
ENDBRANCH   2   3
ENDBRANCH   1   2
BRANCH   1  25
HETATM   25  C12 UNL     1      14.253  21.040  13.916  1.00  0.00     0.014 C
BRANCH  25  26
HETATM   26  C13 UNL     1      15.443  21.877  13.442  1.00  0.00     0.094 C
BRANCH  26  27
HETATM   27  C14 UNL     1      16.231  22.270  14.649  1.00  0.00    -0.100 C
HETATM   28  C15 UNL     1      16.872  22.546  15.631  1.00  0.00    -0.047 C
BRANCH  28  29
HETATM   29  C16 UNL     1      17.636  22.826  16.807  1.00  0.00     0.103 A
HETATM   30  C17 UNL     1      18.520  23.912  16.868  1.00  0.00     0.138 A
HETATM   31  N4  UNL     1      19.281  24.186  17.942  1.00  0.00    -0.298 N
HETATM   32  C18 UNL     1      20.197  25.133  18.218  1.00  0.00     0.124 A
HETATM   33  C25 UNL     1      19.209  23.394  19.024  1.00  0.00     0.135 A
HETATM   34  C24 UNL     1      20.712  24.920  19.509  1.00  0.00     0.125 A
HETATM   35  N6  UNL     1      20.076  23.839  19.971  1.00  0.00    -0.348 N
ATOM     36  H6  UNL     1      20.218  23.417  20.888  1.00  0.00     0.167 HD
HETATM   37  C26 UNL     1      18.344  22.314  18.995  1.00  0.00     0.051 A
HETATM   38  C27 UNL     1      18.284  21.452  20.204  1.00  0.00     0.072 C
HETATM   39  N7  UNL     1      17.597  22.061  17.915  1.00  0.00    -0.349 N
ATOM     40  H7  UNL     1      16.971  21.256  17.930  1.00  0.00     0.166 HD
BRANCH  32  41
HETATM   41  C19 UNL     1      20.576  26.251  17.405  1.00  0.00     0.270 C
HETATM   42  O4  UNL     1      20.442  27.409  17.963  1.00  0.00    -0.266 OA
HETATM   43  N5  UNL     1      21.062  26.268  16.097  1.00  0.00    -0.348 N
ATOM     44  H5  UNL     1      21.167  25.379  15.608  1.00  0.00     0.163 HD
BRANCH  43  45
HETATM   45  C20 UNL     1      21.427  27.492  15.394  1.00  0.00     0.022 C
HETATM   46  C21 UNL     1      20.233  28.251  14.921  1.00  0.00     0.037 C
HETATM   47  C22 UNL     1      22.222  27.138  14.123  1.00  0.00     0.037 C
HETATM   48  C23 UNL     1      22.317  28.375  16.228  1.00  0.00     0.037 C
ENDBRANCH  43  45
ENDBRANCH  32  41
ENDBRANCH  28  29
ENDBRANCH  26  27
ENDBRANCH  25  26
ENDBRANCH   1  25
TORSDOF 15
ENDMDL