MODEL 1
REMARK VINA RESULT: -9.475253638      0.000      0.000
REMARK  12 active torsions:
REMARK  status: ('A' for Active; 'I' for Inactive)
REMARK    1  A    between atoms: C2_2  and  C3_3
REMARK    2  A    between atoms: C3_3  and  C4_4
REMARK    3  A    between atoms: C4_4  and  C5_5
REMARK       I    between atoms: C5_5  and  N1_7
REMARK    4  A    between atoms: C6_9  and  C7_10
REMARK    5  A    between atoms: C6_9  and  C14_21
REMARK       I    between atoms: C7_10  and  N2_12
REMARK    6  A    between atoms: N2_12  and  N3_14
REMARK       I    between atoms: N4_23  and  C16_24
REMARK    7  A    between atoms: C16_24  and  C17_26
REMARK    8  A    between atoms: C17_26  and  C18_27
REMARK    9  A    between atoms: N5_29  and  C20_30
REMARK   10  A    between atoms: C20_30  and  C21_31
REMARK       I    between atoms: C21_31  and  N6_33
REMARK   11  A    between atoms: C27_42  and  C28_43
REMARK   12  A    between atoms: C28_43  and  C29_44
ROOT
HETATM    1  C14 UNL     1      10.514  18.767  16.434  1.00  0.00     0.082 A
HETATM    2  C15 UNL     1      11.625  19.320  15.843  1.00  0.00     0.133 A
HETATM    3  N4  UNL     1      11.289  20.491  15.213  1.00  0.00    -0.280 N
HETATM    4  C16 UNL     1      12.234  21.326  14.604  1.00  0.00     0.231 C
HETATM    5  O3  UNL     1      11.921  22.378  14.016  1.00  0.00    -0.273 OA
HETATM    6  C27 UNL     1       9.992  20.671  15.400  1.00  0.00     0.090 A
HETATM    7  N9  UNL     1       9.526  19.632  16.138  1.00  0.00    -0.342 N
ATOM      8  H9  UNL     1       8.555  19.521  16.430  1.00  0.00     0.167 HD
ENDROOT
BRANCH   1   9
HETATM    9  C6  UNL     1      10.376  17.507  17.145  1.00  0.00     0.133 C
HETATM   10  N1  UNL     1      10.828  17.342  18.300  1.00  0.00    -0.321 N
HETATM   11  C5  UNL     1      11.577  18.120  19.185  1.00  0.00     0.222 C
ATOM     12  H1  UNL     1      10.594  16.427  18.684  1.00  0.00     0.169 HD
HETATM   13  O1  UNL     1      11.083  18.747  20.169  1.00  0.00    -0.273 OA
BRANCH  11  14
HETATM   14  C4  UNL     1      13.073  18.268  19.024  1.00  0.00     0.103 C
BRANCH  14  15
HETATM   15  C3  UNL     1      13.608  19.468  19.744  1.00  0.00     0.009 C
BRANCH  15  16
HETATM   16  C2  UNL     1      14.375  20.385  18.803  1.00  0.00    -0.004 C
HETATM   17  C1  UNL     1      15.053  19.555  17.720  1.00  0.00     0.005 C
ENDBRANCH  15  16
ENDBRANCH  14  15
ENDBRANCH  11  14
BRANCH   9  18
HETATM   18  C7  UNL     1       9.624  16.407  16.559  1.00  0.00     0.289 C
HETATM   19  O2  UNL     1       9.829  16.001  15.416  1.00  0.00    -0.264 OA
HETATM   20  N2  UNL     1       8.584  15.735  17.319  1.00  0.00    -0.259 N
ATOM     21  H2  UNL     1       8.397  16.052  18.270  1.00  0.00     0.191 HD
BRANCH  20  22
HETATM   22  N3  UNL     1       7.842  14.697  16.819  1.00  0.00    -0.283 N
HETATM   23  C8  UNL     1       8.222  13.402  17.222  1.00  0.00     0.088 C
HETATM   24  C9  UNL     1       7.234  12.330  16.853  1.00  0.00     0.051 C
HETATM   25  C10 UNL     1       5.909  12.734  17.456  1.00  0.00    -0.009 C
HETATM   26  C11 UNL     1       4.905  11.647  17.071  1.00  0.00     0.010 C
HETATM   27  C12 UNL     1       5.448  14.106  17.040  1.00  0.00     0.051 C
HETATM   28  C13 UNL     1       6.526  14.953  16.411  1.00  0.00     0.088 C
ENDBRANCH  20  22
ENDBRANCH   9  18
ENDBRANCH   1   9
BRANCH   6  29
HETATM   29  C28 UNL     1       9.091  21.725  14.874  1.00  0.00     0.076 C
BRANCH  29  30
HETATM   30  C29 UNL     1       8.855  21.474  13.410  1.00  0.00     0.003 C
HETATM   31  C30 UNL     1       8.143  22.566  12.669  1.00  0.00     0.005 C
ENDBRANCH  29  30
ENDBRANCH   6  29
BRANCH   4  32
HETATM   32  C17 UNL     1      13.702  20.984  14.644  1.00  0.00     0.130 C
BRANCH  32  33
HETATM   33  C18 UNL     1      14.481  22.224  14.912  1.00  0.00     0.111 C
HETATM   34  C19 UNL     1      15.947  21.932  15.182  1.00  0.00     0.156 C
HETATM   35  N5  UNL     1      16.268  23.101  16.046  1.00  0.00    -0.324 N
HETATM   36  C26 UNL     1      15.051  23.356  16.727  1.00  0.00     0.191 C
HETATM   37  N7  UNL     1      14.886  24.022  17.967  1.00  0.00    -0.063 NA
HETATM   38  N8  UNL     1      14.037  22.867  16.096  1.00  0.00    -0.358 N
ATOM     39  H8  UNL     1      13.066  22.932  16.401  1.00  0.00     0.162 HD
BRANCH  35  40
HETATM   40  C20 UNL     1      17.569  23.643  16.093  1.00  0.00     0.167 C
BRANCH  40  41
HETATM   41  C21 UNL     1      18.045  24.232  17.329  1.00  0.00     0.259 C
HETATM   42  O4  UNL     1      18.200  25.474  17.466  1.00  0.00    -0.267 OA
HETATM   43  N6  UNL     1      18.356  23.407  18.450  1.00  0.00    -0.347 N
HETATM   44  C22 UNL     1      18.215  21.977  18.506  1.00  0.00     0.126 C
HETATM   45  C25 UNL     1      18.880  23.903  19.701  1.00  0.00     0.126 C
HETATM   46  C23 UNL     1      18.738  21.541  19.819  1.00  0.00     0.021 C
HETATM   47  C24 UNL     1      18.908  22.762  20.653  1.00  0.00     0.021 C
ENDBRANCH  40  41
ENDBRANCH  35  40
ENDBRANCH  32  33
ENDBRANCH   4  32
TORSDOF 12
ENDMDL