MODEL 2
REMARK VINA RESULT: -7.996048855      3.582     11.217
REMARK  16 active torsions:
REMARK  status: ('A' for Active; 'I' for Inactive)
REMARK    1  A    between atoms: N1_2  and  C2_4
REMARK    2  A    between atoms: C3_9  and  S1_10
REMARK    3  A    between atoms: S1_10  and  C4_11
REMARK    4  A    between atoms: C4_11  and  C5_12
REMARK    5  A    between atoms: C5_12  and  C6_13
REMARK    6  A    between atoms: C6_13  and  C7_14
REMARK    7  A    between atoms: C7_14  and  C8_15
REMARK    8  A    between atoms: C8_15  and  C9_16
REMARK    9  A    between atoms: C9_16  and  C10_17
REMARK   10  A    between atoms: C10_17  and  C11_18
REMARK       I    between atoms: C11_18  and  N4_20
REMARK       I    between atoms: N5_23  and  C14_24
REMARK   11  A    between atoms: C14_24  and  C15_26
REMARK   12  A    between atoms: C15_26  and  N6_27
REMARK   13  A    between atoms: C15_26  and  C16_31
REMARK   14  A    between atoms: C16_31  and  C17_32
REMARK       I    between atoms: N7_35  and  C20_36
REMARK   15  A    between atoms: C20_36  and  O4_38
REMARK   16  A    between atoms: O4_38  and  C21_39
ROOT
HETATM    1  C11 UNL     1      11.520  20.735  14.618  1.00  0.00     0.219 C
HETATM    2  O1  UNL     1      11.145  19.643  15.170  1.00  0.00    -0.273 OA
HETATM    3  N4  UNL     1      12.683  21.340  15.096  1.00  0.00    -0.349 N
HETATM    4  C12 UNL     1      13.158  22.585  14.476  1.00  0.00     0.145 C
HETATM    5  C13 UNL     1      14.685  22.492  14.627  1.00  0.00     0.145 C
HETATM    6  N5  UNL     1      14.925  22.678  16.075  1.00  0.00    -0.347 N
HETATM    7  C14 UNL     1      15.817  23.700  16.426  1.00  0.00     0.250 C
HETATM    8  O2  UNL     1      16.383  24.387  15.484  1.00  0.00    -0.271 OA
HETATM    9  C27 UNL     1      14.232  21.787  16.939  1.00  0.00     0.145 C
HETATM   10  C28 UNL     1      13.408  20.746  16.194  1.00  0.00     0.145 C
ENDROOT
BRANCH   7  11
HETATM   11  C15 UNL     1      16.212  24.114  17.779  1.00  0.00     0.275 C
BRANCH  11  12
HETATM   12  N6  UNL     1      15.222  25.021  18.352  1.00  0.00    -0.066 N
ATOM     13  H63 UNL     1      15.292  25.065  19.369  1.00  0.00     0.275 HD
ATOM     14  H62 UNL     1      15.435  25.996  18.141  1.00  0.00     0.275 HD
ATOM     15  H61 UNL     1      14.282  24.767  18.048  1.00  0.00     0.275 HD
ENDBRANCH  11  12
BRANCH  11  16
HETATM   16  C16 UNL     1      17.519  24.825  17.862  1.00  0.00     0.047 C
BRANCH  16  17
HETATM   17  C17 UNL     1      18.731  23.999  18.085  1.00  0.00    -0.009 C
HETATM   18  C18 UNL     1      19.488  23.964  16.750  1.00  0.00     0.024 C
HETATM   19  C19 UNL     1      20.068  25.316  16.397  1.00  0.00     0.128 C
HETATM   20  N7  UNL     1      20.811  25.771  17.552  1.00  0.00    -0.328 N
HETATM   21  C20 UNL     1      21.346  27.081  17.617  1.00  0.00     0.363 C
HETATM   22  C25 UNL     1      20.979  24.818  18.628  1.00  0.00     0.128 C
HETATM   23  O3  UNL     1      21.993  27.485  18.642  1.00  0.00    -0.238 OA
HETATM   24  C26 UNL     1      19.616  24.477  19.175  1.00  0.00     0.024 C
BRANCH  21  25
HETATM   25  O4  UNL     1      21.196  27.974  16.590  1.00  0.00    -0.294 OA
BRANCH  25  26
HETATM   26  C21 UNL     1      22.039  28.131  15.492  1.00  0.00     0.061 C
HETATM   27  C22 UNL     1      22.842  29.409  15.544  1.00  0.00     0.046 C
HETATM   28  C23 UNL     1      21.177  28.157  14.242  1.00  0.00     0.046 C
HETATM   29  C24 UNL     1      23.020  26.984  15.301  1.00  0.00     0.046 C
ENDBRANCH  25  26
ENDBRANCH  21  25
ENDBRANCH  16  17
ENDBRANCH  11  16
ENDBRANCH   7  11
BRANCH   1  30
HETATM   30  C10 UNL     1      10.660  21.239  13.518  1.00  0.00     0.103 C
BRANCH  30  31
HETATM   31  C9  UNL     1      10.273  20.108  12.571  1.00  0.00     0.009 C
BRANCH  31  32
HETATM   32  C8  UNL     1      11.463  19.568  11.855  1.00  0.00     0.000 C
BRANCH  32  33
HETATM   33  C7  UNL     1      11.093  18.576  10.773  1.00  0.00     0.000 C
BRANCH  33  34
HETATM   34  C6  UNL     1      11.558  17.157  11.128  1.00  0.00     0.001 C
BRANCH  34  35
HETATM   35  C5  UNL     1      11.715  17.000  12.591  1.00  0.00     0.010 C
BRANCH  35  36
HETATM   36  C4  UNL     1      11.715  15.633  13.163  1.00  0.00     0.081 C
BRANCH  36  37
HETATM   37  S1  UNL     1      10.591  15.230  14.459  1.00  0.00    -0.103 SA
BRANCH  37  38
HETATM   38  C3  UNL     1      10.587  16.306  15.863  1.00  0.00     0.130 A
HETATM   39  N3  UNL     1       9.774  17.345  16.072  1.00  0.00    -0.286 N
HETATM   40  N2  UNL     1       9.821  18.006  17.144  1.00  0.00    -0.279 N
ATOM     41  H3  UNL     1       9.102  17.608  15.351  1.00  0.00     0.188 HD
HETATM   42  C2  UNL     1      10.708  17.650  18.081  1.00  0.00     0.161 A
ATOM     43  H2  UNL     1       9.196  18.797  17.294  1.00  0.00     0.189 HD
HETATM   44  S2  UNL     1      11.471  16.315  17.344  1.00  0.00    -0.027 SA
BRANCH  42  45
HETATM   45  N1  UNL     1      10.906  18.212  19.251  1.00  0.00    -0.374 N
HETATM   46  C1  UNL     1      12.174  18.820  19.547  1.00  0.00     0.148 C
ATOM     47  H1  UNL     1      10.162  18.217  19.948  1.00  0.00     0.161 HD
ENDBRANCH  42  45
ENDBRANCH  37  38
ENDBRANCH  36  37
ENDBRANCH  35  36
ENDBRANCH  34  35
ENDBRANCH  33  34
ENDBRANCH  32  33
ENDBRANCH  31  32
ENDBRANCH  30  31
ENDBRANCH   1  30
TORSDOF 16
ENDMDL