MODEL 2
REMARK VINA RESULT: -8.431088985      1.064      1.233
REMARK  14 active torsions:
REMARK  status: ('A' for Active; 'I' for Inactive)
REMARK    1  A    between atoms: C2_2  and  O1_3
REMARK    2  A    between atoms: O1_3  and  C3_4
REMARK    3  A    between atoms: C3_4  and  C4_6
REMARK    4  A    between atoms: C5_7  and  C6_8
REMARK    5  A    between atoms: C6_8  and  N1_9
REMARK       I    between atoms: N2_12  and  C9_13
REMARK    6  A    between atoms: C9_13  and  C10_15
REMARK    7  A    between atoms: C10_15  and  C11_16
REMARK    8  A    between atoms: C11_16  and  C12_17
REMARK    9  A    between atoms: C12_17  and  C13_18
REMARK   10  A    between atoms: C17_29  and  C18_30
REMARK   11  A    between atoms: C20_32  and  O7_33
REMARK   12  A    between atoms: C22_35  and  O8_36
REMARK   13  A    between atoms: C24_38  and  O9_39
REMARK   14  A    between atoms: C26_41  and  C27_42
ROOT
HETATM    1  C4  UNL     1      21.914  25.783  18.116  1.00  0.00     0.160 C
HETATM    2  C5  UNL     1      20.674  25.510  18.995  1.00  0.00     0.035 C
HETATM    3  N3  UNL     1      20.430  26.200  20.053  1.00  0.00    -0.314 N
ATOM      4  H3  UNL     1      19.598  25.997  20.606  1.00  0.00     0.170 HD
HETATM    5  C16 UNL     1      21.304  27.241  20.459  1.00  0.00     0.320 C
HETATM    6  O6  UNL     1      21.184  27.991  21.444  1.00  0.00    -0.247 OA
HETATM    7  N4  UNL     1      22.461  27.433  19.609  1.00  0.00    -0.333 N
ATOM      8  H4  UNL     1      22.841  28.349  19.374  1.00  0.00     0.165 HD
HETATM    9  C17 UNL     1      23.030  26.168  19.121  1.00  0.00     0.139 C
ENDROOT
BRANCH   9  10
HETATM   10  C18 UNL     1      24.314  26.187  18.502  1.00  0.00    -0.022 A
HETATM   11  C19 UNL     1      24.743  27.329  17.797  1.00  0.00     0.049 A
HETATM   12  C20 UNL     1      25.985  27.472  17.219  1.00  0.00     0.104 A
HETATM   13  C22 UNL     1      26.887  26.463  17.314  1.00  0.00     0.135 A
HETATM   14  C24 UNL     1      26.492  25.308  18.009  1.00  0.00     0.112 A
HETATM   15  C26 UNL     1      25.253  25.134  18.590  1.00  0.00    -0.006 A
BRANCH  12  16
HETATM   16  O7  UNL     1      26.235  28.672  16.560  1.00  0.00    -0.353 OA
HETATM   17  C21 UNL     1      25.520  29.076  15.417  1.00  0.00     0.210 C
ENDBRANCH  12  16
BRANCH  13  18
HETATM   18  O8  UNL     1      28.148  26.587  16.740  1.00  0.00    -0.351 OA
HETATM   19  C23 UNL     1      28.384  26.308  15.371  1.00  0.00     0.210 C
ENDBRANCH  13  18
BRANCH  14  20
HETATM   20  O9  UNL     1      27.518  24.365  18.041  1.00  0.00    -0.352 OA
HETATM   21  C25 UNL     1      28.560  24.690  19.022  1.00  0.00     0.210 C
ENDBRANCH  14  20
BRANCH  15  22
HETATM   22  C27 UNL     1      24.913  23.858  19.152  1.00  0.00    -0.021 C
HETATM   23  C28 UNL     1      25.788  22.795  18.405  1.00  0.00     0.019 C
HETATM   24  C29 UNL     1      25.455  23.610  20.590  1.00  0.00     0.019 C
HETATM   25  C30 UNL     1      23.568  23.282  19.198  1.00  0.00     0.019 C
ENDBRANCH  15  22
ENDBRANCH   9  10
BRANCH   1  26
HETATM   26  C3  UNL     1      21.436  26.843  17.239  1.00  0.00     0.271 C
HETATM   27  O2  UNL     1      20.445  27.589  17.591  1.00  0.00    -0.264 OA
BRANCH  26  28
HETATM   28  O1  UNL     1      21.961  27.147  16.024  1.00  0.00    -0.321 OA
BRANCH  28  29
HETATM   29  C2  UNL     1      21.755  28.411  15.433  1.00  0.00     0.174 C
HETATM   30  C1  UNL     1      21.449  28.216  13.960  1.00  0.00     0.034 C
ENDBRANCH  28  29
ENDBRANCH  26  28
ENDBRANCH   1  26
BRANCH   2  31
HETATM   31  C6  UNL     1      19.789  24.427  18.563  1.00  0.00     0.326 C
BRANCH  31  32
HETATM   32  N1  UNL     1      18.388  24.802  18.551  1.00  0.00     0.096 N
HETATM   33  C7  UNL     1      17.706  23.915  19.471  1.00  0.00     0.292 C
HETATM   34  C8  UNL     1      17.373  22.587  18.845  1.00  0.00     0.156 C
HETATM   35  N2  UNL     1      16.409  22.849  17.801  1.00  0.00    -0.349 N
HETATM   36  C9  UNL     1      15.428  21.874  17.495  1.00  0.00     0.219 C
HETATM   37  C14 UNL     1      16.493  24.117  17.114  1.00  0.00     0.156 C
HETATM   38  O3  UNL     1      14.596  22.130  16.559  1.00  0.00    -0.273 OA
HETATM   39  C15 UNL     1      17.853  24.750  17.213  1.00  0.00     0.292 C
BRANCH  36  40
HETATM   40  C10 UNL     1      15.330  20.583  18.211  1.00  0.00     0.103 C
BRANCH  40  41
HETATM   41  C11 UNL     1      14.059  20.489  19.027  1.00  0.00     0.020 C
BRANCH  41  42
HETATM   42  C12 UNL     1      13.523  19.076  19.010  1.00  0.00     0.113 C
BRANCH  42  43
HETATM   43  C13 UNL     1      12.029  19.143  19.173  1.00  0.00     0.172 C
HETATM   44  O4  UNL     1      11.470  18.786  20.225  1.00  0.00    -0.648 OA
HETATM   45  O5  UNL     1      11.327  19.619  18.099  1.00  0.00    -0.648 OA
ENDBRANCH  42  43
ENDBRANCH  41  42
ENDBRANCH  40  41
ENDBRANCH  36  40
ENDBRANCH  31  32
ENDBRANCH   2  31
TORSDOF 14
ENDMDL