MODEL 2
REMARK VINA RESULT: -10.425378418      1.006      1.558
REMARK  7 active torsions:
REMARK  status: ('A' for Active; 'I' for Inactive)
REMARK    1  A    between atoms: C2_2  and  O1_3
REMARK    2  A    between atoms: O1_3  and  C3_4
REMARK    3  A    between atoms: C7_8  and  C8_9
REMARK    4  A    between atoms: C9_10  and  C10_11
REMARK    5  A    between atoms: C14_17  and  O2_18
REMARK    6  A    between atoms: O2_18  and  C15_19
REMARK    7  A    between atoms: C23_28  and  O3_29
ROOT
HETATM    1  C10 UNL     1      13.960  25.300   6.521  1.00  0.00     0.046 A
HETATM    2  C11 UNL     1      14.919  26.008   5.828  1.00  0.00     0.110 A
HETATM    3  N1  UNL     1      15.095  25.516   4.611  1.00  0.00    -0.364 N
ATOM      4  H1  UNL     1      15.746  25.863   3.907  1.00  0.00     0.165 HD
HETATM    5  C12 UNL     1      14.243  24.459   4.473  1.00  0.00     0.046 A
HETATM    6  C13 UNL     1      13.989  23.586   3.453  1.00  0.00     0.070 A
HETATM    7  C14 UNL     1      13.038  22.561   3.571  1.00  0.00     0.111 A
HETATM    8  C23 UNL     1      12.369  22.464   4.753  1.00  0.00     0.103 A
HETATM    9  C25 UNL     1      12.596  23.338   5.828  1.00  0.00     0.055 A
HETATM   10  C26 UNL     1      13.534  24.318   5.654  1.00  0.00     0.013 A
ENDROOT
BRANCH   1  11
HETATM   11  C9  UNL     1      13.454  25.476   7.849  1.00  0.00    -0.059 C
HETATM   12  C8  UNL     1      13.010  25.612   8.968  1.00  0.00    -0.061 C
BRANCH  12  13
HETATM   13  C7  UNL     1      12.486  25.799  10.298  1.00  0.00     0.020 A
HETATM   14  C6  UNL     1      11.737  24.828  10.931  1.00  0.00     0.021 A
HETATM   15  C5  UNL     1      11.231  24.987  12.198  1.00  0.00     0.004 A
HETATM   16  C4  UNL     1      11.460  26.154  12.899  1.00  0.00     0.037 A
HETATM   17  C3  UNL     1      12.200  27.155  12.313  1.00  0.00     0.070 A
HETATM   18  C27 UNL     1      12.703  26.950  11.010  1.00  0.00     0.057 A
BRANCH  17  19
HETATM   19  O1  UNL     1      12.470  28.351  12.949  1.00  0.00    -0.351 OA
BRANCH  19  20
HETATM   20  C2  UNL     1      13.667  28.639  13.589  1.00  0.00     0.171 C
HETATM   21  C1  UNL     1      13.889  30.110  13.749  1.00  0.00     0.034 C
ENDBRANCH  19  20
ENDBRANCH  17  19
ENDBRANCH  12  13
ENDBRANCH   1  11
BRANCH   8  22
HETATM   22  O3  UNL     1      11.420  21.450   4.895  1.00  0.00    -0.353 OA
HETATM   23  C24 UNL     1      10.684  21.329   6.080  1.00  0.00     0.210 C
ENDBRANCH   8  22
BRANCH   7  24
HETATM   24  O2  UNL     1      12.910  21.777   2.457  1.00  0.00    -0.306 OA
BRANCH  24  25
HETATM   25  C15 UNL     1      11.986  20.862   2.100  1.00  0.00     0.103 A
HETATM   26  C16 UNL     1      10.646  21.201   1.868  1.00  0.00    -0.026 A
HETATM   27  C17 UNL     1      10.221  22.616   2.019  1.00  0.00     0.051 C
HETATM   28  C18 UNL     1       9.741  20.237   1.510  1.00  0.00     0.016 A
HETATM   29  C19 UNL     1      10.074  18.914   1.357  1.00  0.00    -0.060 A
HETATM   30  C20 UNL     1       9.041  17.902   0.962  1.00  0.00     0.048 C
HETATM   31  C21 UNL     1      11.384  18.562   1.581  1.00  0.00     0.033 A
HETATM   32  C22 UNL     1      12.317  19.540   1.948  1.00  0.00     0.069 A
HETATM   33 CL1  UNL     1      13.939  18.914   2.270  1.00  0.00    -0.081 Cl
ENDBRANCH  24  25
ENDBRANCH   7  24
TORSDOF 7
ENDMDL