MODEL 4
REMARK VINA RESULT: -9.698013688      0.591      3.172
REMARK  8 active torsions:
REMARK  status: ('A' for Active; 'I' for Inactive)
REMARK    1  A    between atoms: C2_2  and  C3_3
REMARK    2  A    between atoms: C3_3  and  C4_4
REMARK    3  A    between atoms: C7_7  and  S1_8
REMARK    4  A    between atoms: S1_8  and  C8_11
REMARK    5  A    between atoms: C8_11  and  C11_14
REMARK    6  A    between atoms: C13_16  and  C14_17
REMARK    7  A    between atoms: C17_20  and  O3_21
REMARK    8  A    between atoms: C18_23  and  C19_24
ROOT
HETATM    1  C8  UNL     1      12.721  22.606   6.737  1.00  0.00     0.088 C
HETATM    2  C9  UNL     1      13.004  21.151   6.331  1.00  0.00     0.037 C
HETATM    3  C10 UNL     1      11.423  22.592   7.507  1.00  0.00     0.037 C
ENDROOT
BRANCH   1   4
HETATM    4  S1  UNL     1      14.014  23.109   7.854  1.00  0.00     0.187 S
HETATM    5  O1  UNL     1      14.614  21.966   8.584  1.00  0.00    -0.221 OA
HETATM    6  O2  UNL     1      14.983  23.980   7.146  1.00  0.00    -0.221 OA
BRANCH   4   7
HETATM    7  C7  UNL     1      13.211  24.130   9.071  1.00  0.00     0.062 A
HETATM    8  C6  UNL     1      13.488  25.484   9.051  1.00  0.00     0.024 A
HETATM    9  C5  UNL     1      12.887  26.300   9.988  1.00  0.00     0.011 A
HETATM   10  C4  UNL     1      12.024  25.816  10.943  1.00  0.00    -0.033 A
HETATM   11  C25 UNL     1      11.778  24.471  10.927  1.00  0.00     0.042 A
HETATM   12  C24 UNL     1      12.357  23.624  10.010  1.00  0.00     0.047 A
HETATM   13 CL1  UNL     1      10.679  23.740  12.094  1.00  0.00    -0.084 Cl
BRANCH  10  14
HETATM   14  C3  UNL     1      11.374  26.690  11.958  1.00  0.00     0.066 C
BRANCH  14  15
HETATM   15  C2  UNL     1      12.253  26.960  13.104  1.00  0.00    -0.032 C
HETATM   16  C1  UNL     1      12.842  28.133  13.219  1.00  0.00     0.007 C
ENDBRANCH  14  15
ENDBRANCH  10  14
ENDBRANCH   4   7
ENDBRANCH   1   4
BRANCH   1  17
HETATM   17  C11 UNL     1      12.673  23.386   5.502  1.00  0.00    -0.034 A
HETATM   18  C12 UNL     1      11.532  23.891   4.923  1.00  0.00     0.019 A
HETATM   19  C13 UNL     1      11.536  24.647   3.770  1.00  0.00    -0.020 A
HETATM   20  C17 UNL     1      12.780  24.897   3.180  1.00  0.00     0.079 A
HETATM   21  C18 UNL     1      13.947  24.413   3.720  1.00  0.00    -0.016 A
HETATM   22  C23 UNL     1      13.872  23.662   4.875  1.00  0.00     0.019 A
BRANCH  19  23
HETATM   23  C14 UNL     1      10.308  25.154   3.124  1.00  0.00     0.013 C
HETATM   24  C15 UNL     1       9.352  25.669   4.216  1.00  0.00     0.015 C
HETATM   25  C16 UNL     1       9.623  24.039   2.358  1.00  0.00     0.015 C
ENDBRANCH  19  23
BRANCH  20  26
HETATM   26  O3  UNL     1      12.900  25.641   2.033  1.00  0.00    -0.360 OA
ATOM     27  H3  UNL     1      12.463  25.393   1.226  1.00  0.00     0.217 HD
ENDBRANCH  20  26
BRANCH  21  28
HETATM   28  C19 UNL     1      15.259  24.693   3.145  1.00  0.00    -0.021 C
HETATM   29  C20 UNL     1      15.415  24.390   1.697  1.00  0.00     0.019 C
HETATM   30  C21 UNL     1      15.620  26.131   3.401  1.00  0.00     0.019 C
HETATM   31  C22 UNL     1      16.354  23.888   3.871  1.00  0.00     0.019 C
ENDBRANCH  21  28
ENDBRANCH   1  17
TORSDOF 8
ENDMDL