MODEL 1
REMARK VINA RESULT: -8.778165139      0.000      0.000
REMARK  9 active torsions:
REMARK  status: ('A' for Active; 'I' for Inactive)
REMARK    1  A    between atoms: C16_16  and  N1_17
REMARK    2  A    between atoms: C17_19  and  C18_20
REMARK    3  A    between atoms: C18_20  and  C19_21
REMARK    4  A    between atoms: C19_21  and  C20_22
REMARK    5  A    between atoms: C24_27  and  O1_28
REMARK    6  A    between atoms: C24_27  and  C25_30
REMARK    7  A    between atoms: C25_30  and  N2_31
REMARK    8  A    between atoms: N2_31  and  N3_33
REMARK    9  A    between atoms: N3_33  and  N4_34
ROOT
HETATM    1  C1  UNL     1      13.180  26.275   7.343  1.00  0.00     0.010 C
HETATM    2  C2  UNL     1      13.969  25.540   6.241  1.00  0.00    -0.016 C
HETATM    3  C3  UNL     1      13.299  25.600   4.939  1.00  0.00     0.005 C
HETATM    4  C4  UNL     1      12.501  24.432   4.492  1.00  0.00     0.010 C
HETATM    5  C5  UNL     1      13.185  23.129   4.348  1.00  0.00    -0.033 C
HETATM    6  C6  UNL     1      14.571  23.423   3.736  1.00  0.00     0.016 C
HETATM    7  C7  UNL     1      13.317  22.328   5.596  1.00  0.00     0.030 C
HETATM    8  C8  UNL     1      12.184  21.390   5.879  1.00  0.00     0.009 C
HETATM    9  C9  UNL     1      10.949  21.577   5.073  1.00  0.00     0.012 C
HETATM   10  C10 UNL     1      11.315  21.546   3.614  1.00  0.00    -0.015 C
HETATM   11  C11 UNL     1      11.409  20.044   3.261  1.00  0.00     0.021 C
HETATM   12  C12 UNL     1      11.681  19.853   1.796  1.00  0.00    -0.043 C
HETATM   13  C13 UNL     1      11.891  18.407   1.520  1.00  0.00     0.015 C
HETATM   14  C14 UNL     1      10.530  20.397   0.989  1.00  0.00     0.011 C
HETATM   15  C15 UNL     1      10.261  21.847   1.346  1.00  0.00     0.026 C
HETATM   16  C16 UNL     1      10.072  21.972   2.840  1.00  0.00     0.089 C
HETATM   17  C21 UNL     1      12.897  20.648   1.447  1.00  0.00     0.010 C
HETATM   18  C22 UNL     1      13.545  21.248   2.705  1.00  0.00     0.007 C
HETATM   19  C23 UNL     1      12.558  22.248   3.262  1.00  0.00     0.005 C
HETATM   20  C24 UNL     1      13.543  23.115   6.860  1.00  0.00     0.081 C
HETATM   21  C26 UNL     1      14.447  24.268   6.782  1.00  0.00     0.044 C
ENDROOT
BRANCH  20  22
HETATM   22  O1  UNL     1      12.287  23.400   7.390  1.00  0.00    -0.388 OA
ATOM     23  H1  UNL     1      12.431  23.815   8.233  1.00  0.00     0.210 HD
ENDBRANCH  20  22
BRANCH  20  24
HETATM   24  C25 UNL     1      14.160  22.103   7.846  1.00  0.00     0.193 C
BRANCH  24  25
HETATM   25  N2  UNL     1      14.437  22.678   9.118  1.00  0.00    -0.250 N
ATOM     26  H2  UNL     1      15.408  22.687   9.428  1.00  0.00     0.197 HD
BRANCH  25  27
HETATM   27  N3  UNL     1      13.597  23.163   9.871  1.00  0.00    -0.248 NA
BRANCH  27  28
HETATM   28  N4  UNL     1      12.608  23.730  10.365  1.00  0.00    -0.261 N
ATOM     29  H42 UNL     1      12.298  24.084   9.461  1.00  0.00     0.193 HD
ATOM     30  H41 UNL     1      11.889  24.098  10.988  1.00  0.00     0.193 HD
ENDBRANCH  27  28
ENDBRANCH  25  27
ENDBRANCH  24  25
ENDBRANCH  20  24
BRANCH  16  31
HETATM   31  N1  UNL     1       9.501  23.181   3.262  1.00  0.00    -0.397 N
HETATM   32  C17 UNL     1       9.570  24.252   2.544  1.00  0.00     0.056 C
ATOM     33  H1  UNL     1       9.019  23.216   4.160  1.00  0.00     0.159 HD
BRANCH  32  34
HETATM   34  C18 UNL     1       8.955  25.523   3.015  1.00  0.00     0.046 C
BRANCH  34  35
HETATM   35  C19 UNL     1       9.705  26.726   2.499  1.00  0.00     0.036 C
BRANCH  35  36
HETATM   36  C20 UNL     1      10.955  26.345   1.757  1.00  0.00     0.222 C
HETATM   37  F1  UNL     1      12.028  26.998   2.338  1.00  0.00    -0.255 F
ENDBRANCH  35  36
ENDBRANCH  34  35
ENDBRANCH  32  34
ENDBRANCH  16  31
TORSDOF 9
ENDMDL