MODEL 3
REMARK VINA RESULT: -7.188536178      1.520      2.221
REMARK  5 active torsions:
REMARK  status: ('A' for Active; 'I' for Inactive)
REMARK    1  A    between atoms: C4_4  and  C5_5
REMARK    2  A    between atoms: C5_5  and  C6_6
REMARK    3  A    between atoms: C12_12  and  C13_13
REMARK       I    between atoms: C13_13  and  N1_15
REMARK    4  A    between atoms: N1_15  and  C14_17
REMARK    5  A    between atoms: C17_21  and  C18_22
ROOT
HETATM    1  C6  UNL     1      12.432  27.072  12.069  1.00  0.00    -0.052 A
HETATM    2  C7  UNL     1      13.217  27.527  11.048  1.00  0.00     0.008 A
HETATM    3  C8  UNL     1      13.386  26.740   9.908  1.00  0.00     0.015 A
HETATM    4  C9  UNL     1      12.801  25.511   9.744  1.00  0.00     0.005 A
HETATM    5  C10 UNL     1      12.968  24.736   8.619  1.00  0.00    -0.027 A
HETATM    6  C11 UNL     1      13.846  25.191   7.535  1.00  0.00     0.050 C
HETATM    7  C12 UNL     1      12.328  23.476   8.517  1.00  0.00     0.114 A
HETATM    8  C25 UNL     1      11.564  23.122   9.602  1.00  0.00     0.304 A
HETATM    9  O2  UNL     1      10.928  22.049   9.682  1.00  0.00    -0.259 OA
HETATM   10  O3  UNL     1      11.428  23.900  10.676  1.00  0.00    -0.274 OA
HETATM   11  C26 UNL     1      12.010  25.065  10.786  1.00  0.00     0.090 A
HETATM   12  C27 UNL     1      11.842  25.853  11.926  1.00  0.00     0.045 A
ENDROOT
BRANCH   7  13
HETATM   13  C13 UNL     1      12.417  22.671   7.315  1.00  0.00     0.262 C
HETATM   14  O1  UNL     1      13.318  21.802   7.310  1.00  0.00    -0.267 OA
HETATM   15  N1  UNL     1      11.580  22.816   6.221  1.00  0.00    -0.322 N
ATOM     16  H1  UNL     1      10.872  23.543   6.328  1.00  0.00     0.169 HD
BRANCH  15  17
HETATM   17  C14 UNL     1      11.535  22.143   5.000  1.00  0.00     0.042 A
HETATM   18  C15 UNL     1      12.319  21.062   4.692  1.00  0.00     0.054 A
HETATM   19  C16 UNL     1      12.273  20.386   3.466  1.00  0.00     0.043 A
HETATM   20 CL1  UNL     1      13.320  19.002   3.155  1.00  0.00    -0.084 Cl
HETATM   21  C17 UNL     1      11.395  20.822   2.509  1.00  0.00    -0.028 A
HETATM   22  C22 UNL     1      10.592  21.902   2.777  1.00  0.00     0.018 A
HETATM   23  C23 UNL     1      10.663  22.555   4.011  1.00  0.00    -0.035 A
HETATM   24  C24 UNL     1       9.791  23.721   4.292  1.00  0.00     0.050 C
BRANCH  21  25
HETATM   25  C18 UNL     1      11.283  20.165   1.189  1.00  0.00    -0.022 C
HETATM   26  C19 UNL     1      10.857  18.746   1.382  1.00  0.00     0.019 C
HETATM   27  C20 UNL     1      10.196  20.847   0.377  1.00  0.00     0.019 C
HETATM   28  C21 UNL     1      12.574  20.276   0.399  1.00  0.00     0.019 C
ENDBRANCH  21  25
ENDBRANCH  15  17
ENDBRANCH   7  13
BRANCH   1  29
HETATM   29  C5  UNL     1      12.248  27.906  13.290  1.00  0.00     0.066 C
BRANCH  29  30
HETATM   30  C4  UNL     1      13.546  28.308  13.860  1.00  0.00    -0.020 C
HETATM   31  C2  UNL     1      13.791  29.579  14.226  1.00  0.00    -0.091 C
HETATM   32  C1  UNL     1      12.702  30.583  14.039  1.00  0.00     0.042 C
HETATM   33  C3  UNL     1      15.092  29.986  14.798  1.00  0.00     0.042 C
ENDBRANCH  29  30
ENDBRANCH   1  29
TORSDOF 5
ENDMDL