MODEL 1
REMARK VINA RESULT: -9.608919240      0.000      0.000
REMARK  7 active torsions:
REMARK  status: ('A' for Active; 'I' for Inactive)
REMARK    1  A    between atoms: C2_2  and  C3_3
REMARK    2  A    between atoms: C6_7  and  C7_8
REMARK    3  A    between atoms: C9_10  and  N1_11
REMARK    4  A    between atoms: N1_11  and  N2_13
REMARK    5  A    between atoms: C10_15  and  C11_16
REMARK    6  A    between atoms: C14_19  and  O1_20
REMARK    7  A    between atoms: C22_30  and  C23_31
ROOT
HETATM    1  C7  UNL     1      13.566  22.649   3.197  1.00  0.00     0.047 A
HETATM    2  C8  UNL     1      13.713  22.649   4.592  1.00  0.00     0.061 A
HETATM    3  C9  UNL     1      14.770  23.304   5.167  1.00  0.00     0.052 A
HETATM    4  C19 UNL     1      15.681  23.961   4.351  1.00  0.00     0.055 A
HETATM    5  C20 UNL     1      15.521  23.951   2.984  1.00  0.00     0.007 A
HETATM    6  C21 UNL     1      16.497  24.648   2.076  1.00  0.00     0.068 C
HETATM    7  N3  UNL     1      14.447  23.278   2.458  1.00  0.00    -0.359 N
ATOM      8  H3  UNL     1      14.329  23.267   1.445  1.00  0.00     0.166 HD
ENDROOT
BRANCH   3   9
HETATM    9  N1  UNL     1      14.978  23.322   6.434  1.00  0.00    -0.301 N
ATOM     10  H1  UNL     1      15.629  24.060   6.703  1.00  0.00     0.187 HD
BRANCH   9  11
HETATM   11  N2  UNL     1      14.568  22.638   7.457  1.00  0.00    -0.311 N
HETATM   12  C10 UNL     1      14.007  22.664   8.556  1.00  0.00     0.118 C
ATOM     13  H2  UNL     1      14.815  21.664   7.277  1.00  0.00     0.186 HD
BRANCH  12  14
HETATM   14  C11 UNL     1      13.450  23.788   9.303  1.00  0.00    -0.019 A
HETATM   15  C12 UNL     1      13.787  25.092   9.146  1.00  0.00     0.015 A
HETATM   16  C13 UNL     1      13.192  26.109   9.904  1.00  0.00     0.038 A
HETATM   17  C14 UNL     1      12.232  25.822  10.848  1.00  0.00     0.074 A
HETATM   18  C16 UNL     1      11.882  24.503  11.017  1.00  0.00    -0.028 A
HETATM   19  C17 UNL     1      10.842  24.130  12.039  1.00  0.00     0.051 C
HETATM   20  C18 UNL     1      12.470  23.511  10.270  1.00  0.00     0.022 A
BRANCH  17  21
HETATM   21  O1  UNL     1      11.657  26.844  11.584  1.00  0.00    -0.355 OA
HETATM   22  C15 UNL     1      12.352  27.420  12.664  1.00  0.00     0.210 C
ENDBRANCH  17  21
ENDBRANCH  12  14
ENDBRANCH   9  11
ENDBRANCH   3   9
BRANCH   1  23
HETATM   23  C6  UNL     1      12.377  22.012   2.699  1.00  0.00     0.019 A
HETATM   24  C5  UNL     1      12.522  20.654   2.329  1.00  0.00     0.047 A
HETATM   25  C4  UNL     1      11.422  19.940   1.985  1.00  0.00     0.031 A
HETATM   26 CL1  UNL     1      14.149  20.007   2.305  1.00  0.00    -0.083 Cl
HETATM   27  C3  UNL     1      10.172  20.500   1.984  1.00  0.00    -0.056 A
HETATM   28  C27 UNL     1      10.063  21.823   2.346  1.00  0.00     0.016 A
HETATM   29  C22 UNL     1      11.150  22.651   2.722  1.00  0.00    -0.036 A
BRANCH  27  30
HETATM   30  C2  UNL     1       8.954  19.753   1.622  1.00  0.00     0.034 C
HETATM   31  C1  UNL     1       9.414  18.509   0.865  1.00  0.00     0.010 C
ENDBRANCH  27  30
BRANCH  29  32
HETATM   32  C23 UNL     1      10.894  24.065   3.092  1.00  0.00    -0.023 C
HETATM   33  C24 UNL     1      10.616  24.300   4.566  1.00  0.00     0.019 C
HETATM   34  C25 UNL     1      11.627  25.132   2.386  1.00  0.00     0.019 C
HETATM   35  C26 UNL     1       9.421  24.332   2.551  1.00  0.00     0.019 C
ENDBRANCH  29  32
ENDBRANCH   1  23
TORSDOF 7
ENDMDL