MODEL 2
REMARK VINA RESULT: -9.150022874      0.795      1.117
REMARK  7 active torsions:
REMARK  status: ('A' for Active; 'I' for Inactive)
REMARK    1  A    between atoms: N1_2  and  C3_4
REMARK    2  A    between atoms: C3_4  and  C4_5
REMARK    3  A    between atoms: C6_7  and  S1_8
REMARK    4  A    between atoms: S1_8  and  C7_9
REMARK    5  A    between atoms: C10_12  and  C11_13
REMARK    6  A    between atoms: C19_21  and  N2_22
REMARK    7  A    between atoms: N2_22  and  C20_23
ROOT
HETATM    1  C4  UNL     1      13.582  23.714   5.157  1.00  0.00     0.012 A
HETATM    2  C5  UNL     1      13.594  23.002   4.008  1.00  0.00     0.031 A
HETATM    3  C6  UNL     1      13.175  21.673   3.926  1.00  0.00     0.006 A
HETATM    4  C17 UNL     1      12.747  21.088   5.072  1.00  0.00     0.022 A
HETATM    5  C18 UNL     1      12.723  21.785   6.230  1.00  0.00     0.047 A
HETATM    6  C19 UNL     1      13.138  23.146   6.342  1.00  0.00     0.115 A
ENDROOT
BRANCH   6   7
HETATM    7  N2  UNL     1      12.961  23.759   7.500  1.00  0.00    -0.404 NA
BRANCH   7   8
HETATM    8  C20 UNL     1      12.911  24.352   8.508  1.00  0.00     0.121 A
HETATM    9  C21 UNL     1      13.610  25.580   8.618  1.00  0.00     0.062 A
HETATM   10  C22 UNL     1      13.457  26.335   9.741  1.00  0.00     0.091 A
HETATM   11  N3  UNL     1      12.667  25.949  10.746  1.00  0.00    -0.365 N
HETATM   12  C23 UNL     1      11.986  24.790  10.688  1.00  0.00     0.045 A
ATOM     13  H3  UNL     1      12.577  26.542  11.571  1.00  0.00     0.165 HD
HETATM   14  C24 UNL     1      11.187  24.505  11.778  1.00  0.00     0.033 A
HETATM   15  C28 UNL     1      12.094  23.990   9.589  1.00  0.00     0.034 A
HETATM   16  C25 UNL     1      10.436  23.333  11.788  1.00  0.00     0.044 A
HETATM   17  C26 UNL     1      10.551  22.517  10.671  1.00  0.00     0.117 A
HETATM   18  F1  UNL     1       9.829  21.367  10.665  1.00  0.00    -0.206 F
HETATM   19  C27 UNL     1      11.361  22.828   9.586  1.00  0.00     0.059 A
ENDBRANCH   7   8
ENDBRANCH   6   7
BRANCH   1  20
HETATM   20  C3  UNL     1      14.138  25.094   5.181  1.00  0.00     0.313 C
BRANCH  20  21
HETATM   21  N1  UNL     1      14.968  25.318   3.996  1.00  0.00     0.084 N
HETATM   22  C1  UNL     1      16.201  25.989   4.418  1.00  0.00     0.309 C
HETATM   23  C2  UNL     1      14.311  26.320   3.132  1.00  0.00     0.309 C
ENDBRANCH  20  21
ENDBRANCH   1  20
BRANCH   3  24
HETATM   24  S1  UNL     1      13.205  20.913   2.373  1.00  0.00    -0.091 SA
BRANCH  24  25
HETATM   25  C7  UNL     1      11.786  19.970   1.877  1.00  0.00     0.005 A
HETATM   26  C8  UNL     1      11.935  18.593   1.620  1.00  0.00     0.019 A
HETATM   27  C9  UNL     1      10.883  17.795   1.255  1.00  0.00     0.009 A
HETATM   28  C10 UNL     1       9.595  18.277   1.111  1.00  0.00    -0.051 A
HETATM   29  C15 UNL     1       9.441  19.622   1.354  1.00  0.00     0.009 A
HETATM   30  C16 UNL     1      10.515  20.444   1.726  1.00  0.00     0.019 A
BRANCH  28  31
HETATM   31  C11 UNL     1       8.451  17.447   0.779  1.00  0.00    -0.024 C
HETATM   32  C12 UNL     1       8.512  16.149   1.600  1.00  0.00     0.019 C
HETATM   33  C13 UNL     1       8.337  17.062  -0.669  1.00  0.00     0.019 C
HETATM   34  C14 UNL     1       7.108  18.072   1.206  1.00  0.00     0.019 C
ENDBRANCH  28  31
ENDBRANCH  24  25
ENDBRANCH   3  24
TORSDOF 7
ENDMDL