MODEL 3
REMARK VINA RESULT: -7.963817630      0.875      1.077
REMARK  7 active torsions:
REMARK  status: ('A' for Active; 'I' for Inactive)
REMARK    1  A    between atoms: C2_2  and  C4_4
REMARK    2  A    between atoms: C10_10  and  C12_12
REMARK    3  A    between atoms: C13_13  and  C15_15
REMARK    4  A    between atoms: C19_20  and  O1_21
REMARK    5  A    between atoms: O1_21  and  C20_22
REMARK    6  A    between atoms: C23_26  and  C24_27
REMARK    7  A    between atoms: C24_27  and  C25_28
ROOT
HETATM    1  C4  UNL     1      11.961  22.840   3.182  1.00  0.00    -0.065 C
HETATM    2  C5  UNL     1      13.344  22.657   2.735  1.00  0.00     0.036 C
HETATM    3  C6  UNL     1      14.209  23.806   3.278  1.00  0.00     0.005 C
HETATM    4  C7  UNL     1      14.220  23.397   4.767  1.00  0.00     0.012 C
HETATM    5  C8  UNL     1      12.880  23.836   5.304  1.00  0.00    -0.019 C
HETATM    6  C9  UNL     1      13.182  25.277   5.718  1.00  0.00     0.017 C
HETATM    7  C10 UNL     1      12.723  23.096   6.656  1.00  0.00     0.009 C
HETATM    8  C11 UNL     1      13.272  21.624   6.420  1.00  0.00     0.023 C
HETATM    9  C19 UNL     1      11.291  22.908   6.795  1.00  0.00     0.145 C
HETATM   10  C22 UNL     1      10.846  22.719   5.328  1.00  0.00     0.049 C
HETATM   11  C23 UNL     1      11.708  23.610   4.476  1.00  0.00     0.004 C
ENDROOT
BRANCH   7  12
HETATM   12  C12 UNL     1      13.614  23.609   7.641  1.00  0.00    -0.006 C
HETATM   13  C13 UNL     1      13.903  24.271   8.697  1.00  0.00    -0.043 C
HETATM   14  C14 UNL     1      15.436  24.248   9.065  1.00  0.00     0.049 C
BRANCH  13  15
HETATM   15  C15 UNL     1      13.142  25.081   9.582  1.00  0.00     0.041 C
HETATM   16 CL1  UNL     1      13.352  26.858   9.561  1.00  0.00    -0.084 Cl
HETATM   17  C16 UNL     1      12.273  24.721  10.504  1.00  0.00    -0.065 C
HETATM   18  C17 UNL     1      11.779  23.433  10.952  1.00  0.00     0.044 C
HETATM   19  C18 UNL     1      11.660  25.912  11.252  1.00  0.00     0.044 C
ENDBRANCH  13  15
ENDBRANCH   7  12
BRANCH   9  20
HETATM   20  O1  UNL     1      11.045  21.690   7.491  1.00  0.00    -0.315 OA
BRANCH  20  21
HETATM   21  C20 UNL     1       9.864  21.247   7.981  1.00  0.00     0.255 C
HETATM   22  C21 UNL     1       9.368  21.552   9.363  1.00  0.00     0.126 C
HETATM   23  O2  UNL     1       9.149  20.549   7.252  1.00  0.00    -0.266 OA
ENDBRANCH  20  21
ENDBRANCH   9  20
BRANCH  11  24
HETATM   24  C24 UNL     1      10.892  24.801   4.025  1.00  0.00     0.128 C
BRANCH  24  25
HETATM   25  C25 UNL     1      10.906  25.332   2.694  1.00  0.00     0.173 C
HETATM   26  O3  UNL     1       9.873  25.181   1.938  1.00  0.00    -0.648 OA
HETATM   27  O4  UNL     1      11.902  26.029   2.041  1.00  0.00    -0.648 OA
ENDBRANCH  24  25
ENDBRANCH  11  24
BRANCH   1  28
HETATM   28  C2  UNL     1      11.166  21.625   2.938  1.00  0.00    -0.068 C
HETATM   29  C1  UNL     1      11.589  20.386   3.172  1.00  0.00     0.018 C
HETATM   30  C3  UNL     1       9.788  21.660   2.307  1.00  0.00     0.047 C
ENDBRANCH   1  28
TORSDOF 7
ENDMDL