MODEL 1
REMARK VINA RESULT: -9.086133486      0.000      0.000
REMARK  5 active torsions:
REMARK  status: ('A' for Active; 'I' for Inactive)
REMARK    1  A    between atoms: C2_2  and  C3_3
REMARK    2  A    between atoms: C3_3  and  C4_4
REMARK    3  A    between atoms: C4_4  and  C5_5
REMARK    4  A    between atoms: C5_5  and  C6_6
REMARK    5  A    between atoms: C13_13  and  C14_14
ROOT
HETATM    1  C6  UNL     1      13.681  24.197   5.195  1.00  0.00    -0.001 C
HETATM    2  C7  UNL     1      12.396  23.469   5.035  1.00  0.00     0.003 C
HETATM    3  C8  UNL     1      12.872  22.179   5.694  1.00  0.00    -0.005 C
HETATM    4  C9  UNL     1      11.878  21.127   5.842  1.00  0.00     0.006 C
HETATM    5  C10 UNL     1      11.177  20.925   4.582  1.00  0.00     0.011 C
HETATM    6  C11 UNL     1      11.540  21.744   3.373  1.00  0.00    -0.029 C
HETATM    7  C12 UNL     1      12.838  21.185   2.764  1.00  0.00     0.016 C
HETATM    8  C13 UNL     1      10.374  21.488   2.485  1.00  0.00     0.029 C
HETATM    9  C20 UNL     1      10.359  22.608   1.439  1.00  0.00     0.013 C
HETATM   10  C21 UNL     1       9.756  23.737   2.256  1.00  0.00     0.044 C
HETATM   11  C22 UNL     1      10.787  24.188   3.235  1.00  0.00     0.104 C
HETATM   12  C23 UNL     1      10.067  24.796   4.417  1.00  0.00     0.052 C
HETATM   13  F1  UNL     1      11.303  25.282   2.503  1.00  0.00    -0.243 F
HETATM   14  C24 UNL     1      11.842  23.211   3.648  1.00  0.00     0.038 C
HETATM   15  C25 UNL     1      13.334  22.637   7.037  1.00  0.00    -0.002 C
HETATM   16  C26 UNL     1      12.560  23.556   7.869  1.00  0.00     0.006 C
HETATM   17  C27 UNL     1      13.692  24.563   7.683  1.00  0.00     0.010 C
HETATM   18  C28 UNL     1      14.220  23.778   6.528  1.00  0.00    -0.036 C
HETATM   19  C29 UNL     1      15.689  23.395   6.569  1.00  0.00     0.016 C
ENDROOT
BRANCH   8  20
HETATM   20  C14 UNL     1      10.078  20.251   1.841  1.00  0.00     0.003 C
HETATM   21  C15 UNL     1       8.749  19.588   1.869  1.00  0.00     0.078 C
HETATM   22  C16 UNL     1       9.048  18.337   1.022  1.00  0.00     0.067 C
HETATM   23  C17 UNL     1       7.805  17.644   0.605  1.00  0.00     0.046 C
HETATM   24  C18 UNL     1      10.089  17.472   1.643  1.00  0.00     0.046 C
HETATM   25  O1  UNL     1       9.678  19.037  -0.075  1.00  0.00    -0.307 OA
HETATM   26  C19 UNL     1      10.608  19.928   0.502  1.00  0.00     0.286 C
HETATM   27  O2  UNL     1      11.630  20.289  -0.103  1.00  0.00    -0.260 OA
ENDBRANCH   8  20
BRANCH   1  28
HETATM   28  C5  UNL     1      13.733  25.655   5.100  1.00  0.00     0.006 C
BRANCH  28  29
HETATM   29  C4  UNL     1      14.304  26.096   3.775  1.00  0.00     0.000 C
BRANCH  29  30
HETATM   30  C3  UNL     1      15.717  25.647   3.587  1.00  0.00    -0.000 C
BRANCH  30  31
HETATM   31  C2  UNL     1      16.628  26.326   4.557  1.00  0.00    -0.005 C
HETATM   32  C1  UNL     1      18.081  26.273   4.066  1.00  0.00     0.005 C
ENDBRANCH  30  31
ENDBRANCH  29  30
ENDBRANCH  28  29
ENDBRANCH   1  28
TORSDOF 5
ENDMDL