MODEL 3
REMARK VINA RESULT: -6.601562307      2.592      5.379
REMARK  9 active torsions:
REMARK  status: ('A' for Active; 'I' for Inactive)
REMARK    1  A    between atoms: C3_3  and  C4_4
REMARK    2  A    between atoms: C5_5  and  O1_6
REMARK    3  A    between atoms: C6_8  and  C7_9
REMARK    4  A    between atoms: C9_12  and  C10_13
REMARK    5  A    between atoms: C13_16  and  C14_17
REMARK    6  A    between atoms: C19_23  and  C20_24
REMARK    7  A    between atoms: C20_24  and  C21_25
REMARK    8  A    between atoms: C20_24  and  C24_28
REMARK    9  A    between atoms: C21_25  and  C22_26
ROOT
HETATM    1  C1  UNL     1      13.348  26.559   9.154  1.00  0.00     0.112 C
HETATM    2  C2  UNL     1      13.084  25.908   7.861  1.00  0.00    -0.105 C
HETATM    3  C3  UNL     1      12.849  25.401   6.804  1.00  0.00    -0.064 C
ENDROOT
BRANCH   3   4
HETATM    4  C4  UNL     1      12.534  24.811   5.545  1.00  0.00     0.067 C
HETATM    5  C5  UNL     1      11.333  25.177   4.915  1.00  0.00     0.100 C
HETATM    6  C6  UNL     1      10.896  24.783   3.648  1.00  0.00     0.055 C
HETATM    7  C9  UNL     1      10.988  23.444   3.141  1.00  0.00    -0.007 C
HETATM    8  C13 UNL     1      12.070  22.582   3.422  1.00  0.00     0.012 C
HETATM    9  C18 UNL     1      13.306  23.054   3.968  1.00  0.00     0.192 C
HETATM   10  O3  UNL     1      14.297  22.598   3.383  1.00  0.00    -0.287 OA
HETATM   11  C19 UNL     1      13.489  23.941   5.048  1.00  0.00     0.047 C
BRANCH   5  12
HETATM   12  O1  UNL     1      10.501  26.015   5.612  1.00  0.00    -0.358 OA
ATOM     13  H1  UNL     1       9.626  26.136   5.263  1.00  0.00     0.217 HD
ENDBRANCH   5  12
BRANCH   6  14
HETATM   14  C7  UNL     1      10.350  25.802   2.812  1.00  0.00     0.159 C
HETATM   15  C8  UNL     1      11.156  26.467   1.778  1.00  0.00     0.097 C
HETATM   16  O2  UNL     1       9.189  26.195   2.889  1.00  0.00    -0.293 OA
ENDBRANCH   6  14
BRANCH   7  17
HETATM   17  C10 UNL     1       9.822  22.997   2.523  1.00  0.00    -0.076 C
HETATM   18  C11 UNL     1       9.606  22.846   1.050  1.00  0.00     0.044 C
HETATM   19  C12 UNL     1       8.517  23.422   3.187  1.00  0.00     0.044 C
ENDBRANCH   7  17
BRANCH   8  20
HETATM   20  C14 UNL     1      11.985  21.162   3.243  1.00  0.00    -0.019 C
HETATM   21  C15 UNL     1      12.263  20.443   1.981  1.00  0.00     0.019 C
HETATM   22  C16 UNL     1      12.972  20.429   4.195  1.00  0.00     0.019 C
HETATM   23  C17 UNL     1      10.661  20.608   3.905  1.00  0.00     0.019 C
ENDBRANCH   8  20
BRANCH  11  24
HETATM   24  C20 UNL     1      14.791  23.904   5.669  1.00  0.00    -0.014 C
BRANCH  24  25
HETATM   25  C21 UNL     1      15.004  23.064   6.648  1.00  0.00    -0.014 C
BRANCH  25  26
HETATM   26  C22 UNL     1      15.480  23.482   8.001  1.00  0.00     0.023 C
HETATM   27  C23 UNL     1      14.440  23.000   9.026  1.00  0.00     0.009 C
ENDBRANCH  25  26
ENDBRANCH  24  25
BRANCH  24  28
HETATM   28  C24 UNL     1      15.862  24.746   5.188  1.00  0.00    -0.025 A
HETATM   29  C25 UNL     1      15.969  26.052   5.576  1.00  0.00     0.015 A
HETATM   30  C26 UNL     1      16.970  26.868   5.076  1.00  0.00     0.043 A
HETATM   31  C27 UNL     1      17.881  26.414   4.189  1.00  0.00     0.116 A
HETATM   32  F1  UNL     1      18.858  27.232   3.707  1.00  0.00    -0.206 F
HETATM   33  C28 UNL     1      17.822  25.092   3.761  1.00  0.00     0.043 A
HETATM   34  C29 UNL     1      16.811  24.301   4.277  1.00  0.00     0.015 A
ENDBRANCH  24  28
ENDBRANCH  11  24
ENDBRANCH   3   4
TORSDOF 9
ENDMDL