MODEL 2
REMARK VINA RESULT: -9.635421289      1.413      1.661
REMARK  6 active torsions:
REMARK  status: ('A' for Active; 'I' for Inactive)
REMARK    1  A    between atoms: C2_2  and  C3_3
REMARK    2  A    between atoms: C8_8  and  O1_9
REMARK    3  A    between atoms: C10_11  and  C11_12
REMARK    4  A    between atoms: C11_12  and  C12_13
REMARK    5  A    between atoms: C12_13  and  C14_15
REMARK    6  A    between atoms: C16_17  and  O2_18
ROOT
HETATM    1  C3  UNL     1      16.166  24.175   3.070  1.00  0.00    -0.024 A
HETATM    2  C4  UNL     1      15.006  23.413   2.918  1.00  0.00     0.024 A
HETATM    3  C5  UNL     1      14.007  23.401   3.854  1.00  0.00     0.003 A
HETATM    4  C6  UNL     1      14.157  24.181   5.000  1.00  0.00    -0.015 A
HETATM    5  C7  UNL     1      15.315  24.950   5.169  1.00  0.00     0.050 A
HETATM    6  C8  UNL     1      16.300  24.939   4.209  1.00  0.00     0.075 A
HETATM    7  C10 UNL     1      13.191  24.152   5.950  1.00  0.00    -0.045 A
HETATM    8  C20 UNL     1      12.067  23.321   5.739  1.00  0.00     0.021 A
HETATM    9  C21 UNL     1      11.944  22.562   4.602  1.00  0.00    -0.008 A
HETATM   10  C22 UNL     1      10.834  21.741   4.388  1.00  0.00     0.015 A
HETATM   11  C23 UNL     1      10.767  21.003   3.224  1.00  0.00     0.018 A
HETATM   12  C24 UNL     1      11.750  21.042   2.265  1.00  0.00     0.088 A
HETATM   13  N1  UNL     1      12.814  21.841   2.490  1.00  0.00    -0.365 N
ATOM     14  H1  UNL     1      13.560  21.891   1.795  1.00  0.00     0.165 HD
HETATM   15  C25 UNL     1      12.911  22.581   3.626  1.00  0.00     0.053 A
ENDROOT
BRANCH   7  16
HETATM   16  C11 UNL     1      13.191  24.999   7.134  1.00  0.00     0.048 C
BRANCH  16  17
HETATM   17  C12 UNL     1      13.884  24.438   8.345  1.00  0.00     0.019 C
HETATM   18  C13 UNL     1      14.271  23.019   8.263  1.00  0.00     0.015 C
BRANCH  17  19
HETATM   19  C14 UNL     1      13.009  24.611   9.534  1.00  0.00    -0.050 A
HETATM   20  C15 UNL     1      12.133  23.618   9.924  1.00  0.00     0.044 A
HETATM   21  C16 UNL     1      11.300  23.763  11.021  1.00  0.00     0.067 A
HETATM   22  C17 UNL     1      11.320  24.925  11.775  1.00  0.00     0.055 A
HETATM   23  C18 UNL     1      12.187  25.915  11.395  1.00  0.00     0.014 A
HETATM   24 BR1  UNL     1      12.260  27.557  12.390  1.00  0.00    -0.051 Br
HETATM   25  C19 UNL     1      13.008  25.756  10.302  1.00  0.00     0.026 A
BRANCH  21  26
HETATM   26  O2  UNL     1      10.406  22.773  11.436  1.00  0.00    -0.361 OA
ATOM     27  H2  UNL     1       9.861  22.857  12.210  1.00  0.00     0.217 HD
ENDBRANCH  21  26
ENDBRANCH  17  19
ENDBRANCH  16  17
ENDBRANCH   7  16
BRANCH   6  28
HETATM   28  O1  UNL     1      17.479  25.682   4.311  1.00  0.00    -0.355 OA
HETATM   29  C9  UNL     1      17.317  27.065   4.669  1.00  0.00     0.210 C
ENDBRANCH   6  28
BRANCH   1  30
HETATM   30  C2  UNL     1      17.193  24.146   2.036  1.00  0.00     0.037 C
HETATM   31  C1  UNL     1      18.049  22.915   2.003  1.00  0.00     0.010 C
ENDBRANCH   1  30
TORSDOF 6
ENDMDL