MODEL 4
REMARK VINA RESULT: -8.086496524      3.798      4.937
REMARK  6 active torsions:
REMARK  status: ('A' for Active; 'I' for Inactive)
REMARK    1  A    between atoms: C2_2  and  O1_3
REMARK    2  A    between atoms: C2_2  and  C3_5
REMARK    3  A    between atoms: C2_2  and  C9_11
REMARK    4  A    between atoms: N1_17  and  O2_18
REMARK    5  A    between atoms: C15_20  and  C16_21
REMARK    6  A    between atoms: N3_30  and  O3_31
ROOT
HETATM    1  C9  UNL     1      -4.222   3.965  13.613  1.00  0.00    -0.017 A
HETATM    2  C10 UNL     1      -3.106   4.444  14.282  1.00  0.00     0.013 A
HETATM    3  C11 UNL     1      -2.607   5.680  13.932  1.00  0.00     0.035 A
HETATM    4  C12 UNL     1      -3.202   6.449  12.925  1.00  0.00     0.093 A
HETATM    5  C13 UNL     1      -4.308   5.957  12.275  1.00  0.00     0.093 A
HETATM    6  C14 UNL     1      -4.802   4.737  12.618  1.00  0.00     0.045 A
HETATM    7  N1  UNL     1      -4.847   6.728  11.313  1.00  0.00    -0.219 N
HETATM    8  C15 UNL     1      -4.355   7.932  10.975  1.00  0.00     0.113 A
HETATM    9  C22 UNL     1      -3.250   8.396  11.644  1.00  0.00     0.172 A
HETATM   10  C23 UNL     1      -2.660   9.672  11.346  1.00  0.00     0.122 C
HETATM   11  N2  UNL     1      -2.202  10.686  11.092  1.00  0.00    -0.190 NA
HETATM   12  N3  UNL     1      -2.695   7.651  12.604  1.00  0.00    -0.210 N
ENDROOT
BRANCH   8  13
HETATM   13  C16 UNL     1      -4.940   8.759   9.936  1.00  0.00    -0.004 A
HETATM   14  C17 UNL     1      -4.518   8.656   8.633  1.00  0.00     0.014 A
HETATM   15  C18 UNL     1      -5.066   9.441   7.621  1.00  0.00     0.001 A
HETATM   16  C19 UNL     1      -6.067  10.351   7.945  1.00  0.00     0.000 A
HETATM   17  C20 UNL     1      -6.490  10.455   9.250  1.00  0.00     0.001 A
HETATM   18  C21 UNL     1      -5.929   9.666  10.225  1.00  0.00     0.014 A
ENDBRANCH   8  13
BRANCH  12  19
HETATM   19  O3  UNL     1      -1.570   8.093  13.303  1.00  0.00    -0.281 OA
ATOM     20  H3  UNL     1      -0.729   7.715  13.077  1.00  0.00     0.245 HD
ENDBRANCH  12  19
BRANCH   7  21
HETATM   21  O2  UNL     1      -5.963   6.285  10.622  1.00  0.00    -0.282 OA
ATOM     22  H2  UNL     1      -6.566   6.916  10.245  1.00  0.00     0.245 HD
ENDBRANCH   7  21
BRANCH   1  23
HETATM   23  C2  UNL     1      -4.777   2.628  13.972  1.00  0.00     0.108 C
HETATM   24  C1  UNL     1      -3.641   1.618  13.885  1.00  0.00     0.056 C
BRANCH  23  25
HETATM   25  O1  UNL     1      -5.693   2.269  12.986  1.00  0.00    -0.380 OA
ATOM     26  H1  UNL     1      -5.505   2.821  12.236  1.00  0.00     0.211 HD
ENDBRANCH  23  25
BRANCH  23  27
HETATM   27  C3  UNL     1      -5.369   2.583  15.315  1.00  0.00    -0.020 A
HETATM   28  C4  UNL     1      -6.292   3.500  15.774  1.00  0.00     0.010 A
HETATM   29  C5  UNL     1      -6.819   3.404  17.062  1.00  0.00     0.001 A
HETATM   30  C6  UNL     1      -6.444   2.400  17.924  1.00  0.00     0.000 A
HETATM   31  C7  UNL     1      -5.524   1.478  17.475  1.00  0.00     0.001 A
HETATM   32  C8  UNL     1      -5.003   1.571  16.205  1.00  0.00     0.010 A
ENDBRANCH  23  27
ENDBRANCH   1  23
TORSDOF 6
ENDMDL