MODEL 2
REMARK VINA RESULT: -7.519190972      2.616      6.181
REMARK  9 active torsions:
REMARK  status: ('A' for Active; 'I' for Inactive)
REMARK    1  A    between atoms: O1_2  and  C2_3
REMARK    2  A    between atoms: C2_3  and  C3_5
REMARK    3  A    between atoms: C3_5  and  N1_8
REMARK    4  A    between atoms: N1_8  and  N2_9
REMARK    5  A    between atoms: N1_8  and  C14_20
REMARK    6  A    between atoms: N2_9  and  C6_11
REMARK    7  A    between atoms: C6_11  and  C7_13
REMARK    8  A    between atoms: C14_20  and  O3_21
REMARK    9  A    between atoms: C14_20  and  C15_23
ROOT
HETATM    1  N1  UNL     1      -3.102   4.906  11.459  1.00  0.00    -0.250 N
ENDROOT
BRANCH   1   2
HETATM    2  C3  UNL     1      -1.939   5.266  10.653  1.00  0.00     0.136 C
HETATM    3  C4  UNL     1      -1.826   6.759  10.442  1.00  0.00     0.051 C
HETATM    4  C5  UNL     1      -2.076   4.619   9.293  1.00  0.00     0.051 C
BRANCH   2   5
HETATM    5  C2  UNL     1      -0.680   4.710  11.230  1.00  0.00     0.288 C
HETATM    6  O2  UNL     1      -0.247   3.567  11.079  1.00  0.00    -0.262 OA
BRANCH   5   7
HETATM    7  O1  UNL     1       0.062   5.603  12.014  1.00  0.00    -0.324 OA
HETATM    8  C1  UNL     1       1.446   5.805  11.810  1.00  0.00     0.213 C
ENDBRANCH   5   7
ENDBRANCH   2   5
ENDBRANCH   1   2
BRANCH   1   9
HETATM    9  N2  UNL     1      -2.827   4.468  12.746  1.00  0.00    -0.284 N
ATOM     10  H2  UNL     1      -2.221   3.659  12.880  1.00  0.00     0.188 HD
BRANCH   9  11
HETATM   11  C6  UNL     1      -3.383   5.137  13.898  1.00  0.00     0.125 C
HETATM   12  S1  UNL     1      -3.023   6.657  14.286  1.00  0.00    -0.058 SA
BRANCH  11  13
HETATM   13  C7  UNL     1      -4.296   4.346  14.719  1.00  0.00     0.003 A
HETATM   14  C8  UNL     1      -3.865   3.130  15.197  1.00  0.00     0.015 A
HETATM   15  C9  UNL     1      -4.702   2.362  15.975  1.00  0.00     0.007 A
HETATM   16  C10 UNL     1      -5.973   2.773  16.295  1.00  0.00    -0.062 A
HETATM   17  C11 UNL     1      -6.890   1.945  17.138  1.00  0.00     0.048 C
HETATM   18  C12 UNL     1      -6.379   4.001  15.801  1.00  0.00     0.007 A
HETATM   19  C13 UNL     1      -5.558   4.778  15.025  1.00  0.00     0.015 A
ENDBRANCH  11  13
ENDBRANCH   9  11
ENDBRANCH   1   9
BRANCH   1  20
HETATM   20  C14 UNL     1      -4.401   4.961  10.942  1.00  0.00     0.168 C
BRANCH  20  21
HETATM   21  O3  UNL     1      -4.923   3.789  10.681  1.00  0.00    -0.344 OA
ATOM     22  H3  UNL     1      -5.103   3.642   9.760  1.00  0.00     0.219 HD
ENDBRANCH  20  21
BRANCH  20  23
HETATM   23  C15 UNL     1      -5.247   6.086  10.654  1.00  0.00     0.016 A
HETATM   24  C16 UNL     1      -6.039   6.777  11.534  1.00  0.00     0.016 A
HETATM   25  C17 UNL     1      -6.860   7.843  11.163  1.00  0.00     0.001 A
HETATM   26  C18 UNL     1      -6.899   8.242   9.866  1.00  0.00     0.000 A
HETATM   27  C19 UNL     1      -6.129   7.586   8.956  1.00  0.00     0.001 A
HETATM   28  C20 UNL     1      -5.318   6.533   9.323  1.00  0.00     0.016 A
ENDBRANCH  20  23
ENDBRANCH   1  20
TORSDOF 9
ENDMDL