MODEL 4
REMARK VINA RESULT: -7.685014815      2.644      3.833
REMARK  4 active torsions:
REMARK  status: ('A' for Active; 'I' for Inactive)
REMARK    1  A    between atoms: N1_3  and  C3_4
REMARK    2  A    between atoms: N2_18  and  C16_19
REMARK    3  A    between atoms: C16_19  and  C18_21
REMARK       I    between atoms: C18_21  and  N3_23
REMARK    4  A    between atoms: N3_23  and  C19_25
ROOT
HETATM    1  C1  UNL     1      -3.294   6.520  14.312  1.00  0.00     0.064 C
HETATM    2  C2  UNL     1      -2.363   5.960  13.576  1.00  0.00     0.108 A
HETATM    3  N1  UNL     1      -1.281   6.814  13.177  1.00  0.00    -0.297 N
HETATM    4  C9  UNL     1      -0.232   6.282  12.389  1.00  0.00     0.057 A
HETATM    5  C10 UNL     1       0.817   7.086  11.993  1.00  0.00     0.031 A
HETATM    6  C11 UNL     1       1.866   6.620  11.221  1.00  0.00     0.002 A
HETATM    7  C12 UNL     1       1.828   5.295  10.852  1.00  0.00     0.001 A
HETATM    8  C13 UNL     1       0.800   4.460  11.226  1.00  0.00     0.019 A
HETATM    9  C14 UNL     1      -0.222   4.965  11.993  1.00  0.00     0.059 A
HETATM   10  C15 UNL     1      -1.348   4.102  12.415  1.00  0.00     0.262 A
HETATM   11  O1  UNL     1      -1.291   2.917  12.028  1.00  0.00    -0.267 OA
HETATM   12  N2  UNL     1      -2.423   4.595  13.208  1.00  0.00    -0.286 N
ENDROOT
BRANCH  12  13
HETATM   13  C16 UNL     1      -3.467   3.677  13.575  1.00  0.00     0.183 C
HETATM   14  C17 UNL     1      -3.896   2.874  12.348  1.00  0.00     0.043 C
BRANCH  13  15
HETATM   15  C18 UNL     1      -3.057   2.773  14.683  1.00  0.00     0.245 C
HETATM   16  O2  UNL     1      -2.035   3.047  15.342  1.00  0.00    -0.271 OA
HETATM   17  N3  UNL     1      -3.825   1.630  14.967  1.00  0.00    -0.325 N
ATOM     18  H3  UNL     1      -3.556   0.750  14.529  1.00  0.00     0.169 HD
BRANCH  17  19
HETATM   19  C19 UNL     1      -4.850   1.628  15.749  1.00  0.00     0.037 A
HETATM   20  C20 UNL     1      -5.629   2.741  15.941  1.00  0.00     0.046 A
HETATM   21  C21 UNL     1      -6.716   2.668  16.797  1.00  0.00     0.090 A
HETATM   22  N4  UNL     1      -7.057   1.554  17.461  1.00  0.00    -0.375 N
HETATM   23  C22 UNL     1      -6.294   0.453  17.278  1.00  0.00     0.090 A
ATOM     24  H4  UNL     1      -7.865   1.537  18.084  1.00  0.00     0.164 HD
HETATM   25  C23 UNL     1      -5.192   0.479  16.427  1.00  0.00     0.046 A
ENDBRANCH  17  19
ENDBRANCH  13  15
ENDBRANCH  12  13
BRANCH   3  26
HETATM   26  C3  UNL     1      -1.232   8.188  13.543  1.00  0.00     0.041 A
HETATM   27  C4  UNL     1      -1.852   9.195  12.842  1.00  0.00     0.030 A
HETATM   28  C5  UNL     1      -1.799  10.519  13.223  1.00  0.00     0.002 A
HETATM   29  C6  UNL     1      -1.095  10.882  14.358  1.00  0.00     0.000 A
HETATM   30  C7  UNL     1      -0.455   9.890  15.092  1.00  0.00     0.002 A
HETATM   31  C8  UNL     1      -0.529   8.581  14.686  1.00  0.00     0.030 A
ENDBRANCH   3  26
TORSDOF 4
ENDMDL