MODEL 2
REMARK VINA RESULT: -8.334339371      0.810      1.167
REMARK  7 active torsions:
REMARK  status: ('A' for Active; 'I' for Inactive)
REMARK    1  A    between atoms: O1_1  and  C1_3
REMARK    2  A    between atoms: C1_3  and  C2_4
REMARK    3  A    between atoms: C1_3  and  N1_10
REMARK    4  A    between atoms: N2_13  and  C10_14
REMARK    5  A    between atoms: C10_14  and  C11_19
REMARK    6  A    between atoms: N3_15  and  O2_17
REMARK    7  A    between atoms: N4_22  and  C14_23
ROOT
HETATM    1  C10 UNL     1      -3.299   5.225  11.539  1.00  0.00     0.135 C
HETATM    2  N3  UNL     1      -2.633   5.996  12.344  1.00  0.00    -0.252 N
ATOM      3  H3  UNL     1      -2.183   5.574  13.156  1.00  0.00     0.196 HD
ENDROOT
BRANCH   1   4
HETATM    4  N2  UNL     1      -3.338   3.829  11.877  1.00  0.00    -0.362 N
HETATM    5  C9  UNL     1      -4.544   3.050  11.683  1.00  0.00     0.144 C
HETATM    6  C8  UNL     1      -4.300   1.658  12.217  1.00  0.00     0.145 C
HETATM    7  N1  UNL     1      -3.806   1.766  13.628  1.00  0.00    -0.358 N
HETATM    8  C22 UNL     1      -2.641   2.580  13.795  1.00  0.00     0.145 C
HETATM    9  C21 UNL     1      -2.182   3.150  12.425  1.00  0.00     0.144 C
BRANCH   7  10
HETATM   10  C1  UNL     1      -4.501   1.088  14.613  1.00  0.00     0.148 C
BRANCH  10  11
HETATM   11  O1  UNL     1      -4.494  -0.217  14.437  1.00  0.00    -0.346 OA
ATOM     12  H1  UNL     1      -3.726  -0.579  14.011  1.00  0.00     0.219 HD
ENDBRANCH  10  11
BRANCH  10  13
HETATM   13  C2  UNL     1      -5.209   1.569  15.765  1.00  0.00     0.015 A
HETATM   14  C3  UNL     1      -5.233   1.024  16.997  1.00  0.00     0.016 A
HETATM   15  C4  UNL     1      -5.954   1.548  18.089  1.00  0.00     0.001 A
HETATM   16  C5  UNL     1      -6.681   2.690  17.889  1.00  0.00     0.000 A
HETATM   17  C6  UNL     1      -6.679   3.272  16.644  1.00  0.00     0.001 A
HETATM   18  C7  UNL     1      -5.977   2.757  15.593  1.00  0.00     0.016 A
ENDBRANCH  10  13
ENDBRANCH   7  10
ENDBRANCH   1   4
BRANCH   1  19
HETATM   19  C11 UNL     1      -3.972   5.743  10.353  1.00  0.00     0.027 A
HETATM   20  C12 UNL     1      -3.525   5.596   9.051  1.00  0.00     0.034 A
HETATM   21  C13 UNL     1      -4.437   6.225   8.209  1.00  0.00     0.097 A
HETATM   22  N4  UNL     1      -5.416   6.744   8.973  1.00  0.00    -0.332 N
HETATM   23  C20 UNL     1      -5.145   6.459  10.264  1.00  0.00     0.112 A
BRANCH  22  24
HETATM   24  C14 UNL     1      -6.520   7.462   8.421  1.00  0.00     0.038 A
HETATM   25  C15 UNL     1      -6.359   8.388   7.410  1.00  0.00     0.030 A
HETATM   26  C16 UNL     1      -7.448   9.064   6.899  1.00  0.00     0.002 A
HETATM   27  C17 UNL     1      -8.725   8.840   7.377  1.00  0.00     0.000 A
HETATM   28  C18 UNL     1      -8.904   7.926   8.379  1.00  0.00     0.002 A
HETATM   29  C19 UNL     1      -7.814   7.260   8.880  1.00  0.00     0.030 A
ENDBRANCH  22  24
ENDBRANCH   1  19
BRANCH   2  30
HETATM   30  O2  UNL     1      -2.504   7.332  12.161  1.00  0.00    -0.288 OA
ATOM     31  H2  UNL     1      -1.857   7.862  12.612  1.00  0.00     0.244 HD
ENDBRANCH   2  30
TORSDOF 7
ENDMDL