MODEL 3
REMARK VINA RESULT: -8.200337785      4.128      7.588
REMARK  4 active torsions:
REMARK  status: ('A' for Active; 'I' for Inactive)
REMARK    1  A    between atoms: N1_2  and  C3_4
REMARK    2  A    between atoms: C6_7  and  C7_8
REMARK       I    between atoms: C7_8  and  N2_10
REMARK    3  A    between atoms: N2_10  and  C8_11
REMARK    4  A    between atoms: C9_14  and  C10_15
ROOT
HETATM    1  C8  UNL     1      -3.998   5.909  12.271  1.00  0.00     0.197 A
HETATM    2  N3  UNL     1      -4.469   4.836  13.012  1.00  0.00    -0.316 N
ATOM      3  H3  UNL     1      -5.023   4.120  12.542  1.00  0.00     0.170 HD
HETATM    4  C9  UNL     1      -4.228   4.708  14.303  1.00  0.00     0.118 A
HETATM    5  N5  UNL     1      -3.482   5.678  14.913  1.00  0.00    -0.341 N
ATOM      6  H5  UNL     1      -3.290   5.585  15.911  1.00  0.00     0.167 HD
HETATM    7  C15 UNL     1      -2.989   6.744  14.271  1.00  0.00     0.048 A
HETATM    8  C16 UNL     1      -2.230   7.697  14.974  1.00  0.00     0.030 A
HETATM    9  C17 UNL     1      -1.736   8.776  14.299  1.00  0.00     0.002 A
HETATM   10  C18 UNL     1      -1.964   8.950  12.949  1.00  0.00     0.001 A
HETATM   11  C19 UNL     1      -2.720   7.985  12.289  1.00  0.00     0.018 A
HETATM   12  C20 UNL     1      -3.237   6.882  12.930  1.00  0.00     0.049 A
ENDROOT
BRANCH   1  13
HETATM   13  N2  UNL     1      -4.255   6.001  11.094  1.00  0.00    -0.347 NA
HETATM   14  C7  UNL     1      -4.636   5.820   9.851  1.00  0.00     0.328 C
HETATM   15  O1  UNL     1      -4.188   4.913   9.055  1.00  0.00    -0.251 OA
BRANCH  14  16
HETATM   16  C6  UNL     1      -5.663   6.688   9.224  1.00  0.00     0.046 A
HETATM   17  C5  UNL     1      -6.725   7.210   9.929  1.00  0.00     0.020 A
HETATM   18  C4  UNL     1      -7.638   7.993   9.241  1.00  0.00     0.030 A
HETATM   19  C3  UNL     1      -7.520   8.262   7.887  1.00  0.00     0.029 A
HETATM   20  C22 UNL     1      -6.441   7.719   7.221  1.00  0.00     0.030 A
HETATM   21  C21 UNL     1      -5.526   6.944   7.876  1.00  0.00     0.020 A
BRANCH  19  22
HETATM   22  N1  UNL     1      -8.476   9.048   7.217  1.00  0.00    -0.390 N
HETATM   23  C1  UNL     1      -8.041   9.862   6.100  1.00  0.00     0.149 C
HETATM   24  C2  UNL     1      -9.869   9.062   7.596  1.00  0.00     0.149 C
ENDBRANCH  19  22
ENDBRANCH  14  16
ENDBRANCH   1  13
BRANCH   4  25
HETATM   25  C10 UNL     1      -4.708   3.591  15.112  1.00  0.00     0.011 A
HETATM   26  C11 UNL     1      -3.853   2.571  15.459  1.00  0.00     0.032 A
HETATM   27  C12 UNL     1      -4.307   1.494  16.235  1.00  0.00     0.088 A
HETATM   28  N4  UNL     1      -5.579   1.447  16.649  1.00  0.00    -0.375 N
HETATM   29  C13 UNL     1      -6.420   2.435  16.317  1.00  0.00     0.088 A
ATOM     30  H4  UNL     1      -5.907   0.662  17.213  1.00  0.00     0.164 HD
HETATM   31  C14 UNL     1      -6.001   3.532  15.540  1.00  0.00     0.032 A
ENDBRANCH   4  25
TORSDOF 4
ENDMDL