MODEL 2
REMARK VINA RESULT: -6.201103302      0.951      1.196
REMARK  9 active torsions:
REMARK  status: ('A' for Active; 'I' for Inactive)
REMARK    1  A    between atoms: O1_2  and  C2_3
REMARK    2  A    between atoms: C5_6  and  C6_7
REMARK    3  A    between atoms: C6_7  and  O2_8
REMARK    4  A    between atoms: C6_7  and  N1_10
REMARK    5  A    between atoms: N1_10  and  N2_11
REMARK    6  A    between atoms: N1_10  and  C12_20
REMARK    7  A    between atoms: N2_11  and  C7_13
REMARK    8  A    between atoms: C7_13  and  C8_15
REMARK    9  A    between atoms: C12_20  and  N3_22
ROOT
HETATM    1  N1  UNL     1      -1.963   4.710  13.025  1.00  0.00    -0.205 N
ENDROOT
BRANCH   1   2
HETATM    2  C6  UNL     1      -2.167   3.974  14.183  1.00  0.00     0.174 C
BRANCH   2   3
HETATM    3  C5  UNL     1      -3.340   3.537  14.899  1.00  0.00     0.017 A
HETATM    4  C4  UNL     1      -3.415   2.359  15.586  1.00  0.00     0.018 A
HETATM    5  C3  UNL     1      -4.600   1.940  16.200  1.00  0.00     0.037 A
HETATM    6  C2  UNL     1      -5.729   2.717  16.125  1.00  0.00     0.068 A
HETATM    7  C16 UNL     1      -5.699   3.924  15.439  1.00  0.00     0.037 A
HETATM    8  C15 UNL     1      -4.517   4.290  14.854  1.00  0.00     0.018 A
BRANCH   6   9
HETATM    9  O1  UNL     1      -6.942   2.375  16.704  1.00  0.00    -0.356 OA
HETATM   10  C1  UNL     1      -7.287   1.024  16.999  1.00  0.00     0.210 C
ENDBRANCH   6   9
ENDBRANCH   2   3
BRANCH   2  11
HETATM   11  O2  UNL     1      -1.053   3.562  14.785  1.00  0.00    -0.344 OA
ATOM     12  H2  UNL     1      -0.284   3.781  14.273  1.00  0.00     0.219 HD
ENDBRANCH   2  11
ENDBRANCH   1   2
BRANCH   1  13
HETATM   13  N2  UNL     1      -2.231   4.000  11.782  1.00  0.00    -0.278 N
ATOM     14  H2  UNL     1      -1.493   3.526  11.262  1.00  0.00     0.188 HD
BRANCH  13  15
HETATM   15  C7  UNL     1      -3.563   4.004  11.340  1.00  0.00     0.133 C
HETATM   16  S1  UNL     1      -4.472   2.653  11.277  1.00  0.00    -0.058 SA
BRANCH  15  17
HETATM   17  C8  UNL     1      -4.170   5.291  10.914  1.00  0.00     0.044 A
HETATM   18  C9  UNL     1      -4.921   6.144  11.681  1.00  0.00     0.022 A
HETATM   19  C10 UNL     1      -5.375   7.265  11.082  1.00  0.00     0.009 A
HETATM   20  C11 UNL     1      -5.050   7.451   9.771  1.00  0.00     0.050 A
HETATM   21  S2  UNL     1      -4.123   6.069   9.402  1.00  0.00    -0.099 SA
ENDBRANCH  15  17
ENDBRANCH  13  15
ENDBRANCH   1  13
BRANCH   1  22
HETATM   22  C12 UNL     1      -1.276   5.938  12.909  1.00  0.00     0.197 C
HETATM   23  S3  UNL     1      -1.551   7.216  13.955  1.00  0.00    -0.039 SA
BRANCH  22  24
HETATM   24  N3  UNL     1      -0.346   6.268  11.889  1.00  0.00    -0.365 N
HETATM   25  C13 UNL     1       0.969   5.732  11.852  1.00  0.00     0.151 C
HETATM   26  C14 UNL     1      -0.734   7.190  10.838  1.00  0.00     0.151 C
ENDBRANCH  22  24
ENDBRANCH   1  22
TORSDOF 9
ENDMDL