MODEL 4
REMARK VINA RESULT: -8.491791446      3.758      8.551
REMARK  4 active torsions:
REMARK  status: ('A' for Active; 'I' for Inactive)
REMARK    1  A    between atoms: C4_4  and  C5_5
REMARK    2  A    between atoms: C14_15  and  N2_16
REMARK    3  A    between atoms: C16_22  and  N5_23
REMARK       I    between atoms: N5_23  and  C17_25
REMARK    4  A    between atoms: C17_25  and  C18_27
ROOT
HETATM    1  C5  UNL     1      -3.709   4.284  14.706  1.00  0.00    -0.026 A
HETATM    2  C6  UNL     1      -2.893   3.225  15.042  1.00  0.00     0.014 A
HETATM    3  C7  UNL     1      -3.409   2.090  15.634  1.00  0.00     0.023 A
HETATM    4  C8  UNL     1      -4.755   1.956  15.917  1.00  0.00     0.044 A
HETATM    5  C9  UNL     1      -5.274   0.759  16.536  1.00  0.00     0.099 C
HETATM    6  N1  UNL     1      -5.708  -0.203  17.022  1.00  0.00    -0.191 NA
HETATM    7  C10 UNL     1      -5.575   3.015  15.583  1.00  0.00     0.023 A
HETATM    8  C11 UNL     1      -5.055   4.148  14.991  1.00  0.00     0.014 A
ENDROOT
BRANCH   1   9
HETATM    9  C4  UNL     1      -3.201   5.506  14.075  1.00  0.00    -0.025 A
HETATM   10  C3  UNL     1      -2.841   6.607  14.821  1.00  0.00     0.021 A
HETATM   11  C2  UNL     1      -2.366   7.744  14.209  1.00  0.00    -0.032 A
HETATM   12  C1  UNL     1      -1.970   8.947  14.981  1.00  0.00     0.050 C
HETATM   13  C14 UNL     1      -2.247   7.789  12.817  1.00  0.00     0.066 A
HETATM   14  C13 UNL     1      -2.605   6.691  12.058  1.00  0.00     0.033 A
HETATM   15  C12 UNL     1      -3.069   5.588  12.704  1.00  0.00     0.014 A
BRANCH  13  16
HETATM   16  N2  UNL     1      -1.754   8.981  12.218  1.00  0.00    -0.224 N
HETATM   17  N3  UNL     1      -2.521   9.938  11.770  1.00  0.00    -0.234 N
HETATM   18  N4  UNL     1      -1.772  10.897  11.277  1.00  0.00    -0.293 N
ATOM     19  H3  UNL     1      -3.541   9.941  11.798  1.00  0.00     0.209 HD
HETATM   20  C15 UNL     1      -0.471  10.526  11.422  1.00  0.00     0.159 A
ATOM     21  H4  UNL     1      -2.106  11.765  10.860  1.00  0.00     0.187 HD
HETATM   22  C16 UNL     1      -0.443   9.297  12.026  1.00  0.00     0.148 A
BRANCH  22  23
HETATM   23  N5  UNL     1       0.504   8.519  12.380  1.00  0.00    -0.306 N
HETATM   24  C17 UNL     1       1.219   7.693  11.502  1.00  0.00     0.257 C
HETATM   25  O1  UNL     1       0.950   7.491  10.289  1.00  0.00    -0.267 OA
ATOM     26  H5  UNL     1       0.757   8.497  13.368  1.00  0.00     0.170 HD
BRANCH  24  27
HETATM   27  C18 UNL     1       2.404   6.982  12.030  1.00  0.00     0.032 A
HETATM   28  C19 UNL     1       3.310   7.643  12.826  1.00  0.00     0.017 A
HETATM   29  C20 UNL     1       4.430   6.966  13.322  1.00  0.00     0.001 A
HETATM   30  C21 UNL     1       4.627   5.643  13.017  1.00  0.00     0.000 A
HETATM   31  C22 UNL     1       3.726   4.976  12.220  1.00  0.00     0.001 A
HETATM   32  C23 UNL     1       2.642   5.656  11.748  1.00  0.00     0.017 A
ENDBRANCH  24  27
ENDBRANCH  22  23
ENDBRANCH  13  16
ENDBRANCH   1   9
TORSDOF 4
ENDMDL