MODEL 2
REMARK VINA RESULT: -8.952928042      1.282      2.805
REMARK  3 active torsions:
REMARK  status: ('A' for Active; 'I' for Inactive)
REMARK    1  A    between atoms: C3_3  and  N1_4
REMARK    2  A    between atoms: C5_7  and  N2_8
REMARK    3  A    between atoms: C6_10  and  C7_11
ROOT
HETATM    1  C1  UNL     1       3.276   1.887   8.126  1.00  0.00     0.098 C
HETATM    2  C2  UNL     1       2.990   2.961   8.638  1.00  0.00    -0.167 C
HETATM    3  C3  UNL     1       2.662   4.254   9.229  1.00  0.00     0.212 C
ENDROOT
BRANCH   3   4
HETATM    4  N1  UNL     1       1.252   4.391   9.415  1.00  0.00    -0.299 N
HETATM    5  C4  UNL     1       0.712   4.257  10.637  1.00  0.00     0.293 A
HETATM    6  O1  UNL     1       1.491   4.014  11.571  1.00  0.00    -0.264 OA
HETATM    7  C5  UNL     1      -0.671   4.378  10.888  1.00  0.00     0.175 A
HETATM    8  N4  UNL     1      -1.474   4.649   9.821  1.00  0.00    -0.336 N
HETATM    9  C19 UNL     1      -0.953   4.787   8.591  1.00  0.00     0.061 A
ATOM     10  H4  UNL     1      -2.480   4.748   9.958  1.00  0.00     0.168 HD
HETATM   11  C20 UNL     1      -1.831   5.068   7.547  1.00  0.00     0.032 A
HETATM   12  C24 UNL     1       0.406   4.656   8.402  1.00  0.00     0.065 A
HETATM   13  C21 UNL     1      -1.291   5.211   6.287  1.00  0.00     0.002 A
HETATM   14  C22 UNL     1       0.054   5.079   6.100  1.00  0.00     0.002 A
HETATM   15  C23 UNL     1       0.932   4.803   7.132  1.00  0.00     0.032 A
BRANCH   7  16
HETATM   16  N2  UNL     1      -1.172   4.256  11.998  1.00  0.00    -0.347 N
HETATM   17  C6  UNL     1      -1.562   3.356  12.923  1.00  0.00     0.101 C
ATOM     18  H2  UNL     1      -1.372   5.189  12.360  1.00  0.00     0.167 HD
BRANCH  17  19
HETATM   19  C7  UNL     1      -2.817   3.703  13.678  1.00  0.00    -0.018 A
HETATM   20  C8  UNL     1      -3.326   4.998  13.583  1.00  0.00     0.014 A
HETATM   21  C9  UNL     1      -4.460   5.288  14.311  1.00  0.00     0.014 A
HETATM   22  C10 UNL     1      -5.116   4.399  15.115  1.00  0.00    -0.009 A
HETATM   23  C11 UNL     1      -6.261   4.732  15.839  1.00  0.00     0.016 A
HETATM   24  C17 UNL     1      -4.582   3.105  15.191  1.00  0.00     0.050 A
HETATM   25  C12 UNL     1      -6.821   3.723  16.616  1.00  0.00     0.031 A
HETATM   26  C13 UNL     1      -6.290   2.487  16.671  1.00  0.00     0.039 A
HETATM   27  C14 UNL     1      -6.652   1.332  17.361  1.00  0.00     0.031 A
HETATM   28  N3  UNL     1      -5.172   2.175  15.962  1.00  0.00    -0.322 N
HETATM   29  C15 UNL     1      -5.761   0.332  17.070  1.00  0.00     0.020 A
HETATM   30  C16 UNL     1      -4.856   0.896  16.198  1.00  0.00     0.097 A
HETATM   31  C18 UNL     1      -3.454   2.793  14.474  1.00  0.00     0.043 A
ENDBRANCH  17  19
ENDBRANCH   7  16
ENDBRANCH   3   4
TORSDOF 3
ENDMDL