MODEL 2
REMARK VINA RESULT: -7.597965911      6.032      9.524
REMARK  5 active torsions:
REMARK  status: ('A' for Active; 'I' for Inactive)
REMARK    1  A    between atoms: C3_3  and  C4_4
REMARK    2  A    between atoms: C4_4  and  C5_5
REMARK    3  A    between atoms: C7_7  and  C8_8
REMARK    4  A    between atoms: C13_15  and  O1_16
REMARK    5  A    between atoms: N2_20  and  C16_21
ROOT
HETATM    1  C1  UNL     1      -1.539   3.872  14.333  1.00  0.00     0.044 C
HETATM    2  C2  UNL     1      -2.199   3.751  13.210  1.00  0.00     0.040 A
HETATM    3  C3  UNL     1      -1.813   4.184  11.968  1.00  0.00    -0.007 A
HETATM    4  C14 UNL     1      -2.863   3.816  11.107  1.00  0.00     0.031 A
HETATM    5  C15 UNL     1      -3.800   3.195  11.858  1.00  0.00     0.098 A
HETATM    6  N2  UNL     1      -3.403   3.155  13.120  1.00  0.00    -0.321 N
ENDROOT
BRANCH   3   7
HETATM    7  C4  UNL     1      -0.759   4.804  11.532  1.00  0.00     0.029 C
BRANCH   7   8
HETATM    8  C5  UNL     1       0.116   4.506  10.417  1.00  0.00     0.018 A
HETATM    9  C6  UNL     1       1.317   3.790  10.394  1.00  0.00     0.046 A
HETATM   10  C7  UNL     1       1.837   3.781   9.121  1.00  0.00     0.054 A
HETATM   11  N1  UNL     1       0.976   4.478   8.363  1.00  0.00    -0.330 N
HETATM   12  C12 UNL     1       1.140   4.717   6.944  1.00  0.00     0.158 C
HETATM   13  C13 UNL     1      -0.051   4.921   9.090  1.00  0.00     0.152 A
BRANCH  10  14
HETATM   14  C8  UNL     1       3.079   3.146   8.658  1.00  0.00     0.031 A
HETATM   15  C9  UNL     1       3.267   1.871   8.206  1.00  0.00     0.021 A
HETATM   16  C10 UNL     1       4.507   1.526   7.838  1.00  0.00     0.008 A
HETATM   17  C11 UNL     1       5.485   2.476   7.943  1.00  0.00     0.050 A
HETATM   18  S1  UNL     1       4.636   3.824   8.555  1.00  0.00    -0.100 SA
ENDBRANCH  10  14
BRANCH  13  19
HETATM   19  O1  UNL     1      -1.135   5.672   8.668  1.00  0.00    -0.345 OA
ATOM     20  H1  UNL     1      -1.218   6.008   7.783  1.00  0.00     0.219 HD
ENDBRANCH  13  19
ENDBRANCH   7   8
ENDBRANCH   3   7
BRANCH   6  21
HETATM   21  C16 UNL     1      -4.183   2.556  14.178  1.00  0.00     0.054 A
HETATM   22  C17 UNL     1      -4.030   1.224  14.491  1.00  0.00     0.033 A
HETATM   23  C18 UNL     1      -4.797   0.672  15.518  1.00  0.00     0.027 A
HETATM   24  C19 UNL     1      -5.707   1.422  16.235  1.00  0.00     0.007 A
HETATM   25  C20 UNL     1      -6.529   0.822  17.340  1.00  0.00     0.068 C
HETATM   26  N3  UNL     1      -5.832   2.720  15.904  1.00  0.00    -0.363 N
HETATM   27  C21 UNL     1      -6.774   3.565  16.619  1.00  0.00     0.155 C
HETATM   28  C22 UNL     1      -5.098   3.283  14.907  1.00  0.00     0.120 A
ENDBRANCH   6  21
TORSDOF 5
ENDMDL