MODEL 5
REMARK VINA RESULT: -6.178659876      3.213      5.598
REMARK  4 active torsions:
REMARK  status: ('A' for Active; 'I' for Inactive)
REMARK    1  A    between atoms: C5_5  and  C6_6
REMARK    2  A    between atoms: C9_10  and  N2_11
REMARK    3  A    between atoms: N2_11  and  C10_13
REMARK    4  A    between atoms: C15_20  and  C16_21
REMARK       I    between atoms: C16_21  and  N4_23
ROOT
HETATM    1  C6  UNL     1      -1.564   7.123  12.597  1.00  0.00     0.014 A
HETATM    2  C7  UNL     1      -1.124   8.272  13.269  1.00  0.00     0.100 A
HETATM    3  C8  UNL     1      -1.149   8.296  14.711  1.00  0.00     0.104 C
HETATM    4  N1  UNL     1      -1.165   8.296  15.879  1.00  0.00    -0.191 NA
HETATM    5  C9  UNL     1      -0.663   9.394  12.599  1.00  0.00     0.125 A
HETATM    6  N3  UNL     1      -0.662   9.316  11.267  1.00  0.00    -0.327 N
ATOM      7  H3  UNL     1      -0.328  10.130  10.750  1.00  0.00     0.169 HD
HETATM    8  C13 UNL     1      -1.069   8.244  10.546  1.00  0.00     0.121 A
HETATM    9  C14 UNL     1      -1.534   7.114  11.228  1.00  0.00     0.039 A
HETATM   10  C15 UNL     1      -1.871   6.224  10.238  1.00  0.00     0.069 A
HETATM   11  C19 UNL     1      -1.624   6.787   8.987  1.00  0.00     0.025 A
HETATM   12  C20 UNL     1      -1.875   6.103   7.691  1.00  0.00     0.069 C
HETATM   13  N5  UNL     1      -1.140   8.006   9.218  1.00  0.00    -0.340 N
HETATM   14  C21 UNL     1      -0.735   8.971   8.209  1.00  0.00     0.158 C
ENDROOT
BRANCH   1  15
HETATM   15  C5  UNL     1      -2.040   6.020  13.388  1.00  0.00    -0.023 A
HETATM   16  C4  UNL     1      -1.204   4.984  13.689  1.00  0.00     0.013 A
HETATM   17  C3  UNL     1      -1.668   3.911  14.401  1.00  0.00     0.007 A
HETATM   18  C2  UNL     1      -2.978   3.851  14.828  1.00  0.00    -0.062 A
HETATM   19  C1  UNL     1      -3.433   2.650  15.604  1.00  0.00     0.048 C
HETATM   20  C23 UNL     1      -3.828   4.885  14.532  1.00  0.00     0.007 A
HETATM   21  C22 UNL     1      -3.342   5.966  13.809  1.00  0.00     0.013 A
ENDBRANCH   1  15
BRANCH   5  22
HETATM   22  N2  UNL     1      -0.288  10.384  13.310  1.00  0.00    -0.371 N
ATOM     23  H2  UNL     1       0.531  10.213  13.894  1.00  0.00     0.161 HD
BRANCH  22  24
HETATM   24  C10 UNL     1      -0.839  11.690  13.410  1.00  0.00     0.075 C
HETATM   25  C11 UNL     1      -2.336  11.700  13.562  1.00  0.00     0.031 C
HETATM   26  C12 UNL     1      -0.210  12.378  14.603  1.00  0.00     0.031 C
ENDBRANCH  22  24
ENDBRANCH   5  22
BRANCH  10  27
HETATM   27  C16 UNL     1      -2.390   4.874  10.380  1.00  0.00     0.256 C
HETATM   28  O1  UNL     1      -1.582   3.920  10.389  1.00  0.00    -0.267 OA
HETATM   29  N4  UNL     1      -3.769   4.598  10.516  1.00  0.00    -0.357 N
HETATM   30  C17 UNL     1      -4.808   5.609  10.531  1.00  0.00     0.152 C
HETATM   31  C18 UNL     1      -4.201   3.224  10.652  1.00  0.00     0.152 C
ENDBRANCH  10  27
TORSDOF 4
ENDMDL