MODEL 1
REMARK VINA RESULT: -6.844197531      0.000      0.000
REMARK  1 active torsions:
REMARK  status: ('A' for Active; 'I' for Inactive)
REMARK    1  A    between atoms: N1_1  and  C1_4
REMARK       I    between atoms: N3_11  and  C4_12
REMARK       I    between atoms: C4_12  and  N4_13
REMARK       I    between atoms: C4_12  and  N5_17
ROOT
HETATM    1  C1  UNL     1      26.366   1.816  12.373  1.00  0.00     0.693 A
HETATM    2  N2  UNL     1      26.275   0.991  11.316  1.00  0.00    -0.150 N
ATOM      3  H2  UNL     1      26.533   1.301  10.378  1.00  0.00     0.188 HD
HETATM    4  C2  UNL     1      25.827  -0.264  11.544  1.00  0.00     0.329 A
HETATM    5  O1  UNL     1      25.734  -1.055  10.563  1.00  0.00    -0.261 OA
HETATM    6  C3  UNL     1      25.472  -0.702  12.801  1.00  0.00     0.334 A
HETATM    7  O2  UNL     1      25.061  -1.882  12.955  1.00  0.00    -0.260 OA
HETATM    8  N3  UNL     1      25.577   0.142  13.823  1.00  0.00    -0.183 N
HETATM    9  C4  UNL     1      25.211  -0.299  15.138  1.00  0.00     0.504 C
HETATM   10  N4  UNL     1      26.077  -1.296  15.690  1.00  0.00    -0.031 N
ATOM     11  H41 UNL     1      25.817  -1.610  16.625  1.00  0.00     0.279 HD
ATOM     12  H42 UNL     1      27.044  -0.971  15.681  1.00  0.00     0.279 HD
ATOM     13  H43 UNL     1      26.153  -2.091  15.056  1.00  0.00     0.279 HD
HETATM   14  N5  UNL     1      23.839  -0.760  15.212  1.00  0.00    -0.031 N
ATOM     15  H51 UNL     1      23.579  -1.074  16.147  1.00  0.00     0.279 HD
ATOM     16  H52 UNL     1      23.659  -1.486  14.519  1.00  0.00     0.279 HD
ATOM     17  H53 UNL     1      23.195  -0.045  14.873  1.00  0.00     0.279 HD
HETATM   18  N6  UNL     1      26.020   1.387  13.601  1.00  0.00    -0.124 N
ATOM     19  H6  UNL     1      26.097   2.031  14.388  1.00  0.00     0.206 HD
ENDROOT
BRANCH   1  20
HETATM   20  N1  UNL     1      26.787   3.017  12.203  1.00  0.00    -0.233 N
ATOM     21  H12 UNL     1      27.716   3.185  11.817  1.00  0.00     0.174 HD
ATOM     22  H11 UNL     1      26.184   3.800  12.455  1.00  0.00     0.174 HD
ENDBRANCH   1  20
TORSDOF 1
ENDMDL