MODEL 5
REMARK VINA RESULT: -5.630383907     14.016     14.536
REMARK  4 active torsions:
REMARK  status: ('A' for Active; 'I' for Inactive)
REMARK    1  A    between atoms: N1_1  and  C1_4
REMARK    2  A    between atoms: C2_5  and  C3_6
REMARK       I    between atoms: C3_6  and  N2_8
REMARK    3  A    between atoms: N2_8  and  N3_10
REMARK    4  A    between atoms: N6_19  and  N7_20
ROOT
HETATM    1  C1  UNL     1      14.155   8.671  14.493  1.00  0.00     0.159 A
HETATM    2  C2  UNL     1      14.226   8.445  13.136  1.00  0.00     0.163 A
HETATM    3  N4  UNL     1      15.447   8.155  12.637  1.00  0.00    -0.288 N
ATOM      4  H4  UNL     1      15.557   7.980  11.638  1.00  0.00     0.187 HD
HETATM    5  N5  UNL     1      16.500   8.097  13.433  1.00  0.00    -0.249 N
ATOM      6  H5  UNL     1      17.407   7.874  13.023  1.00  0.00     0.192 HD
HETATM    7  C4  UNL     1      16.432   8.319  14.765  1.00  0.00     0.361 A
HETATM    8  O2  UNL     1      17.483   8.246  15.457  1.00  0.00    -0.243 OA
HETATM    9  N6  UNL     1      15.232   8.612  15.297  1.00  0.00    -0.192 N
ENDROOT
BRANCH   2  10
HETATM   10  C3  UNL     1      13.052   8.513  12.276  1.00  0.00     0.291 C
HETATM   11  O1  UNL     1      12.057   7.809  12.583  1.00  0.00    -0.264 OA
HETATM   12  N2  UNL     1      13.068   9.357  11.140  1.00  0.00    -0.271 N
ATOM     13  H2  UNL     1      13.907   9.903  10.946  1.00  0.00     0.189 HD
BRANCH  12  14
HETATM   14  N3  UNL     1      11.975   9.469  10.275  1.00  0.00    -0.342 N
ATOM     15  H32 UNL     1      11.054   9.617  10.688  1.00  0.00     0.176 HD
ATOM     16  H31 UNL     1      12.072   9.408   9.261  1.00  0.00     0.176 HD
ENDBRANCH  12  14
ENDBRANCH   2  10
BRANCH   1  17
HETATM   17  N1  UNL     1      12.983   8.951  14.972  1.00  0.00    -0.382 N
ATOM     18  H12 UNL     1      12.594   9.889  14.884  1.00  0.00     0.157 HD
ATOM     19  H11 UNL     1      12.486   8.187  15.431  1.00  0.00     0.157 HD
ENDBRANCH   1  17
BRANCH   9  20
HETATM   20  N7  UNL     1      15.104   8.850  16.665  1.00  0.00    -0.333 N
ATOM     21  H72 UNL     1      15.756   8.429  17.326  1.00  0.00     0.177 HD
ATOM     22  H71 UNL     1      14.354   9.445  17.018  1.00  0.00     0.177 HD
ENDBRANCH   9  20
TORSDOF 4
ENDMDL