MODEL 1
REMARK VINA RESULT: -6.884988248      0.000      0.000
REMARK  3 active torsions:
REMARK  status: ('A' for Active; 'I' for Inactive)
REMARK    1  A    between atoms: N1_1  and  N2_4
REMARK    2  A    between atoms: N2_4  and  N3_6
REMARK       I    between atoms: N3_6  and  C1_8
REMARK    3  A    between atoms: C1_8  and  C2_10
ROOT
HETATM    1  C2  UNL     1      25.890   0.479  12.491  1.00  0.00     0.186 A
HETATM    2  N4  UNL     1      25.611   0.091  13.779  1.00  0.00    -0.287 N
ATOM      3  H4  UNL     1      25.806   0.752  14.532  1.00  0.00     0.187 HD
HETATM    4  N5  UNL     1      25.110  -1.080  14.098  1.00  0.00    -0.251 N
ATOM      5  H5  UNL     1      24.919  -1.321  15.071  1.00  0.00     0.191 HD
HETATM    6  C3  UNL     1      24.853  -1.961  13.101  1.00  0.00     0.341 A
HETATM    7  O2  UNL     1      24.368  -3.098  13.385  1.00  0.00    -0.245 OA
HETATM    8  N6  UNL     1      25.101  -1.647  11.827  1.00  0.00    -0.272 N
ATOM      9  H6  UNL     1      24.901  -2.323  11.090  1.00  0.00     0.174 HD
HETATM   10  C4  UNL     1      25.625  -0.418  11.504  1.00  0.00     0.283 A
HETATM   11  O3  UNL     1      25.833  -0.206  10.273  1.00  0.00    -0.265 OA
ENDROOT
BRANCH   1  12
HETATM   12  C1  UNL     1      26.476   1.771  12.231  1.00  0.00     0.294 C
HETATM   13  N3  UNL     1      26.579   2.371  10.959  1.00  0.00    -0.250 N
ATOM     14  H3  UNL     1      26.210   1.870  10.152  1.00  0.00     0.192 HD
HETATM   15  O1  UNL     1      26.927   2.385  13.261  1.00  0.00    -0.264 OA
BRANCH  13  16
HETATM   16  N2  UNL     1      27.166   3.624  10.756  1.00  0.00    -0.246 N
ATOM     17  H2  UNL     1      27.442   4.220  11.536  1.00  0.00     0.207 HD
BRANCH  16  18
HETATM   18  N1  UNL     1      27.347   4.006   9.473  1.00  0.00    -0.331 N
ATOM     19  H12 UNL     1      28.167   3.700   8.948  1.00  0.00     0.178 HD
ATOM     20  H11 UNL     1      26.629   4.607   9.069  1.00  0.00     0.178 HD
ENDBRANCH  16  18
ENDBRANCH  13  16
ENDBRANCH   1  12
TORSDOF 3
ENDMDL