MODEL 5
REMARK VINA RESULT: -5.050031112     11.702     13.126
REMARK  2 active torsions:
REMARK  status: ('A' for Active; 'I' for Inactive)
REMARK    1  A    between atoms: N1_2  and  C3_4
REMARK    2  A    between atoms: C4_7  and  N3_8
ROOT
HETATM    1  C3  UNL     1      26.072   0.836  13.276  1.00  0.00     0.162 C
HETATM    2  N2  UNL     1      26.656  -0.324  13.699  1.00  0.00    -0.173 N
ATOM      3  H2  UNL     1      27.484  -0.609  13.177  1.00  0.00     0.186 HD
HETATM    4  C4  UNL     1      26.295  -1.157  14.715  1.00  0.00     0.681 C
HETATM    5  N4  UNL     1      25.286  -0.956  15.581  1.00  0.00    -0.141 N
ATOM      6  H4  UNL     1      25.149  -1.718  16.244  1.00  0.00     0.189 HD
HETATM    7  C5  UNL     1      24.422   0.069  15.733  1.00  0.00     0.340 C
HETATM    8  O1  UNL     1      23.437  -0.084  16.472  1.00  0.00    -0.246 OA
HETATM    9  N5  UNL     1      24.531   1.293  15.136  1.00  0.00    -0.291 N
ATOM     10  H5  UNL     1      23.933   2.027  15.514  1.00  0.00     0.172 HD
HETATM   11  C6  UNL     1      25.340   1.657  14.098  1.00  0.00     0.148 C
HETATM   12  N6  UNL     1      25.461   2.887  13.829  1.00  0.00    -0.382 N
ATOM     13  H61 UNL     1      24.917   3.497  14.439  1.00  0.00     0.157 HD
ATOM     14  H62 UNL     1      26.065   3.159  13.053  1.00  0.00     0.157 HD
ENDROOT
BRANCH   1  15
HETATM   15  N1  UNL     1      26.209   1.222  11.945  1.00  0.00    -0.372 N
HETATM   16  C1  UNL     1      25.872   0.178  10.950  1.00  0.00     0.150 C
HETATM   17  C2  UNL     1      26.618   2.468  11.431  1.00  0.00     0.150 C
ENDBRANCH   1  15
BRANCH   4  18
HETATM   18  N3  UNL     1      26.996  -2.235  14.843  1.00  0.00    -0.234 N
ATOM     19  H32 UNL     1      27.437  -2.415  15.746  1.00  0.00     0.174 HD
ATOM     20  H31 UNL     1      27.056  -2.833  14.018  1.00  0.00     0.174 HD
ENDBRANCH   4  18
TORSDOF 2
ENDMDL