MODEL 2
REMARK VINA RESULT: -5.857805624      1.894      3.518
REMARK  2 active torsions:
REMARK  status: ('A' for Active; 'I' for Inactive)
REMARK    1  A    between atoms: O1_2  and  C2_3
REMARK    2  A    between atoms: N5_15  and  N6_16
ROOT
HETATM    1  C2  UNL     1      23.896  -0.419  15.269  1.00  0.00     0.168 C
HETATM    2  C3  UNL     1      24.635  -0.209  14.216  1.00  0.00     0.123 A
HETATM    3  C4  UNL     1      25.353   1.049  14.086  1.00  0.00     0.119 A
HETATM    4  N1  UNL     1      25.213   2.003  15.128  1.00  0.00    -0.096 NA
HETATM    5  C5  UNL     1      26.121   1.297  13.015  1.00  0.00     0.158 A
HETATM    6  N2  UNL     1      26.803   2.553  12.944  1.00  0.00    -0.080 NA
HETATM    7  N3  UNL     1      26.241   0.322  11.990  1.00  0.00    -0.175 N
ATOM      8  H3  UNL     1      26.829   0.525  11.183  1.00  0.00     0.185 HD
HETATM    9  C6  UNL     1      25.569  -0.927  12.053  1.00  0.00     0.698 A
HETATM   10  N4  UNL     1      25.674  -1.818  11.123  1.00  0.00    -0.233 N
ATOM     11  H41 UNL     1      25.191  -2.715  11.168  1.00  0.00     0.174 HD
ATOM     12  H42 UNL     1      26.258  -1.632  10.308  1.00  0.00     0.174 HD
HETATM   13  N5  UNL     1      24.751  -1.187  13.194  1.00  0.00    -0.089 N
ENDROOT
BRANCH   1  14
HETATM   14  O1  UNL     1      23.760   0.530  16.301  1.00  0.00    -0.365 OA
HETATM   15  C1  UNL     1      22.419   0.914  16.627  1.00  0.00     0.209 C
ENDBRANCH   1  14
BRANCH  13  16
HETATM   16  N6  UNL     1      24.055  -2.404  13.320  1.00  0.00    -0.324 N
ATOM     17  H62 UNL     1      23.198  -2.573  12.795  1.00  0.00     0.178 HD
ATOM     18  H61 UNL     1      24.417  -3.125  13.946  1.00  0.00     0.178 HD
ENDBRANCH  13  16
TORSDOF 2
ENDMDL