MODEL 5
REMARK VINA RESULT: -6.034457392      1.272      1.272
REMARK  3 active torsions:
REMARK  status: ('A' for Active; 'I' for Inactive)
REMARK    1  A    between atoms: N1_1  and  N2_4
REMARK    2  A    between atoms: C4_14  and  C5_15
REMARK       I    between atoms: C5_15  and  N5_17
REMARK    3  A    between atoms: N5_17  and  N6_19
ROOT
HETATM    1  N2  UNL     1      24.365   0.112  15.058  1.00  0.00    -0.291 N
ATOM      2  H2  UNL     1      23.991  -0.837  15.097  1.00  0.00     0.188 HD
HETATM    3  C1  UNL     1      25.069   0.486  14.046  1.00  0.00     0.140 A
HETATM    4  N3  UNL     1      25.563   1.764  14.009  1.00  0.00    -0.293 N
ATOM      5  H3  UNL     1      25.348   2.408  14.770  1.00  0.00     0.172 HD
HETATM    6  C2  UNL     1      26.324   2.183  12.988  1.00  0.00     0.325 A
HETATM    7  O1  UNL     1      26.764   3.363  12.981  1.00  0.00    -0.247 OA
HETATM    8  N4  UNL     1      26.592   1.311  11.998  1.00  0.00    -0.318 N
ATOM      9  H4  UNL     1      27.171   1.624  11.219  1.00  0.00     0.170 HD
HETATM   10  C3  UNL     1      26.134   0.056  11.988  1.00  0.00     0.114 A
HETATM   11  C4  UNL     1      25.332  -0.404  13.048  1.00  0.00     0.094 A
ENDROOT
BRANCH  11  12
HETATM   12  C5  UNL     1      24.822  -1.785  12.965  1.00  0.00     0.274 C
HETATM   13  O2  UNL     1      24.019  -2.057  11.995  1.00  0.00    -0.266 OA
HETATM   14  N5  UNL     1      25.111  -2.841  13.828  1.00  0.00    -0.272 N
ATOM     15  H5  UNL     1      25.734  -2.701  14.623  1.00  0.00     0.189 HD
BRANCH  14  16
HETATM   16  N6  UNL     1      24.536  -4.097  13.592  1.00  0.00    -0.342 N
ATOM     17  H62 UNL     1      25.061  -4.797  13.067  1.00  0.00     0.176 HD
ATOM     18  H61 UNL     1      23.601  -4.294  13.949  1.00  0.00     0.176 HD
ENDBRANCH  14  16
ENDBRANCH  11  12
BRANCH   1  19
HETATM   19  N1  UNL     1      24.115   0.997  16.092  1.00  0.00    -0.344 N
ATOM     20  H12 UNL     1      23.476   0.720  16.838  1.00  0.00     0.176 HD
ATOM     21  H11 UNL     1      24.567   1.912  16.101  1.00  0.00     0.176 HD
ENDBRANCH   1  19
TORSDOF 3
ENDMDL