MODEL 3
REMARK VINA RESULT: -5.928939836      1.344      4.412
REMARK  1 active torsions:
REMARK  status: ('A' for Active; 'I' for Inactive)
REMARK    1  A    between atoms: N1_1  and  C1_4
REMARK       I    between atoms: N3_9  and  C3_10
ROOT
HETATM    1  C1  UNL     1      26.642   2.639  11.615  1.00  0.00     0.683 A
HETATM    2  N2  UNL     1      26.444   1.522  10.897  1.00  0.00    -0.141 N
ATOM      3  H2  UNL     1      26.665   1.525   9.901  1.00  0.00     0.189 HD
HETATM    4  C2  UNL     1      25.953   0.386  11.468  1.00  0.00     0.352 A
HETATM    5  O1  UNL     1      25.774  -0.648  10.789  1.00  0.00    -0.245 OA
HETATM    6  N3  UNL     1      25.651   0.351  12.779  1.00  0.00    -0.166 N
HETATM    7  C3  UNL     1      25.138  -0.816  13.407  1.00  0.00     0.347 C
HETATM    8  N4  UNL     1      24.920  -2.012  12.670  1.00  0.00    -0.039 NA
HETATM    9  O2  UNL     1      24.864  -0.830  14.626  1.00  0.00    -0.250 OA
HETATM   10  C4  UNL     1      25.854   1.477  13.486  1.00  0.00     0.352 A
HETATM   11  O3  UNL     1      25.568   1.441  14.727  1.00  0.00    -0.245 OA
HETATM   12  N5  UNL     1      26.341   2.603  12.918  1.00  0.00    -0.141 N
ATOM     13  H5  UNL     1      26.480   3.437  13.491  1.00  0.00     0.189 HD
ENDROOT
BRANCH   1  14
HETATM   14  N1  UNL     1      27.113   3.720  11.044  1.00  0.00    -0.234 N
ATOM     15  H12 UNL     1      27.644   3.681  10.174  1.00  0.00     0.174 HD
ATOM     16  H11 UNL     1      26.958   4.636  11.466  1.00  0.00     0.174 HD
ENDBRANCH   1  14
TORSDOF 1
ENDMDL