MODEL 3
REMARK VINA RESULT: -5.853440362      1.435      5.132
REMARK  4 active torsions:
REMARK  status: ('A' for Active; 'I' for Inactive)
REMARK    1  A    between atoms: N1_1  and  C1_4
REMARK    2  A    between atoms: C2_5  and  C3_6
REMARK       I    between atoms: C3_6  and  N2_8
REMARK    3  A    between atoms: N2_8  and  N3_10
REMARK    4  A    between atoms: N6_19  and  N7_20
ROOT
HETATM    1  C1  UNL     1      25.340   0.667  13.728  1.00  0.00     0.159 A
HETATM    2  C2  UNL     1      25.994   0.929  12.530  1.00  0.00     0.163 A
HETATM    3  N4  UNL     1      26.033  -0.090  11.638  1.00  0.00    -0.288 N
ATOM      4  H4  UNL     1      26.504   0.064  10.747  1.00  0.00     0.187 HD
HETATM    5  N5  UNL     1      25.491  -1.272  11.867  1.00  0.00    -0.249 N
ATOM      6  H5  UNL     1      25.557  -1.998  11.152  1.00  0.00     0.192 HD
HETATM    7  C4  UNL     1      24.855  -1.540  13.021  1.00  0.00     0.361 A
HETATM    8  O2  UNL     1      24.331  -2.659  13.263  1.00  0.00    -0.243 OA
HETATM    9  N6  UNL     1      24.796  -0.545  13.936  1.00  0.00    -0.192 N
ENDROOT
BRANCH   2  10
HETATM   10  C3  UNL     1      26.589   2.214  12.270  1.00  0.00     0.291 C
HETATM   11  O1  UNL     1      27.015   2.901  13.206  1.00  0.00    -0.264 OA
HETATM   12  N2  UNL     1      26.679   2.680  10.936  1.00  0.00    -0.271 N
ATOM     13  H2  UNL     1      26.321   2.095  10.181  1.00  0.00     0.189 HD
BRANCH  12  14
HETATM   14  N3  UNL     1      27.245   3.918  10.630  1.00  0.00    -0.342 N
ATOM     15  H32 UNL     1      27.212   4.236   9.661  1.00  0.00     0.176 HD
ATOM     16  H31 UNL     1      27.683   4.498  11.345  1.00  0.00     0.176 HD
ENDBRANCH  12  14
ENDBRANCH   2  10
BRANCH   1  17
HETATM   17  N1  UNL     1      25.279   1.608  14.608  1.00  0.00    -0.382 N
ATOM     18  H12 UNL     1      25.990   1.724  15.331  1.00  0.00     0.157 HD
ATOM     19  H11 UNL     1      24.489   2.251  14.571  1.00  0.00     0.157 HD
ENDBRANCH   1  17
BRANCH   9  20
HETATM   20  N7  UNL     1      24.140  -0.826  15.127  1.00  0.00    -0.333 N
ATOM     21  H72 UNL     1      23.471  -0.132  15.459  1.00  0.00     0.177 HD
ATOM     22  H71 UNL     1      24.332  -1.692  15.631  1.00  0.00     0.177 HD
ENDBRANCH   9  20
TORSDOF 4
ENDMDL