MODEL 2
REMARK VINA RESULT: -5.968138292      1.858      4.330
REMARK  3 active torsions:
REMARK  status: ('A' for Active; 'I' for Inactive)
REMARK    1  A    between atoms: N1_2  and  C2_4
REMARK    2  A    between atoms: C3_7  and  C5_9
REMARK       I    between atoms: C5_9  and  N3_11
REMARK    3  A    between atoms: N3_11  and  N4_13
ROOT
HETATM    1  C2  UNL     1      20.586   1.819  18.195  1.00  0.00     0.188 C
HETATM    2  N2  UNL     1      21.438   0.883  17.959  1.00  0.00    -0.329 N
ATOM      3  H2  UNL     1      21.793   0.228  18.655  1.00  0.00     0.165 HD
HETATM    4  C3  UNL     1      21.820   0.894  16.564  1.00  0.00     0.203 C
HETATM    5  C4  UNL     1      23.328   0.815  16.407  1.00  0.00     0.071 C
HETATM    6  N5  UNL     1      21.300   2.131  16.048  1.00  0.00    -0.096 NA
HETATM    7  N6  UNL     1      20.330   2.528  16.989  1.00  0.00    -0.272 N
ATOM      8  H6  UNL     1      19.580   3.201  16.833  1.00  0.00     0.185 HD
ENDROOT
BRANCH   4   9
HETATM    9  C5  UNL     1      21.242  -0.290  15.903  1.00  0.00     0.282 C
HETATM   10  O1  UNL     1      20.009  -0.412  15.657  1.00  0.00    -0.267 OA
HETATM   11  N3  UNL     1      22.086  -1.354  15.515  1.00  0.00    -0.273 N
ATOM     12  H3  UNL     1      23.085  -1.272  15.706  1.00  0.00     0.189 HD
BRANCH  11  13
HETATM   13  N4  UNL     1      21.628  -2.511  14.885  1.00  0.00    -0.343 N
ATOM     14  H42 UNL     1      21.100  -2.392  14.020  1.00  0.00     0.176 HD
ATOM     15  H41 UNL     1      21.793  -3.452  15.244  1.00  0.00     0.176 HD
ENDBRANCH  11  13
ENDBRANCH   4   9
BRANCH   1  16
HETATM   16  N1  UNL     1      19.978   2.120  19.466  1.00  0.00    -0.366 N
HETATM   17  C1  UNL     1      20.133   1.166  20.546  1.00  0.00     0.149 C
ATOM     18  H1  UNL     1      19.452   2.983  19.602  1.00  0.00     0.162 HD
ENDBRANCH   1  16
TORSDOF 3
ENDMDL