MODEL 1
REMARK VINA RESULT: -6.199064591      0.000      0.000
REMARK  5 active torsions:
REMARK  status: ('A' for Active; 'I' for Inactive)
REMARK    1  A    between atoms: N1_1  and  C1_4
REMARK    2  A    between atoms: C3_8  and  C4_9
REMARK       I    between atoms: C4_9  and  N3_11
REMARK    3  A    between atoms: N3_11  and  N4_13
REMARK    4  A    between atoms: C5_16  and  N5_17
REMARK    5  A    between atoms: N5_17  and  N6_19
ROOT
HETATM    1  C1  UNL     1      25.725   2.029  13.364  1.00  0.00     0.677 A
HETATM    2  N2  UNL     1      26.189   1.207  12.403  1.00  0.00    -0.201 N
ATOM      3  H2  UNL     1      26.617   1.606  11.567  1.00  0.00     0.183 HD
HETATM    4  C2  UNL     1      26.096  -0.151  12.529  1.00  0.00     0.127 A
HETATM    5  C3  UNL     1      25.525  -0.736  13.636  1.00  0.00     0.095 A
HETATM    6  C5  UNL     1      25.048   0.115  14.612  1.00  0.00     0.152 A
HETATM    7  N7  UNL     1      25.166   1.454  14.444  1.00  0.00    -0.175 N
ATOM      8  H7  UNL     1      24.809   2.062  15.181  1.00  0.00     0.186 HD
ENDROOT
BRANCH   5   9
HETATM    9  C4  UNL     1      25.481  -2.190  13.805  1.00  0.00     0.274 C
HETATM   10  O1  UNL     1      24.521  -2.879  13.320  1.00  0.00    -0.266 OA
HETATM   11  N3  UNL     1      26.511  -2.843  14.504  1.00  0.00    -0.272 N
ATOM     12  H3  UNL     1      27.289  -2.309  14.892  1.00  0.00     0.189 HD
BRANCH  11  13
HETATM   13  N4  UNL     1      26.462  -4.238  14.665  1.00  0.00    -0.342 N
ATOM     14  H42 UNL     1      26.802  -4.839  13.915  1.00  0.00     0.176 HD
ATOM     15  H41 UNL     1      26.087  -4.630  15.528  1.00  0.00     0.176 HD
ENDBRANCH  11  13
ENDBRANCH   5   9
BRANCH   6  16
HETATM   16  N5  UNL     1      24.492  -0.391  15.659  1.00  0.00    -0.291 N
ATOM     17  H5  UNL     1      25.056  -0.787  16.411  1.00  0.00     0.188 HD
BRANCH  16  18
HETATM   18  N6  UNL     1      23.072  -0.382  15.738  1.00  0.00    -0.344 N
ATOM     19  H62 UNL     1      22.613  -0.215  16.634  1.00  0.00     0.176 HD
ATOM     20  H61 UNL     1      22.540  -0.545  14.883  1.00  0.00     0.176 HD
ENDBRANCH  16  18
ENDBRANCH   6  16
BRANCH   1  21
HETATM   21  N1  UNL     1      25.849   3.315  13.271  1.00  0.00    -0.234 N
ATOM     22  H12 UNL     1      25.042   3.935  13.345  1.00  0.00     0.174 HD
ATOM     23  H11 UNL     1      26.763   3.753  13.152  1.00  0.00     0.174 HD
ENDBRANCH   1  21
TORSDOF 5
ENDMDL