MODEL 5
REMARK VINA RESULT: -5.055421215      1.776      2.746
REMARK  3 active torsions:
REMARK  status: ('A' for Active; 'I' for Inactive)
REMARK    1  A    between atoms: C2_2  and  C3_3
REMARK    2  A    between atoms: C3_3  and  C4_4
REMARK    3  A    between atoms: N1_5  and  N2_7
ROOT
HETATM    1  N2  UNL     1      14.829  22.419  -6.722  1.00  0.00    -0.272 N
ATOM      2  H2  UNL     1      15.794  22.125  -6.577  1.00  0.00     0.190 HD
HETATM    3  C5  UNL     1      14.291  22.285  -7.908  1.00  0.00     0.190 C
HETATM    4  N3  UNL     1      14.985  21.743  -9.025  1.00  0.00    -0.360 N
ATOM      5  H3  UNL     1      15.931  21.363  -9.024  1.00  0.00     0.162 HD
HETATM    6  C6  UNL     1      14.093  21.834 -10.165  1.00  0.00     0.142 C
HETATM    7  C7  UNL     1      12.731  21.818  -9.503  1.00  0.00     0.142 C
HETATM    8  N4  UNL     1      12.974  22.629  -8.323  1.00  0.00    -0.360 N
ATOM      9  H4  UNL     1      12.340  23.298  -7.887  1.00  0.00     0.162 HD
ENDROOT
BRANCH   1  10
HETATM   10  N1  UNL     1      14.111  22.956  -5.654  1.00  0.00    -0.313 N
HETATM   11  C4  UNL     1      14.599  23.999  -5.038  1.00  0.00     0.084 C
ATOM     12  H1  UNL     1      13.226  22.544  -5.360  1.00  0.00     0.185 HD
BRANCH  11  13
HETATM   13  C3  UNL     1      13.855  24.580  -3.908  1.00  0.00     0.072 C
BRANCH  13  14
HETATM   14  C2  UNL     1      14.207  26.021  -3.816  1.00  0.00    -0.032 C
HETATM   15  C1  UNL     1      14.442  26.696  -4.931  1.00  0.00     0.007 C
ENDBRANCH  13  14
ENDBRANCH  11  13
ENDBRANCH   1  10
TORSDOF 3
ENDMDL