MODEL 3
REMARK VINA RESULT: -4.424907967      1.227      5.423
REMARK  4 active torsions:
REMARK  status: ('A' for Active; 'I' for Inactive)
REMARK    1  A    between atoms: N1_2  and  N2_4
REMARK    2  A    between atoms: C2_6  and  C3_7
REMARK    3  A    between atoms: N3_8  and  C4_10
REMARK    4  A    between atoms: C4_10  and  C5_11
ROOT
HETATM    1  C3  UNL     1      13.781  23.704  -6.305  1.00  0.00     0.101 C
HETATM    2  N3  UNL     1      13.518  24.354  -5.232  1.00  0.00    -0.396 N
ATOM      3  H3  UNL     1      12.956  25.201  -5.320  1.00  0.00     0.158 HD
ENDROOT
BRANCH   2   4
HETATM    4  C4  UNL     1      13.953  23.981  -3.913  1.00  0.00     0.153 C
BRANCH   4   5
HETATM    5  C5  UNL     1      15.130  24.871  -3.584  1.00  0.00     0.229 A
HETATM    6  C6  UNL     1      15.672  24.646  -2.182  1.00  0.00     0.267 A
HETATM    7  N4  UNL     1      16.428  24.277  -3.349  1.00  0.00    -0.066 N
ATOM      8  H42 UNL     1      16.858  23.403  -3.651  1.00  0.00     0.277 HD
ATOM      9  H41 UNL     1      17.368  24.510  -3.670  1.00  0.00     0.277 HD
ENDBRANCH   4   5
ENDBRANCH   2   4
BRANCH   1  10
HETATM   10  C2  UNL     1      14.571  22.484  -6.308  1.00  0.00     0.123 C
HETATM   11  N2  UNL     1      14.850  21.917  -7.429  1.00  0.00    -0.312 N
ATOM     12  H2  UNL     1      15.404  21.061  -7.434  1.00  0.00     0.186 HD
BRANCH  11  13
HETATM   13  N1  UNL     1      14.407  22.455  -8.635  1.00  0.00    -0.322 N
HETATM   14  C1  UNL     1      13.600  21.824  -9.390  1.00  0.00     0.139 C
ATOM     15  H1  UNL     1      14.737  23.378  -8.919  1.00  0.00     0.185 HD
ENDBRANCH  11  13
ENDBRANCH   1  10
TORSDOF 4
ENDMDL