MODEL 2
REMARK VINA RESULT: -4.573751544      1.909      3.101
REMARK  4 active torsions:
REMARK  status: ('A' for Active; 'I' for Inactive)
REMARK    1  A    between atoms: C3_3  and  C4_4
REMARK    2  A    between atoms: C3_3  and  C6_9
REMARK    3  A    between atoms: C4_4  and  N1_5
REMARK    4  A    between atoms: C6_9  and  N2_11
ROOT
HETATM    1  C1  UNL     1      13.407  27.431  -1.085  1.00  0.00     0.012 C
HETATM    2  C2  UNL     1      13.958  26.804  -1.953  1.00  0.00    -0.109 C
HETATM    3  C3  UNL     1      14.660  26.045  -3.027  1.00  0.00     0.119 C
ENDROOT
BRANCH   3   4
HETATM    4  C4  UNL     1      13.588  25.650  -4.018  1.00  0.00     0.250 C
BRANCH   4   5
HETATM    5  N1  UNL     1      12.778  24.546  -3.606  1.00  0.00    -0.078 N
HETATM    6  C5  UNL     1      11.682  24.368  -4.549  1.00  0.00     0.267 C
ATOM      7  H12 UNL     1      13.324  23.693  -3.484  1.00  0.00     0.276 HD
ATOM      8  H11 UNL     1      12.447  24.646  -2.647  1.00  0.00     0.276 HD
ENDBRANCH   4   5
ENDBRANCH   3   4
BRANCH   3   9
HETATM    9  C6  UNL     1      15.235  24.827  -2.329  1.00  0.00     0.196 C
HETATM   10  C7  UNL     1      15.547  25.166  -0.880  1.00  0.00     0.041 C
BRANCH   9  11
HETATM   11  N2  UNL     1      16.422  24.310  -2.934  1.00  0.00    -0.074 N
ATOM     12  H23 UNL     1      16.210  23.473  -3.476  1.00  0.00     0.274 HD
ATOM     13  H22 UNL     1      16.739  24.926  -3.682  1.00  0.00     0.274 HD
ATOM     14  H21 UNL     1      17.181  24.126  -2.278  1.00  0.00     0.274 HD
ENDBRANCH   9  11
ENDBRANCH   3   9
TORSDOF 4
ENDMDL