MODEL 4
REMARK VINA RESULT: -4.968701993      1.692      2.803
REMARK  6 active torsions:
REMARK  status: ('A' for Active; 'I' for Inactive)
REMARK    1  A    between atoms: N1_2  and  N2_4
REMARK    2  A    between atoms: N2_4  and  C2_6
REMARK    3  A    between atoms: C2_6  and  C3_7
REMARK    4  A    between atoms: C5_12  and  N4_13
REMARK    5  A    between atoms: N4_13  and  N5_15
REMARK    6  A    between atoms: N5_15  and  N6_16
ROOT
HETATM    1  C3  UNL     1      14.169  26.599  -2.526  1.00  0.00     0.083 A
HETATM    2  C4  UNL     1      13.805  27.603  -1.468  1.00  0.00     0.245 A
HETATM    3  N3  UNL     1      13.306  26.478  -0.662  1.00  0.00    -0.051 N
ATOM      4  H31 UNL     1      12.349  26.516  -0.312  1.00  0.00     0.279 HD
ATOM      5  H32 UNL     1      13.678  26.352   0.280  1.00  0.00     0.279 HD
HETATM    6  C5  UNL     1      13.637  25.488  -1.680  1.00  0.00     0.320 A
ENDROOT
BRANCH   1   7
HETATM    7  C2  UNL     1      13.490  26.757  -3.844  1.00  0.00     0.149 C
BRANCH   7   8
HETATM    8  N2  UNL     1      14.292  26.253  -4.940  1.00  0.00    -0.337 N
ATOM      9  H2  UNL     1      14.802  26.902  -5.539  1.00  0.00     0.180 HD
BRANCH   8  10
HETATM   10  N1  UNL     1      14.367  24.885  -5.176  1.00  0.00    -0.326 N
HETATM   11  C1  UNL     1      13.377  24.092  -5.170  1.00  0.00     0.138 C
ATOM     12  H1  UNL     1      15.288  24.490  -5.369  1.00  0.00     0.184 HD
ENDBRANCH   8  10
ENDBRANCH   7   8
ENDBRANCH   1   7
BRANCH   6  13
HETATM   13  N4  UNL     1      14.657  24.540  -1.273  1.00  0.00    -0.221 N
ATOM     14  H4  UNL     1      15.631  24.755  -1.482  1.00  0.00     0.199 HD
BRANCH  13  15
HETATM   15  N5  UNL     1      14.401  23.488  -0.686  1.00  0.00    -0.247 NA
BRANCH  15  16
HETATM   16  N6  UNL     1      14.022  22.567   0.058  1.00  0.00    -0.261 N
ATOM     17  H62 UNL     1      13.744  22.027  -0.762  1.00  0.00     0.193 HD
ATOM     18  H61 UNL     1      13.771  21.929   0.813  1.00  0.00     0.193 HD
ENDBRANCH  15  16
ENDBRANCH  13  15
ENDBRANCH   6  13
TORSDOF 6
ENDMDL