MODEL 4
REMARK VINA RESULT: -4.771937188      2.498      3.658
REMARK  3 active torsions:
REMARK  status: ('A' for Active; 'I' for Inactive)
REMARK    1  A    between atoms: C1_2  and  N1_3
REMARK    2  A    between atoms: N1_3  and  N2_5
REMARK    3  A    between atoms: C2_7  and  C3_8
ROOT
HETATM    1  C3  UNL     1      15.037  25.071  -3.346  1.00  0.00     0.065 A
HETATM    2  C4  UNL     1      14.457  24.254  -4.323  1.00  0.00     0.119 A
HETATM    3  N3  UNL     1      14.178  25.083  -5.337  1.00  0.00    -0.360 N
ATOM      4  H3  UNL     1      13.744  24.802  -6.216  1.00  0.00     0.166 HD
HETATM    5  C5  UNL     1      14.550  26.336  -5.034  1.00  0.00     0.180 A
HETATM    6  N4  UNL     1      15.077  26.321  -3.809  1.00  0.00    -0.350 N
ATOM      7  H4  UNL     1      15.448  27.129  -3.309  1.00  0.00     0.166 HD
ENDROOT
BRANCH   1   8
HETATM    8  C2  UNL     1      15.499  24.563  -2.050  1.00  0.00     0.138 C
HETATM    9  N2  UNL     1      14.743  24.760  -1.028  1.00  0.00    -0.308 N
ATOM     10  H2  UNL     1      15.056  24.410  -0.122  1.00  0.00     0.186 HD
BRANCH   9  11
HETATM   11  N1  UNL     1      13.525  25.424  -1.091  1.00  0.00    -0.278 N
ATOM     12  H1  UNL     1      12.712  24.944  -1.479  1.00  0.00     0.189 HD
BRANCH  11  13
HETATM   13  C1  UNL     1      13.390  26.767  -0.624  1.00  0.00     0.368 C
HETATM   14  O1  UNL     1      14.197  27.626  -1.036  1.00  0.00    -0.282 OA
ENDBRANCH  11  13
ENDBRANCH   9  11
ENDBRANCH   1   8
TORSDOF 3
ENDMDL