MODEL 4
REMARK VINA RESULT: -5.194444338      3.221      5.247
REMARK  4 active torsions:
REMARK  status: ('A' for Active; 'I' for Inactive)
REMARK    1  A    between atoms: C1_4  and  N2_5
REMARK    2  A    between atoms: N2_5  and  O1_7
REMARK    3  A    between atoms: O1_7  and  C2_8
REMARK    4  A    between atoms: C2_8  and  C3_9
ROOT
HETATM    1  C2  UNL     1      13.979  25.250  -0.915  1.00  0.00     0.241 C
ENDROOT
BRANCH   1   2
HETATM    2  O1  UNL     1      14.345  26.577  -0.657  1.00  0.00    -0.275 OA
BRANCH   2   3
HETATM    3  N2  UNL     1      13.225  27.309  -0.797  1.00  0.00    -0.263 N
ATOM      4  H2  UNL     1      12.402  27.132  -0.221  1.00  0.00     0.195 HD
BRANCH   3   5
HETATM    5  C1  UNL     1      13.233  28.333  -1.771  1.00  0.00     0.197 C
HETATM    6  N1  UNL     1      12.912  27.999  -2.979  1.00  0.00    -0.394 N
ATOM      7  H12 UNL     1      12.668  27.035  -3.203  1.00  0.00     0.156 HD
ATOM      8  H11 UNL     1      12.918  28.738  -3.682  1.00  0.00     0.156 HD
ENDBRANCH   3   5
ENDBRANCH   2   3
ENDBRANCH   1   2
BRANCH   1   9
HETATM    9  C3  UNL     1      14.506  24.792  -2.225  1.00  0.00    -0.017 A
HETATM   10  C4  UNL     1      13.599  24.533  -3.221  1.00  0.00     0.012 A
HETATM   11  C5  UNL     1      14.010  24.101  -4.478  1.00  0.00     0.018 A
HETATM   12  C6  UNL     1      15.378  23.942  -4.678  1.00  0.00     0.087 A
HETATM   13  N3  UNL     1      16.244  24.204  -3.684  1.00  0.00    -0.375 N
HETATM   14  C7  UNL     1      15.865  24.621  -2.467  1.00  0.00     0.096 A
ATOM     15  H3  UNL     1      17.240  24.079  -3.865  1.00  0.00     0.164 HD
ENDBRANCH   1   9
TORSDOF 4
ENDMDL