MODEL 3
REMARK VINA RESULT: -4.866725671      1.252      5.342
REMARK  4 active torsions:
REMARK  status: ('A' for Active; 'I' for Inactive)
REMARK    1  A    between atoms: C2_2  and  N1_3
REMARK    2  A    between atoms: C4_7  and  N3_8
REMARK    3  A    between atoms: N3_8  and  C5_10
REMARK    4  A    between atoms: C5_10  and  N4_11
ROOT
HETATM    1  N1  UNL     1      14.045  23.742  -5.079  1.00  0.00    -0.368 N
HETATM    2  C3  UNL     1      12.958  23.530  -4.150  1.00  0.00     0.247 C
HETATM    3  N2  UNL     1      13.030  24.621  -3.242  1.00  0.00    -0.362 N
ATOM      4  H2  UNL     1      12.275  24.902  -2.617  1.00  0.00     0.162 HD
HETATM    5  C4  UNL     1      14.196  25.219  -3.314  1.00  0.00     0.093 C
HETATM    6  C7  UNL     1      15.013  24.519  -4.320  1.00  0.00     0.199 C
ENDROOT
BRANCH   5   7
HETATM    7  N3  UNL     1      14.472  26.320  -2.498  1.00  0.00    -0.356 N
ATOM      8  H3  UNL     1      14.789  27.180  -2.946  1.00  0.00     0.162 HD
BRANCH   7   9
HETATM    9  C5  UNL     1      14.335  26.315  -1.055  1.00  0.00     0.355 C
BRANCH   9  10
HETATM   10  N4  UNL     1      13.228  27.216  -0.745  1.00  0.00    -0.063 N
HETATM   11  C6  UNL     1      13.254  28.286  -1.749  1.00  0.00     0.269 C
ATOM     12  H42 UNL     1      12.327  26.741  -0.690  1.00  0.00     0.278 HD
ATOM     13  H41 UNL     1      13.251  27.565   0.213  1.00  0.00     0.278 HD
ENDBRANCH   9  10
ENDBRANCH   7   9
ENDBRANCH   5   7
BRANCH   1  14
HETATM   14  C2  UNL     1      14.091  23.255  -6.406  1.00  0.00     0.077 C
HETATM   15  C1  UNL     1      14.765  22.185  -6.753  1.00  0.00     0.029 C
ENDBRANCH   1  14
TORSDOF 4
ENDMDL