MODEL 3
REMARK VINA RESULT: -5.284968861      2.047      2.782
REMARK  1 active torsions:
REMARK  status: ('A' for Active; 'I' for Inactive)
REMARK       I    between atoms: C2_2  and  N1_4
REMARK    1  A    between atoms: N1_4  and  C3_6
ROOT
HETATM    1  C3  UNL     1      22.819   8.201  10.001  1.00  0.00     0.290 C
HETATM    2  O2  UNL     1      23.241   8.254  11.301  1.00  0.00    -0.209 OA
HETATM    3  O3  UNL     1      24.500   8.311  11.491  1.00  0.00    -0.199 OA
HETATM    4  C4  UNL     1      25.322   7.828  10.529  1.00  0.00     0.190 C
HETATM    5  C5  UNL     1      25.471   6.303  10.592  1.00  0.00     0.081 C
HETATM    6  C6  UNL     1      26.731   8.374  10.797  1.00  0.00     0.081 C
HETATM    7  O4  UNL     1      25.005   8.148   9.238  1.00  0.00    -0.344 OA
HETATM    8  C7  UNL     1      23.817   8.870   9.107  1.00  0.00     0.173 C
HETATM    9  C8  UNL     1      24.097  10.294   9.451  1.00  0.00     0.044 C
ENDROOT
BRANCH   1  10
HETATM   10  N1  UNL     1      21.471   8.665   9.800  1.00  0.00    -0.330 N
HETATM   11  C2  UNL     1      20.794   8.701   8.571  1.00  0.00     0.215 C
HETATM   12  C1  UNL     1      19.412   9.201   8.503  1.00  0.00     0.117 C
HETATM   13  O1  UNL     1      21.354   8.312   7.526  1.00  0.00    -0.274 OA
ATOM     14  H1  UNL     1      20.965   8.996  10.621  1.00  0.00     0.165 HD
ENDBRANCH   1  10
TORSDOF 1
ENDMDL