MODEL 3
REMARK VINA RESULT: -3.716785140      2.645      3.775
REMARK  1 active torsions:
REMARK  status: ('A' for Active; 'I' for Inactive)
REMARK    1  A    between atoms: C1_4  and  N2_5
ROOT
HETATM    1  N2  UNL     1      21.962   8.692   9.012  1.00  0.00    -0.362 N
HETATM    2  C2  UNL     1      21.904   8.216  10.387  1.00  0.00     0.141 C
HETATM    3  C3  UNL     1      23.227   8.569  11.004  1.00  0.00     0.080 C
HETATM    4  C4  UNL     1      23.542   9.863  10.289  1.00  0.00     0.054 C
HETATM    5  C5  UNL     1      23.051   9.648   8.864  1.00  0.00     0.160 C
HETATM    6  S1  UNL     1      24.366   9.011   7.796  1.00  0.00    -0.060 SA
HETATM    7  S2  UNL     1      25.691   7.924   9.098  1.00  0.00    -0.022 SA
HETATM    8  S3  UNL     1      24.486   7.314  10.776  1.00  0.00    -0.079 SA
ENDROOT
BRANCH   1   9
HETATM    9  C1  UNL     1      21.103   8.304   7.953  1.00  0.00     0.172 C
HETATM   10  N1  UNL     1      19.865   8.649   7.867  1.00  0.00    -0.395 N
ATOM     11  H12 UNL     1      19.496   9.237   8.615  1.00  0.00     0.156 HD
ATOM     12  H11 UNL     1      19.247   8.369   7.105  1.00  0.00     0.156 HD
ENDBRANCH   1   9
TORSDOF 1
ENDMDL