MODEL 3
REMARK VINA RESULT: -5.197931974      1.642      1.974
REMARK  2 active torsions:
REMARK  status: ('A' for Active; 'I' for Inactive)
REMARK    1  A    between atoms: N1_2  and  N2_3
REMARK    2  A    between atoms: N1_2  and  C2_8
ROOT
HETATM    1  C2  UNL     1      22.857   8.780   9.759  1.00  0.00     0.095 C
HETATM    2  N4  UNL     1      23.774   8.881   8.887  1.00  0.00    -0.370 N
ATOM      3  H4  UNL     1      23.475   9.132   7.945  1.00  0.00     0.161 HD
HETATM    4  C3  UNL     1      25.170   8.684   9.073  1.00  0.00     0.024 C
HETATM    5  C4  UNL     1      25.826  10.047   9.258  1.00  0.00     0.038 C
HETATM    6  C5  UNL     1      25.747   8.106   7.795  1.00  0.00     0.038 C
HETATM    7  C6  UNL     1      25.523   7.846  10.274  1.00  0.00     0.030 C
HETATM    8  C7  UNL     1      24.313   7.355  11.025  1.00  0.00     0.010 C
HETATM    9  C8  UNL     1      23.256   8.417  11.141  1.00  0.00     0.078 C
ENDROOT
BRANCH   1  10
HETATM   10  N1  UNL     1      21.507   9.017   9.380  1.00  0.00    -0.271 N
HETATM   11  C1  UNL     1      20.504   8.055   9.773  1.00  0.00     0.181 C
BRANCH  10  12
HETATM   12  N2  UNL     1      21.210  10.167   8.647  1.00  0.00    -0.246 N
HETATM   13  N3  UNL     1      20.058  10.538   8.327  1.00  0.00    -0.331 N
ATOM     14  H32 UNL     1      19.289   9.944   8.633  1.00  0.00     0.178 HD
ATOM     15  H31 UNL     1      19.841  11.379   7.792  1.00  0.00     0.178 HD
ATOM     16  H2  UNL     1      21.993  10.750   8.349  1.00  0.00     0.208 HD
ENDBRANCH  10  12
ENDBRANCH   1  10
TORSDOF 2
ENDMDL