MODEL 2
REMARK VINA RESULT: -4.659114715      1.401      1.641
REMARK  2 active torsions:
REMARK  status: ('A' for Active; 'I' for Inactive)
REMARK    1  A    between atoms: C2_2  and  S1_3
REMARK    2  A    between atoms: S1_3  and  C3_4
ROOT
HETATM    1  C3  UNL     1      22.078   8.365   9.724  1.00  0.00     0.137 C
HETATM    2  N1  UNL     1      22.801   8.571  10.766  1.00  0.00    -0.352 N
ATOM      3  H1  UNL     1      22.455   8.586  11.725  1.00  0.00     0.163 HD
HETATM    4  C4  UNL     1      24.173   8.777  10.382  1.00  0.00     0.218 C
HETATM    5  C5  UNL     1      24.931   7.529  10.479  1.00  0.00     0.087 C
HETATM    6  N2  UNL     1      25.513   6.534  10.568  1.00  0.00    -0.195 NA
HETATM    7  C6  UNL     1      24.054   9.160   8.929  1.00  0.00     0.058 C
HETATM    8  C7  UNL     1      25.251   8.831   8.106  1.00  0.00     0.041 C
HETATM    9  C8  UNL     1      23.698  10.634   8.893  1.00  0.00     0.041 C
HETATM   10  N3  UNL     1      22.873   8.421   8.552  1.00  0.00    -0.359 N
ATOM     11  H3  UNL     1      22.657   8.024   7.637  1.00  0.00     0.162 HD
ENDROOT
BRANCH   1  12
HETATM   12  S1  UNL     1      20.318   8.061   9.703  1.00  0.00    -0.095 SA
BRANCH  12  13
HETATM   13  C2  UNL     1      19.808   6.998  11.046  1.00  0.00     0.078 C
HETATM   14  C1  UNL     1      18.563   7.503  11.732  1.00  0.00     0.016 C
ENDBRANCH  12  13
ENDBRANCH   1  12
TORSDOF 2
ENDMDL