MODEL 5
REMARK VINA RESULT: -3.748333350      2.088      3.787
REMARK  2 active torsions:
REMARK  status: ('A' for Active; 'I' for Inactive)
REMARK    1  A    between atoms: C2_2  and  O1_3
REMARK    2  A    between atoms: C2_2  and  C3_5
ROOT
HETATM    1  C3  UNL     1      23.649   8.897   9.523  1.00  0.00     0.038 C
HETATM    2  C4  UNL     1      24.081  10.350   9.385  1.00  0.00     0.030 C
HETATM    3  C5  UNL     1      22.986   8.750  10.863  1.00  0.00     0.096 C
HETATM    4  S1  UNL     1      21.591   7.569  10.779  1.00  0.00    -0.167 SA
HETATM    5  C6  UNL     1      20.260   8.190   9.751  1.00  0.00     0.084 C
HETATM    6  C7  UNL     1      20.840   9.210   8.775  1.00  0.00     0.085 C
HETATM    7  S2  UNL     1      22.456   8.528   8.241  1.00  0.00    -0.155 SA
ENDROOT
BRANCH   1   8
HETATM    8  C2  UNL     1      24.898   8.050   9.428  1.00  0.00     0.133 C
HETATM    9  C1  UNL     1      25.386   7.582  10.756  1.00  0.00     0.041 C
BRANCH   8  10
HETATM   10  O1  UNL     1      25.916   8.782   8.794  1.00  0.00    -0.394 OA
ATOM     11  H1  UNL     1      25.557   9.219   8.031  1.00  0.00     0.210 HD
ENDBRANCH   8  10
ENDBRANCH   1   8
TORSDOF 2
ENDMDL