MODEL 5
REMARK VINA RESULT: -4.386283792      5.026      5.787
REMARK  2 active torsions:
REMARK  status: ('A' for Active; 'I' for Inactive)
REMARK    1  A    between atoms: C2_2  and  O1_3
REMARK    2  A    between atoms: O1_3  and  O2_4
ROOT
HETATM    1  C1  UNL     1      27.238   8.138  10.946  1.00  0.00     0.050 C
HETATM    2  C2  UNL     1      26.461   6.953  10.428  1.00  0.00     0.101 C
HETATM    3  C3  UNL     1      25.090   6.837  10.990  1.00  0.00     0.044 C
HETATM    4  C4  UNL     1      24.173   7.967  10.855  1.00  0.00     0.033 C
HETATM    5  C5  UNL     1      24.268   8.893   9.722  1.00  0.00     0.154 C
HETATM    6  C6  UNL     1      23.167   8.710   8.745  1.00  0.00     0.074 C
HETATM    7  N1  UNL     1      22.303   8.549   7.990  1.00  0.00    -0.196 NA
HETATM    8  S1  UNL     1      25.798   8.824   8.770  1.00  0.00    -0.146 SA
HETATM    9  C7  UNL     1      26.370   7.105   8.923  1.00  0.00     0.116 C
ENDROOT
BRANCH   2  10
HETATM   10  O1  UNL     1      27.179   5.812  10.791  1.00  0.00    -0.232 OA
BRANCH  10  11
HETATM   11  O2  UNL     1      26.787   5.287  11.905  1.00  0.00    -0.250 OA
ATOM     12  H2  UNL     1      25.992   4.774  11.823  1.00  0.00     0.253 HD
ENDBRANCH  10  11
ENDBRANCH   2  10
TORSDOF 2
ENDMDL