MODEL 3
REMARK VINA RESULT: -3.600789564      1.949      3.024
REMARK  1 active torsions:
REMARK  status: ('A' for Active; 'I' for Inactive)
REMARK    1  A    between atoms: O1_1  and  C1_3
ROOT
HETATM    1  C1  UNL     1      20.329   7.887  10.580  1.00  0.00     0.137 C
HETATM    2  C2  UNL     1      20.618   8.066   9.094  1.00  0.00     0.107 C
HETATM    3  S1  UNL     1      21.534   9.573   8.792  1.00  0.00    -0.155 SA
HETATM    4  C3  UNL     1      23.292   9.342   8.623  1.00  0.00     0.160 C
HETATM    5  S2  UNL     1      24.026   8.262   9.837  1.00  0.00    -0.087 SA
HETATM    6  S3  UNL     1      22.835   7.937  11.533  1.00  0.00    -0.094 SA
HETATM    7  C4  UNL     1      21.383   6.937  11.130  1.00  0.00     0.118 C
ENDROOT
BRANCH   1   8
HETATM    8  O1  UNL     1      19.102   7.301  10.782  1.00  0.00    -0.394 OA
ATOM      9  H1  UNL     1      18.595   7.777  11.429  1.00  0.00     0.210 HD
ENDBRANCH   1   8
TORSDOF 1
ENDMDL