MODEL 1
REMARK VINA RESULT: -5.235355891      0.000      0.000
REMARK  2 active torsions:
REMARK  status: ('A' for Active; 'I' for Inactive)
REMARK    1  A    between atoms: C4_4  and  C5_5
REMARK    2  A    between atoms: N2_8  and  O1_10
ROOT
HETATM    1  C5  UNL     1      23.994  10.530   9.393  1.00  0.00     0.117 C
HETATM    2  C6  UNL     1      25.410  10.425   9.198  1.00  0.00     0.115 C
HETATM    3  N1  UNL     1      26.576  10.362   9.028  1.00  0.00    -0.190 NA
HETATM    4  N2  UNL     1      23.436  11.542   8.767  1.00  0.00    -0.263 N
ATOM      5  H2  UNL     1      24.027  12.158   8.209  1.00  0.00     0.194 HD
ENDROOT
BRANCH   1   6
HETATM    6  C4  UNL     1      23.225   9.603  10.209  1.00  0.00     0.065 A
HETATM    7  C2  UNL     1      22.466   8.434   9.629  1.00  0.00    -0.029 A
HETATM    8  C1  UNL     1      22.494   8.318   8.161  1.00  0.00     0.016 C
HETATM    9  C3  UNL     1      21.108   8.058  10.239  1.00  0.00     0.016 C
HETATM   10  C7  UNL     1      23.603   8.240  10.536  1.00  0.00    -0.029 A
HETATM   11  C8  UNL     1      24.788   7.514   9.989  1.00  0.00     0.016 C
HETATM   12  C9  UNL     1      23.308   7.814  11.991  1.00  0.00     0.016 C
ENDBRANCH   1   6
BRANCH   4  13
HETATM   13  O1  UNL     1      22.102  11.801   8.835  1.00  0.00    -0.289 OA
ATOM     14  H1  UNL     1      21.755  12.681   8.916  1.00  0.00     0.244 HD
ENDBRANCH   4  13
TORSDOF 2
ENDMDL