MODEL 2
REMARK VINA RESULT: -5.022922906      2.165      3.710
REMARK  1 active torsions:
REMARK  status: ('A' for Active; 'I' for Inactive)
REMARK    1  A    between atoms: C2_2  and  C3_3
ROOT
HETATM    1  C3  UNL     1      23.656   8.069   9.829  1.00  0.00     0.039 C
HETATM    2  C4  UNL     1      24.436   7.869  11.112  1.00  0.00     0.088 C
HETATM    3  S1  UNL     1      26.123   8.421  10.626  1.00  0.00    -0.114 SA
HETATM    4  C5  UNL     1      25.519   9.631   9.459  1.00  0.00     0.078 C
HETATM    5  N1  UNL     1      26.186  10.663   9.131  1.00  0.00    -0.395 N
ATOM      6  H11 UNL     1      25.842  11.354   8.465  1.00  0.00     0.156 HD
ATOM      7  H12 UNL     1      27.106  10.995   9.422  1.00  0.00     0.156 HD
HETATM    8  C6  UNL     1      24.197   9.155   9.041  1.00  0.00     0.189 C
HETATM    9  C7  UNL     1      24.390   8.733   7.624  1.00  0.00     0.092 C
HETATM   10  N2  UNL     1      24.519   8.398   6.518  1.00  0.00    -0.195 NA
HETATM   11  C8  UNL     1      23.333  10.368   9.055  1.00  0.00     0.092 C
HETATM   12  N3  UNL     1      22.671  11.334   9.063  1.00  0.00    -0.195 NA
ENDROOT
BRANCH   1  13
HETATM   13  C2  UNL     1      22.185   8.115  10.150  1.00  0.00     0.004 C
HETATM   14  C1  UNL     1      21.768   7.315  11.349  1.00  0.00     0.005 C
ENDBRANCH   1  13
TORSDOF 1
ENDMDL