MODEL 2
REMARK VINA RESULT: -7.207519299      1.656      6.367
REMARK  2 active torsions:
REMARK  status: ('A' for Active; 'I' for Inactive)
REMARK    1  A    between atoms: C5_5  and  O1_6
REMARK    2  A    between atoms: C13_15  and  O2_16
ROOT
HETATM    1  C1  UNL     1      24.664   4.182  14.823  1.00  0.00     0.016 C
HETATM    2  C2  UNL     1      23.374   4.922  15.123  1.00  0.00    -0.036 C
HETATM    3  C3  UNL     1      22.249   4.146  14.524  1.00  0.00     0.012 C
HETATM    4  C4  UNL     1      22.377   4.065  13.028  1.00  0.00     0.032 C
HETATM    5  C5  UNL     1      22.622   5.382  12.368  1.00  0.00     0.118 C
HETATM    6  C6  UNL     1      23.587   6.260  13.087  1.00  0.00     0.037 C
HETATM    7  C7  UNL     1      23.398   6.307  14.561  1.00  0.00    -0.004 C
HETATM    8  C8  UNL     1      22.134   7.029  14.940  1.00  0.00     0.006 C
HETATM    9  C9  UNL     1      21.920   7.043  16.424  1.00  0.00     0.006 C
HETATM   10  C10 UNL     1      21.948   5.651  17.021  1.00  0.00    -0.005 C
HETATM   11  C11 UNL     1      21.885   5.795  18.522  1.00  0.00    -0.004 C
HETATM   12  C12 UNL     1      20.610   5.155  19.087  1.00  0.00     0.037 C
HETATM   13  C13 UNL     1      20.938   4.721  20.480  1.00  0.00     0.118 C
HETATM   14  C14 UNL     1      22.423   5.005  20.664  1.00  0.00     0.036 C
HETATM   15  C15 UNL     1      22.947   5.012  19.237  1.00  0.00    -0.008 C
HETATM   16  C16 UNL     1      22.988   3.616  18.676  1.00  0.00     0.005 C
HETATM   17  C17 UNL     1      23.512   3.698  17.260  1.00  0.00     0.006 C
HETATM   18  C18 UNL     1      23.247   5.014  16.616  1.00  0.00    -0.002 C
ENDROOT
BRANCH   5  19
HETATM   19  O1  UNL     1      23.170   5.110  11.091  1.00  0.00    -0.396 OA
ATOM     20  H1  UNL     1      23.745   4.360  11.188  1.00  0.00     0.210 HD
ENDBRANCH   5  19
BRANCH  13  21
HETATM   21  O2  UNL     1      20.706   3.376  20.720  1.00  0.00    -0.396 OA
ATOM     22  H2  UNL     1      20.744   2.834  19.941  1.00  0.00     0.210 HD
ENDBRANCH  13  21
TORSDOF 2
ENDMDL