MODEL 3
REMARK VINA RESULT: -6.786138082      3.231      5.233
REMARK  2 active torsions:
REMARK  status: ('A' for Active; 'I' for Inactive)
REMARK    1  A    between atoms: O1_1  and  C1_3
REMARK    2  A    between atoms: C17_22  and  O2_23
ROOT
HETATM    1  C1  UNL     1      22.783  10.818  12.450  1.00  0.00     0.064 C
HETATM    2  C2  UNL     1      23.891  11.206  11.484  1.00  0.00     0.038 C
HETATM    3  C3  UNL     1      24.726  12.300  12.105  1.00  0.00     0.003 C
HETATM    4  C4  UNL     1      23.942  13.191  13.027  1.00  0.00     0.001 C
HETATM    5  C5  UNL     1      23.271  12.477  14.149  1.00  0.00     0.007 C
HETATM    6  C6  UNL     1      23.322  10.970  13.828  1.00  0.00     0.020 C
HETATM    7  C7  UNL     1      22.526  10.282  14.881  1.00  0.00     0.008 C
HETATM    8  C8  UNL     1      22.563   8.805  14.875  1.00  0.00     0.008 C
HETATM    9  C9  UNL     1      23.412   8.173  13.817  1.00  0.00     0.025 C
HETATM   10  C10 UNL     1      23.739   6.779  14.230  1.00  0.00     0.001 C
HETATM   11  C11 UNL     1      22.845   6.223  15.304  1.00  0.00     0.040 C
HETATM   12  C12 UNL     1      23.049   4.708  15.165  1.00  0.00     0.217 A
HETATM   13  N1  UNL     1      24.404   4.235  15.058  1.00  0.00    -0.062 N
ATOM     14  H11 UNL     1      24.930   3.456  15.456  1.00  0.00     0.278 HD
ATOM     15  H12 UNL     1      25.312   4.568  15.381  1.00  0.00     0.278 HD
HETATM   16  C13 UNL     1      23.621   4.425  13.887  1.00  0.00     0.221 A
HETATM   17  C14 UNL     1      23.629   5.753  13.147  1.00  0.00     0.023 C
HETATM   18  C15 UNL     1      22.374   5.819  12.351  1.00  0.00     0.010 C
HETATM   19  C16 UNL     1      21.787   7.174  12.229  1.00  0.00     0.038 C
HETATM   20  C17 UNL     1      22.828   8.284  12.446  1.00  0.00     0.065 C
HETATM   21  C18 UNL     1      22.132   9.536  12.141  1.00  0.00     0.076 C
ENDROOT
BRANCH   1  22
HETATM   22  O1  UNL     1      21.791  11.815  12.267  1.00  0.00    -0.389 OA
ATOM     23  H1  UNL     1      22.282  12.600  12.054  1.00  0.00     0.210 HD
ENDBRANCH   1  22
BRANCH  20  24
HETATM   24  O2  UNL     1      23.870   8.002  11.532  1.00  0.00    -0.389 OA
ATOM     25  H2  UNL     1      23.550   7.322  10.951  1.00  0.00     0.210 HD
ENDBRANCH  20  24
TORSDOF 2
ENDMDL