MODEL 3
REMARK VINA RESULT: -6.621711521      1.850      3.633
REMARK  2 active torsions:
REMARK  status: ('A' for Active; 'I' for Inactive)
REMARK    1  A    between atoms: C5_5  and  O1_7
REMARK    2  A    between atoms: C17_19  and  O2_20
ROOT
HETATM    1  C1  UNL     1      24.592   9.078  13.882  1.00  0.00     0.018 C
HETATM    2  C2  UNL     1      23.112   8.996  13.887  1.00  0.00    -0.014 C
HETATM    3  C3  UNL     1      22.493   9.109  15.264  1.00  0.00     0.015 C
HETATM    4  C4  UNL     1      23.206   8.103  16.108  1.00  0.00     0.039 C
HETATM    5  C5  UNL     1      22.569   6.758  15.950  1.00  0.00     0.062 C
HETATM    6  C6  UNL     1      21.055   6.815  16.020  1.00  0.00     0.046 C
HETATM    7  C7  UNL     1      23.002   5.956  14.799  1.00  0.00    -0.005 C
HETATM    8  C8  UNL     1      24.356   5.310  15.137  1.00  0.00     0.013 C
HETATM    9  C9  UNL     1      24.327   3.935  14.534  1.00  0.00     0.005 C
HETATM   10  C10 UNL     1      22.927   3.699  14.070  1.00  0.00    -0.014 C
HETATM   11  C11 UNL     1      22.841   4.151  12.622  1.00  0.00     0.005 C
HETATM   12  C12 UNL     1      22.331   5.549  12.501  1.00  0.00     0.006 C
HETATM   13  C13 UNL     1      23.060   6.510  13.465  1.00  0.00     0.002 C
HETATM   14  C14 UNL     1      22.518   7.849  13.166  1.00  0.00     0.001 C
HETATM   15  C15 UNL     1      22.942   8.193  11.721  1.00  0.00     0.008 C
HETATM   16  C16 UNL     1      22.882   9.710  11.667  1.00  0.00     0.033 C
HETATM   17  C17 UNL     1      22.582  10.184  13.074  1.00  0.00     0.126 C
HETATM   18  C18 UNL     1      22.130   4.684  14.863  1.00  0.00     0.017 C
ENDROOT
BRANCH   5  19
HETATM   19  O1  UNL     1      22.934   6.036  17.120  1.00  0.00    -0.389 OA
ATOM     20  H1  UNL     1      23.440   6.648  17.641  1.00  0.00     0.210 HD
ENDBRANCH   5  19
BRANCH  17  21
HETATM   21  O2  UNL     1      23.366  11.270  13.412  1.00  0.00    -0.395 OA
ATOM     22  H2  UNL     1      22.770  11.991  13.581  1.00  0.00     0.210 HD
ENDBRANCH  17  21
TORSDOF 2
ENDMDL