MODEL 1
REMARK VINA RESULT: -8.468386239      0.000      0.000
REMARK  3 active torsions:
REMARK  status: ('A' for Active; 'I' for Inactive)
REMARK    1  A    between atoms: O1_1  and  C1_3
REMARK    2  A    between atoms: C14_16  and  O2_17
REMARK    3  A    between atoms: C14_16  and  O3_19
ROOT
HETATM    1  C1  UNL     1      21.782   6.660  11.367  1.00  0.00     0.122 C
HETATM    2  C2  UNL     1      22.861   5.624  11.041  1.00  0.00     0.032 C
HETATM    3  C3  UNL     1      22.933   4.575  12.136  1.00  0.00     0.003 C
HETATM    4  C4  UNL     1      22.698   5.218  13.510  1.00  0.00     0.009 C
HETATM    5  C5  UNL     1      23.117   6.640  13.404  1.00  0.00     0.021 C
HETATM    6  C6  UNL     1      23.268   7.334  14.704  1.00  0.00    -0.072 C
HETATM    7  C7  UNL     1      23.482   8.641  14.688  1.00  0.00    -0.072 C
HETATM    8  C8  UNL     1      23.551   9.323  13.340  1.00  0.00     0.035 C
HETATM    9  C9  UNL     1      22.505   8.832  12.404  1.00  0.00     0.012 C
HETATM   10  C10 UNL     1      22.080   7.414  12.620  1.00  0.00     0.023 C
HETATM   11  C11 UNL     1      23.652   9.353  15.945  1.00  0.00     0.024 C
HETATM   12  C12 UNL     1      23.398  10.831  15.872  1.00  0.00     0.015 C
HETATM   13  C13 UNL     1      22.814  11.155  17.232  1.00  0.00     0.069 C
HETATM   14  C14 UNL     1      21.917   9.940  17.439  1.00  0.00     0.163 C
HETATM   15  C15 UNL     1      22.899   8.820  17.104  1.00  0.00     0.056 C
HETATM   16  C16 UNL     1      22.185   7.538  16.811  1.00  0.00     0.015 C
HETATM   17  C17 UNL     1      23.185   6.657  16.036  1.00  0.00     0.035 C
ENDROOT
BRANCH  14  18
HETATM   18  O2  UNL     1      20.954   9.965  16.458  1.00  0.00    -0.365 OA
ATOM     19  H2  UNL     1      20.839   9.075  16.147  1.00  0.00     0.213 HD
ENDBRANCH  14  18
BRANCH  14  20
HETATM   20  O3  UNL     1      21.428   9.852  18.718  1.00  0.00    -0.365 OA
ATOM     21  H3  UNL     1      21.776   9.108  19.194  1.00  0.00     0.213 HD
ENDBRANCH  14  20
BRANCH   1  22
HETATM   22  O1  UNL     1      21.675   7.522  10.293  1.00  0.00    -0.395 OA
ATOM     23  H1  UNL     1      20.925   8.087  10.441  1.00  0.00     0.210 HD
ENDBRANCH   1  22
TORSDOF 3
ENDMDL