MODEL 3
REMARK VINA RESULT: -5.310516176      1.637      3.355
REMARK  3 active torsions:
REMARK  status: ('A' for Active; 'I' for Inactive)
REMARK    1  A    between atoms: C5_5  and  O1_7
REMARK    2  A    between atoms: C12_14  and  C13_15
REMARK    3  A    between atoms: C13_15  and  O2_16
ROOT
HETATM    1  C1  UNL     1      18.242  12.325  16.315  1.00  0.00     0.015 C
HETATM    2  C2  UNL     1      19.369  13.277  16.690  1.00  0.00    -0.038 C
HETATM    3  C3  UNL     1      18.959  14.685  16.694  1.00  0.00     0.012 C
HETATM    4  C4  UNL     1      19.883  15.536  17.519  1.00  0.00     0.039 C
HETATM    5  C5  UNL     1      21.253  14.921  17.680  1.00  0.00     0.062 C
HETATM    6  C6  UNL     1      21.570  15.058  19.190  1.00  0.00     0.046 C
HETATM    7  C7  UNL     1      21.291  13.496  17.388  1.00  0.00    -0.004 C
HETATM    8  C8  UNL     1      22.588  12.809  17.553  1.00  0.00     0.014 C
HETATM    9  C9  UNL     1      23.384  12.984  16.280  1.00  0.00     0.011 C
HETATM   10  C10 UNL     1      22.718  12.574  15.036  1.00  0.00    -0.034 C
HETATM   11  C11 UNL     1      22.779  11.049  14.890  1.00  0.00     0.016 C
HETATM   12  C12 UNL     1      23.358  13.158  13.827  1.00  0.00     0.018 C
HETATM   13  C14 UNL     1      22.731  14.501  13.675  1.00  0.00     0.008 C
HETATM   14  C15 UNL     1      21.280  14.308  14.127  1.00  0.00     0.006 C
HETATM   15  C16 UNL     1      21.263  13.060  14.896  1.00  0.00    -0.000 C
HETATM   16  C17 UNL     1      20.667  12.898  16.170  1.00  0.00     0.010 C
HETATM   17  C18 UNL     1      20.040  12.860  18.031  1.00  0.00     0.022 C
ENDROOT
BRANCH   5  18
HETATM   18  O1  UNL     1      22.257  15.706  17.097  1.00  0.00    -0.389 OA
ATOM     19  H1  UNL     1      23.070  15.226  16.990  1.00  0.00     0.210 HD
ENDBRANCH   5  18
BRANCH  12  20
HETATM   20  C13 UNL     1      23.046  12.359  12.566  1.00  0.00     0.169 C
BRANCH  20  21
HETATM   21  O2  UNL     1      23.904  12.854  11.566  1.00  0.00    -0.400 OA
ATOM     22  H2  UNL     1      23.633  12.440  10.755  1.00  0.00     0.209 HD
ENDBRANCH  20  21
ENDBRANCH  12  20
TORSDOF 3
ENDMDL