MODEL 5
REMARK VINA RESULT: -6.528840425      4.379      7.144
REMARK  2 active torsions:
REMARK  status: ('A' for Active; 'I' for Inactive)
REMARK    1  A    between atoms: C10_10  and  O1_11
REMARK    2  A    between atoms: C14_16  and  O2_17
ROOT
HETATM    1  C1  UNL     1      23.530   5.283  15.516  1.00  0.00     0.014 C
HETATM    2  C2  UNL     1      22.941   6.456  15.401  1.00  0.00    -0.089 C
HETATM    3  C3  UNL     1      22.295   7.080  16.559  1.00  0.00     0.034 C
HETATM    4  C4  UNL     1      21.993   8.566  16.315  1.00  0.00     0.009 C
HETATM    5  C5  UNL     1      23.171   9.152  15.608  1.00  0.00    -0.005 C
HETATM    6  C6  UNL     1      23.371   8.570  14.223  1.00  0.00    -0.006 C
HETATM    7  C7  UNL     1      22.926   7.158  14.092  1.00  0.00     0.038 C
HETATM    8  C8  UNL     1      22.593   9.539  13.356  1.00  0.00     0.012 C
HETATM    9  C9  UNL     1      23.155  10.831  13.884  1.00  0.00     0.019 C
HETATM   10  C10 UNL     1      22.461  12.051  13.435  1.00  0.00     0.123 C
HETATM   11  C11 UNL     1      22.816  13.155  14.404  1.00  0.00     0.044 C
HETATM   12  C12 UNL     1      22.428  12.887  15.810  1.00  0.00    -0.012 C
HETATM   13  C13 UNL     1      23.530  13.446  16.716  1.00  0.00     0.018 C
HETATM   14  C14 UNL     1      21.171  13.626  16.125  1.00  0.00     0.126 C
HETATM   15  C15 UNL     1      20.067  12.596  16.103  1.00  0.00     0.033 C
HETATM   16  C16 UNL     1      20.754  11.236  15.995  1.00  0.00     0.008 C
HETATM   17  C17 UNL     1      22.190  11.429  16.133  1.00  0.00     0.001 C
HETATM   18  C18 UNL     1      23.145  10.606  15.378  1.00  0.00     0.001 C
ENDROOT
BRANCH  10  19
HETATM   19  O1  UNL     1      23.013  12.444  12.191  1.00  0.00    -0.395 OA
ATOM     20  H1  UNL     1      23.897  12.101  12.134  1.00  0.00     0.210 HD
ENDBRANCH  10  19
BRANCH  14  21
HETATM   21  O2  UNL     1      21.224  14.304  17.350  1.00  0.00    -0.395 OA
ATOM     22  H2  UNL     1      20.406  14.731  17.575  1.00  0.00     0.210 HD
ENDBRANCH  14  21
TORSDOF 2
ENDMDL