MODEL 3
REMARK VINA RESULT: -7.529274989      2.728      5.254
REMARK  2 active torsions:
REMARK  status: ('A' for Active; 'I' for Inactive)
REMARK    1  A    between atoms: C10_10  and  O1_11
REMARK    2  A    between atoms: C14_16  and  O2_17
ROOT
HETATM    1  C1  UNL     1      24.311   4.470  14.440  1.00  0.00     0.015 C
HETATM    2  C2  UNL     1      23.110   5.260  13.910  1.00  0.00    -0.044 C
HETATM    3  C3  UNL     1      22.641   4.540  12.673  1.00  0.00     0.015 C
HETATM    4  C4  UNL     1      22.047   5.184  14.968  1.00  0.00     0.009 C
HETATM    5  C5  UNL     1      22.440   5.884  16.233  1.00  0.00     0.001 C
HETATM    6  C6  UNL     1      23.293   7.131  15.957  1.00  0.00     0.006 C
HETATM    7  C7  UNL     1      22.903   7.641  14.621  1.00  0.00    -0.000 C
HETATM    8  C8  UNL     1      23.499   6.692  13.599  1.00  0.00     0.001 C
HETATM    9  C9  UNL     1      22.972   7.116  12.266  1.00  0.00     0.038 C
HETATM   10  C10 UNL     1      23.365   8.517  11.968  1.00  0.00     0.123 C
HETATM   11  C11 UNL     1      22.790   9.515  13.002  1.00  0.00     0.024 C
HETATM   12  C12 UNL     1      23.103  10.832  12.516  1.00  0.00     0.011 C
HETATM   13  C13 UNL     1      22.261  12.065  12.783  1.00  0.00     0.044 C
HETATM   14  C14 UNL     1      22.075  12.325  14.318  1.00  0.00     0.184 C
HETATM   15  C15 UNL     1      22.472  11.142  14.971  1.00  0.00    -0.151 C
HETATM   16  C16 UNL     1      22.868   9.910  15.521  1.00  0.00     0.092 C
HETATM   17  C17 UNL     1      23.356   9.016  14.333  1.00  0.00    -0.025 C
HETATM   18  C18 UNL     1      24.839   9.125  14.338  1.00  0.00     0.017 C
ENDROOT
BRANCH  10  19
HETATM   19  O1  UNL     1      22.684   8.869  10.772  1.00  0.00    -0.395 OA
ATOM     20  H1  UNL     1      22.184   8.102  10.520  1.00  0.00     0.210 HD
ENDBRANCH  10  19
BRANCH  14  21
HETATM   21  O2  UNL     1      20.715  12.725  14.436  1.00  0.00    -0.384 OA
ATOM     22  H2  UNL     1      20.739  13.664  14.292  1.00  0.00     0.211 HD
ENDBRANCH  14  21
TORSDOF 2
ENDMDL