MODEL 1
REMARK VINA RESULT: -5.096315492      0.000      0.000
REMARK  3 active torsions:
REMARK  status: ('A' for Active; 'I' for Inactive)
REMARK    1  A    between atoms: C6_6  and  O1_7
REMARK    2  A    between atoms: C11_13  and  O2_14
REMARK    3  A    between atoms: C13_17  and  O3_19
ROOT
HETATM    1  C1  UNL     1      23.255  17.387  14.466  1.00  0.00     0.016 C
HETATM    2  C2  UNL     1      22.297  16.490  15.299  1.00  0.00    -0.036 C
HETATM    3  C3  UNL     1      21.565  17.443  16.170  1.00  0.00     0.010 C
HETATM    4  C4  UNL     1      20.330  16.961  16.840  1.00  0.00     0.009 C
HETATM    5  C5  UNL     1      19.625  15.811  16.155  1.00  0.00     0.025 C
HETATM    6  C6  UNL     1      19.976  15.676  14.716  1.00  0.00     0.128 C
HETATM    7  C7  UNL     1      21.432  15.707  14.375  1.00  0.00     0.023 C
HETATM    8  C8  UNL     1      21.981  14.364  13.994  1.00  0.00     0.008 C
HETATM    9  C9  UNL     1      22.295  13.380  14.975  1.00  0.00     0.011 C
HETATM   10  C10 UNL     1      21.921  13.603  16.448  1.00  0.00     0.049 C
HETATM   11  C11 UNL     1      22.736  14.678  17.039  1.00  0.00     0.126 C
HETATM   12  C12 UNL     1      23.304  15.651  16.043  1.00  0.00     0.041 C
HETATM   13  C13 UNL     1      20.500  13.465  16.737  1.00  0.00     0.067 C
HETATM   14  C14 UNL     1      20.284  12.552  17.974  1.00  0.00     0.047 C
HETATM   15  C15 UNL     1      19.560  14.548  16.923  1.00  0.00    -0.011 C
HETATM   16  C16 UNL     1      19.312  14.928  18.394  1.00  0.00     0.018 C
HETATM   17  C17 UNL     1      18.174  13.915  16.586  1.00  0.00     0.018 C
ENDROOT
BRANCH  13  18
HETATM   18  O3  UNL     1      20.039  12.623  15.678  1.00  0.00    -0.389 OA
ATOM     19  H3  UNL     1      19.218  13.029  15.426  1.00  0.00     0.210 HD
ENDBRANCH  13  18
BRANCH  11  20
HETATM   20  O2  UNL     1      23.935  14.186  17.651  1.00  0.00    -0.395 OA
ATOM     21  H2  UNL     1      24.339  13.486  17.152  1.00  0.00     0.210 HD
ENDBRANCH  11  20
BRANCH   6  22
HETATM   22  O1  UNL     1      19.209  16.576  13.929  1.00  0.00    -0.395 OA
ATOM     23  H1  UNL     1      18.991  16.185  13.091  1.00  0.00     0.210 HD
ENDBRANCH   6  22
TORSDOF 3
ENDMDL