MODEL 1
REMARK VINA RESULT: -7.014357088      0.000      0.000
REMARK  3 active torsions:
REMARK  status: ('A' for Active; 'I' for Inactive)
REMARK    1  A    between atoms: O1_1  and  C1_3
REMARK    2  A    between atoms: C8_10  and  O2_11
REMARK    3  A    between atoms: C13_17  and  O3_18
ROOT
HETATM    1  C1  UNL     1      22.090  10.061  17.780  1.00  0.00     0.118 C
HETATM    2  C2  UNL     1      22.810  10.842  16.700  1.00  0.00     0.032 C
HETATM    3  C3  UNL     1      23.839   9.881  16.099  1.00  0.00     0.011 C
HETATM    4  C4  UNL     1      23.152   9.043  15.054  1.00  0.00     0.012 C
HETATM    5  C5  UNL     1      24.170   8.817  13.959  1.00  0.00    -0.025 C
HETATM    6  C6  UNL     1      23.794   7.897  13.062  1.00  0.00    -0.023 C
HETATM    7  C7  UNL     1      22.464   7.271  13.299  1.00  0.00     0.043 C
HETATM    8  C8  UNL     1      21.978   6.457  12.158  1.00  0.00     0.126 C
HETATM    9  C9  UNL     1      22.962   5.531  11.521  1.00  0.00     0.032 C
HETATM   10  C10 UNL     1      22.545   4.114  11.868  1.00  0.00     0.002 C
HETATM   11  C11 UNL     1      23.177   3.631  13.147  1.00  0.00     0.002 C
HETATM   12  C12 UNL     1      22.439   4.169  14.372  1.00  0.00     0.032 C
HETATM   13  C13 UNL     1      23.090   5.403  14.904  1.00  0.00     0.123 C
HETATM   14  C14 UNL     1      22.380   6.670  14.649  1.00  0.00     0.029 C
HETATM   15  C15 UNL     1      22.895   7.684  15.654  1.00  0.00     0.000 C
HETATM   16  C16 UNL     1      22.000   7.733  16.865  1.00  0.00     0.008 C
HETATM   17  C17 UNL     1      21.254   9.010  17.037  1.00  0.00     0.032 C
ENDROOT
BRANCH   1  18
HETATM   18  O1  UNL     1      21.314  10.875  18.568  1.00  0.00    -0.396 OA
ATOM     19  H1  UNL     1      20.392  10.802  18.351  1.00  0.00     0.210 HD
ENDBRANCH   1  18
BRANCH  13  20
HETATM   20  O3  UNL     1      24.463   5.477  14.590  1.00  0.00    -0.395 OA
ATOM     21  H3  UNL     1      25.011   5.040  15.230  1.00  0.00     0.210 HD
ENDBRANCH  13  20
BRANCH   8  22
HETATM   22  O2  UNL     1      21.577   7.362  11.138  1.00  0.00    -0.395 OA
ATOM     23  H2  UNL     1      21.381   6.844  10.365  1.00  0.00     0.210 HD
ENDBRANCH   8  22
TORSDOF 3
ENDMDL