MODEL 4
REMARK VINA RESULT: -6.682983732      3.460      5.032
REMARK  3 active torsions:
REMARK  status: ('A' for Active; 'I' for Inactive)
REMARK    1  A    between atoms: C13_13  and  O1_14
REMARK    2  A    between atoms: C14_16  and  C15_17
REMARK    3  A    between atoms: C15_17  and  O2_18
ROOT
HETATM    1  C1  UNL     1      24.206   4.505  15.245  1.00  0.00     0.010 C
HETATM    2  C2  UNL     1      23.041   5.327  14.714  1.00  0.00    -0.018 C
HETATM    3  C3  UNL     1      23.525   6.509  13.897  1.00  0.00     0.009 C
HETATM    4  C4  UNL     1      22.823   7.687  14.541  1.00  0.00    -0.010 C
HETATM    5  C5  UNL     1      23.523   8.980  14.364  1.00  0.00     0.005 C
HETATM    6  C6  UNL     1      23.043  10.005  15.347  1.00  0.00     0.006 C
HETATM    7  C7  UNL     1      21.920   9.455  16.158  1.00  0.00    -0.005 C
HETATM    8  C8  UNL     1      22.301   8.224  16.945  1.00  0.00    -0.006 C
HETATM    9  C9  UNL     1      23.320   8.589  17.996  1.00  0.00     0.006 C
HETATM   10  C10 UNL     1      22.999   9.754  18.824  1.00  0.00     0.005 C
HETATM   11  C11 UNL     1      22.046  10.748  18.313  1.00  0.00    -0.007 C
HETATM   12  C12 UNL     1      22.726  12.087  17.989  1.00  0.00     0.037 C
HETATM   13  C13 UNL     1      21.936  12.701  16.878  1.00  0.00     0.125 C
HETATM   14  C14 UNL     1      20.894  11.719  16.464  1.00  0.00     0.043 C
HETATM   15  C16 UNL     1      21.277  10.405  17.101  1.00  0.00     0.003 C
HETATM   16  C17 UNL     1      22.952   7.266  16.004  1.00  0.00    -0.006 C
HETATM   17  C18 UNL     1      22.343   5.910  15.940  1.00  0.00     0.009 C
ENDROOT
BRANCH  14  18
HETATM   18  C15 UNL     1      19.488  12.129  16.896  1.00  0.00     0.171 C
BRANCH  18  19
HETATM   19  O2  UNL     1      18.905  13.025  16.028  1.00  0.00    -0.400 OA
ATOM     20  H2  UNL     1      18.079  13.365  16.352  1.00  0.00     0.209 HD
ENDBRANCH  18  19
ENDBRANCH  14  18
BRANCH  13  21
HETATM   21  O1  UNL     1      21.398  13.902  17.346  1.00  0.00    -0.395 OA
ATOM     22  H1  UNL     1      20.597  13.700  17.815  1.00  0.00     0.210 HD
ENDBRANCH  13  21
TORSDOF 3
ENDMDL