MODEL 5
REMARK VINA RESULT: -10.793605255      1.981      7.103
REMARK  12 active torsions:
REMARK  status: ('A' for Active; 'I' for Inactive)
REMARK    1  A    between atoms: O1_2  and  C2_3
REMARK       I    between atoms: C2_3  and  N1_5
REMARK       I    between atoms: C3_7  and  N3_9
REMARK    2  A    between atoms: C4_11  and  C5_12
REMARK    3  A    between atoms: C4_11  and  C19_30
REMARK       I    between atoms: C5_12  and  N4_14
REMARK    4  A    between atoms: C11_21  and  C12_22
REMARK    5  A    between atoms: C12_22  and  C13_23
REMARK    6  A    between atoms: C19_30  and  N6_31
REMARK    7  A    between atoms: C19_30  and  C32_49
REMARK       I    between atoms: N6_31  and  C20_33
REMARK    8  A    between atoms: C20_33  and  C21_35
REMARK    9  A    between atoms: C21_35  and  C22_36
REMARK   10  A    between atoms: C22_36  and  O6_37
REMARK   11  A    between atoms: C22_36  and  C23_39
REMARK   12  A    between atoms: C23_39  and  N7_40
ROOT
HETATM    1  C2  UNL     1      -9.726 -21.762 -35.151  1.00  0.00     0.366 C
HETATM    2  O2  UNL     1      -8.593 -21.629 -34.650  1.00  0.00    -0.238 OA
HETATM    3  N1  UNL     1     -10.726 -22.549 -34.533  1.00  0.00    -0.276 N
ATOM      4  H1  UNL     1     -11.660 -22.535 -34.943  1.00  0.00     0.173 HD
HETATM    5  C3  UNL     1     -10.543 -23.286 -33.488  1.00  0.00     0.197 C
HETATM    6  N2  UNL     1      -9.203 -23.274 -32.948  1.00  0.00    -0.063 NA
HETATM    7  N3  UNL     1     -11.521 -24.053 -32.872  1.00  0.00    -0.327 N
ATOM      8  H3  UNL     1     -11.863 -23.706 -31.976  1.00  0.00     0.168 HD
HETATM    9  C4  UNL     1     -12.061 -25.170 -33.301  1.00  0.00     0.104 C
ENDROOT
BRANCH   9  10
HETATM   10  C5  UNL     1     -13.064 -25.720 -32.399  1.00  0.00     0.284 C
HETATM   11  O3  UNL     1     -14.305 -25.801 -32.716  1.00  0.00    -0.265 OA
HETATM   12  N4  UNL     1     -12.754 -26.195 -31.121  1.00  0.00    -0.257 N
HETATM   13  C6  UNL     1     -13.897 -26.694 -30.347  1.00  0.00     0.180 C
HETATM   14  N5  UNL     1     -11.461 -26.186 -30.637  1.00  0.00    -0.128 NA
HETATM   15  C7  UNL     1     -13.857 -25.932 -29.033  1.00  0.00     0.141 C
HETATM   16  C8  UNL     1     -13.577 -24.474 -29.253  1.00  0.00     0.035 C
HETATM   17  O4  UNL     1     -13.058 -26.581 -28.166  1.00  0.00    -0.377 OA
HETATM   18  C9  UNL     1     -12.113 -24.208 -29.306  1.00  0.00     0.028 C
HETATM   19  C10 UNL     1     -11.328 -25.509 -29.368  1.00  0.00     0.128 C
HETATM   20  C11 UNL     1     -11.705 -26.332 -28.171  1.00  0.00     0.143 C
BRANCH  20  21
HETATM   21  C12 UNL     1     -11.000 -27.655 -28.092  1.00  0.00     0.038 C
BRANCH  21  22
HETATM   22  C13 UNL     1      -9.668 -27.692 -27.489  1.00  0.00    -0.012 C
HETATM   23  C14 UNL     1      -8.657 -27.019 -28.405  1.00  0.00     0.005 C
HETATM   24  C15 UNL     1      -8.337 -27.865 -29.609  1.00  0.00     0.000 C
HETATM   25  C16 UNL     1      -7.727 -29.160 -29.120  1.00  0.00     0.000 C
HETATM   26  C17 UNL     1      -8.799 -29.886 -28.333  1.00  0.00     0.000 C
HETATM   27  C18 UNL     1      -9.109 -29.023 -27.130  1.00  0.00     0.005 C
ENDBRANCH  21  22
ENDBRANCH  20  21
ENDBRANCH   9  10
BRANCH   9  28
HETATM   28  C19 UNL     1     -11.634 -25.664 -34.591  1.00  0.00     0.144 C
BRANCH  28  29
HETATM   29  N6  UNL     1     -11.168 -27.038 -34.448  1.00  0.00    -0.350 N
HETATM   30  C20 UNL     1      -9.860 -27.434 -34.205  1.00  0.00     0.220 C
HETATM   31  O5  UNL     1      -8.936 -26.628 -34.077  1.00  0.00    -0.274 OA
ATOM     32  H6  UNL     1     -11.868 -27.776 -34.534  1.00  0.00     0.163 HD
BRANCH  30  33
HETATM   33  C21 UNL     1      -9.514 -28.897 -34.091  1.00  0.00     0.136 C
BRANCH  33  34
HETATM   34  C22 UNL     1     -10.093 -29.679 -35.205  1.00  0.00     0.155 C
BRANCH  34  35
HETATM   35  O6  UNL     1     -11.476 -29.709 -35.220  1.00  0.00    -0.393 OA
ATOM     36  H6  UNL     1     -11.846 -30.388 -35.772  1.00  0.00     0.210 HD
ENDBRANCH  34  35
BRANCH  34  37
HETATM   37  C23 UNL     1      -9.550 -29.371 -36.550  1.00  0.00     0.304 C
BRANCH  37  38
HETATM   38  N7  UNL     1      -8.703 -30.310 -37.139  1.00  0.00     0.091 N
HETATM   39  C24 UNL     1      -9.431 -31.258 -38.012  1.00  0.00     0.277 C
HETATM   40  C25 UNL     1      -8.339 -32.209 -38.424  1.00  0.00     0.020 C
HETATM   41  C26 UNL     1      -8.786 -33.573 -38.836  1.00  0.00     0.007 C
HETATM   42  C30 UNL     1      -7.621 -32.379 -37.100  1.00  0.00     0.020 C
HETATM   43  C27 UNL     1      -7.610 -34.511 -38.538  1.00  0.00     0.000 C
HETATM   44  C28 UNL     1      -6.299 -33.738 -38.600  1.00  0.00     0.000 C
HETATM   45  C29 UNL     1      -6.190 -32.716 -37.462  1.00  0.00     0.007 C
HETATM   46  C31 UNL     1      -7.813 -31.099 -36.381  1.00  0.00     0.277 C
ENDBRANCH  37  38
ENDBRANCH  34  37
ENDBRANCH  33  34
ENDBRANCH  30  33
ENDBRANCH  28  29
BRANCH  28  47
HETATM   47  C32 UNL     1     -12.612 -25.485 -35.677  1.00  0.00     0.014 C
HETATM   48  C33 UNL     1     -13.440 -26.743 -35.934  1.00  0.00     0.007 C
HETATM   49  C34 UNL     1     -13.665 -26.802 -37.452  1.00  0.00     0.000 C
HETATM   50  C35 UNL     1     -13.924 -25.392 -37.916  1.00  0.00     0.000 C
HETATM   51  C36 UNL     1     -14.534 -24.543 -36.831  1.00  0.00     0.000 C
HETATM   52  C37 UNL     1     -13.557 -24.347 -35.649  1.00  0.00     0.007 C
ENDBRANCH  28  47
ENDBRANCH   9  28
BRANCH   1  53
HETATM   53  O1  UNL     1      -9.986 -21.100 -36.354  1.00  0.00    -0.309 OA
HETATM   54  C1  UNL     1      -9.231 -19.934 -36.707  1.00  0.00     0.215 C
ENDBRANCH   1  53
TORSDOF 12
ENDMDL