MODEL 4
REMARK VINA RESULT: -8.524220826      1.013      1.388
REMARK  11 active torsions:
REMARK  status: ('A' for Active; 'I' for Inactive)
REMARK    1  A    between atoms: C2_2  and  C4_4
REMARK    2  A    between atoms: C2_2  and  C36_54
REMARK    3  A    between atoms: C4_4  and  C5_5
REMARK    4  A    between atoms: C6_9  and  C7_10
REMARK    5  A    between atoms: C7_10  and  C8_11
REMARK    6  A    between atoms: C8_11  and  C9_12
REMARK    7  A    between atoms: C9_12  and  C10_13
REMARK    8  A    between atoms: C10_13  and  N2_14
REMARK    9  A    between atoms: C20_33  and  N5_34
REMARK   10  A    between atoms: C35_51  and  O3_52
REMARK   11  A    between atoms: C36_54  and  N7_55
ROOT
HETATM    1  C5  UNL     1     -10.990 -25.312 -31.111  1.00  0.00     0.261 C
HETATM    2  N1  UNL     1     -11.055 -24.871 -32.521  1.00  0.00    -0.051 N
ATOM      3  H11 UNL     1     -11.555 -25.558 -33.085  1.00  0.00     0.279 HD
ATOM      4  H12 UNL     1     -10.133 -24.926 -32.954  1.00  0.00     0.279 HD
HETATM    5  C6  UNL     1     -11.633 -23.531 -32.713  1.00  0.00     0.277 C
HETATM    6  C11 UNL     1     -13.041 -23.475 -32.343  1.00  0.00     0.248 C
HETATM    7  O1  UNL     1     -13.333 -23.298 -31.107  1.00  0.00    -0.271 OA
HETATM    8  N3  UNL     1     -14.117 -23.608 -33.294  1.00  0.00    -0.359 N
ATOM      9  H3  UNL     1     -14.956 -24.103 -32.994  1.00  0.00     0.162 HD
HETATM   10  C12 UNL     1     -14.091 -23.094 -34.626  1.00  0.00     0.122 C
HETATM   11  C13 UNL     1     -15.149 -23.726 -35.501  1.00  0.00     0.020 C
HETATM   12  C14 UNL     1     -14.786 -25.100 -35.976  1.00  0.00     0.002 C
HETATM   13  C15 UNL     1     -15.219 -25.335 -37.414  1.00  0.00     0.002 C
HETATM   14  C16 UNL     1     -14.419 -26.472 -37.966  1.00  0.00     0.027 C
HETATM   15  C17 UNL     1     -13.068 -25.938 -38.403  1.00  0.00     0.232 C
HETATM   16  N4  UNL     1     -12.120 -27.034 -38.613  1.00  0.00    -0.075 N
ATOM     17  H41 UNL     1     -11.646 -26.959 -39.513  1.00  0.00     0.277 HD
ATOM     18  H42 UNL     1     -12.596 -27.924 -38.765  1.00  0.00     0.277 HD
HETATM   19  C18 UNL     1     -11.176 -27.105 -37.507  1.00  0.00     0.234 C
HETATM   20  C19 UNL     1     -11.198 -28.514 -36.958  1.00  0.00     0.061 C
HETATM   21  C20 UNL     1      -9.834 -28.889 -36.372  1.00  0.00     0.192 C
HETATM   22  C27 UNL     1     -10.062 -29.372 -34.982  1.00  0.00     0.041 C
HETATM   23  C28 UNL     1     -10.364 -28.286 -34.014  1.00  0.00     0.087 C
HETATM   24  C29 UNL     1      -9.205 -27.468 -33.576  1.00  0.00     0.172 C
HETATM   25  O2  UNL     1      -8.843 -26.666 -34.469  1.00  0.00    -0.291 OA
HETATM   26  C30 UNL     1      -8.490 -27.478 -32.341  1.00  0.00     0.059 C
HETATM   27  C31 UNL     1      -8.423 -28.926 -31.782  1.00  0.00     0.061 C
HETATM   28  C32 UNL     1      -7.389 -29.024 -30.716  1.00  0.00     0.008 C
HETATM   29  C33 UNL     1      -7.274 -27.868 -29.795  1.00  0.00     0.021 C
HETATM   30  C34 UNL     1      -7.340 -26.564 -30.484  1.00  0.00     0.131 C
HETATM   31  N6  UNL     1      -8.626 -26.523 -31.287  1.00  0.00    -0.330 N
HETATM   32  C35 UNL     1      -9.558 -25.619 -30.850  1.00  0.00     0.149 C
ENDROOT
BRANCH   1  33
HETATM   33  C4  UNL     1     -11.999 -26.319 -30.810  1.00  0.00     0.052 C
BRANCH  33  34
HETATM   34  C2  UNL     1     -12.590 -26.526 -29.455  1.00  0.00    -0.021 C
HETATM   35  C1  UNL     1     -12.575 -25.263 -28.652  1.00  0.00     0.016 C
HETATM   36  C3  UNL     1     -14.084 -26.880 -29.571  1.00  0.00     0.016 C
BRANCH  34  37
HETATM   37  C36 UNL     1     -11.773 -27.619 -28.845  1.00  0.00     0.244 C
BRANCH  37  38
HETATM   38  N7  UNL     1     -11.340 -27.621 -27.539  1.00  0.00    -0.078 N
HETATM   39  C37 UNL     1     -10.001 -26.998 -27.351  1.00  0.00     0.271 C
HETATM   40  C38 UNL     1     -11.030 -29.053 -27.232  1.00  0.00     0.271 C
HETATM   41  C39 UNL     1     -12.202 -27.240 -26.471  1.00  0.00     0.271 C
ENDBRANCH  37  38
ENDBRANCH  34  37
ENDBRANCH  33  34
ENDBRANCH   1  33
BRANCH  32  42
HETATM   42  O3  UNL     1      -9.081 -24.771 -29.953  1.00  0.00    -0.348 OA
ATOM     43  H3  UNL     1      -8.163 -24.606 -30.130  1.00  0.00     0.219 HD
ENDBRANCH  32  42
BRANCH   5  44
HETATM   44  C7  UNL     1     -10.725 -22.469 -32.254  1.00  0.00     0.043 C
BRANCH  44  45
HETATM   45  C8  UNL     1     -11.234 -21.102 -32.085  1.00  0.00     0.004 C
BRANCH  45  46
HETATM   46  C9  UNL     1     -10.990 -20.341 -30.833  1.00  0.00     0.027 C
BRANCH  46  47
HETATM   47  C10 UNL     1     -12.346 -20.128 -30.085  1.00  0.00     0.229 C
BRANCH  47  48
HETATM   48  N2  UNL     1     -13.366 -20.207 -31.093  1.00  0.00    -0.079 N
ATOM     49  H23 UNL     1     -13.334 -19.442 -31.766  1.00  0.00     0.274 HD
ATOM     50  H22 UNL     1     -13.221 -20.964 -31.761  1.00  0.00     0.274 HD
ATOM     51  H21 UNL     1     -14.250 -20.271 -30.589  1.00  0.00     0.274 HD
ENDBRANCH  47  48
ENDBRANCH  46  47
ENDBRANCH  45  46
ENDBRANCH  44  45
ENDBRANCH   5  44
BRANCH  21  52
HETATM   52  N5  UNL     1      -9.219 -29.933 -37.211  1.00  0.00    -0.067 N
HETATM   53  C21 UNL     1      -8.719 -29.357 -38.461  1.00  0.00     0.273 C
HETATM   54  C22 UNL     1      -8.065 -30.379 -36.472  1.00  0.00     0.237 C
HETATM   55  C23 UNL     1      -7.406 -31.597 -37.023  1.00  0.00     0.028 C
HETATM   56  C24 UNL     1      -8.452 -32.718 -36.965  1.00  0.00     0.003 C
HETATM   57  C25 UNL     1      -9.578 -32.292 -37.844  1.00  0.00     0.028 C
HETATM   58  C26 UNL     1     -10.147 -30.951 -37.551  1.00  0.00     0.237 C
ENDBRANCH  21  52
TORSDOF 11
ENDMDL