MODEL 4
REMARK VINA RESULT: -10.310225288      3.889      7.721
REMARK  10 active torsions:
REMARK  status: ('A' for Active; 'I' for Inactive)
REMARK    1  A    between atoms: N1_2  and  C3_4
REMARK    2  A    between atoms: C3_4  and  C6_7
REMARK       I    between atoms: C6_7  and  N2_9
REMARK    3  A    between atoms: N2_9  and  C7_11
REMARK    4  A    between atoms: C7_11  and  C8_12
REMARK    5  A    between atoms: C7_11  and  C12_20
REMARK    6  A    between atoms: C8_12  and  C9_13
REMARK    7  A    between atoms: C9_13  and  C10_14
REMARK    8  A    between atoms: C10_14  and  N3_15
REMARK       I    between atoms: C12_20  and  N6_22
REMARK    9  A    between atoms: C15_25  and  C16_26
REMARK       I    between atoms: C16_26  and  N7_28
REMARK   10  A    between atoms: N7_28  and  C17_30
ROOT
HETATM    1  C16 UNL     1     -13.415 -26.501 -35.238  1.00  0.00     0.241 C
HETATM    2  O3  UNL     1     -14.372 -26.763 -34.468  1.00  0.00    -0.271 OA
HETATM    3  N7  UNL     1     -12.756 -25.265 -35.029  1.00  0.00    -0.354 N
ATOM      4  H7  UNL     1     -11.981 -25.023 -35.646  1.00  0.00     0.162 HD
ENDROOT
BRANCH   1   5
HETATM    5  C15 UNL     1     -13.012 -27.447 -36.298  1.00  0.00     0.180 C
HETATM    6  N6  UNL     1     -11.563 -27.707 -36.260  1.00  0.00    -0.337 N
HETATM    7  C12 UNL     1     -10.813 -28.690 -35.586  1.00  0.00     0.243 C
HETATM    8  C13 UNL     1     -11.403 -26.579 -37.120  1.00  0.00     0.129 C
HETATM    9  O2  UNL     1     -11.453 -29.580 -34.900  1.00  0.00    -0.271 OA
HETATM   10  C14 UNL     1     -12.808 -26.824 -37.657  1.00  0.00     0.055 C
BRANCH   7  11
HETATM   11  C7  UNL     1      -9.356 -28.827 -35.563  1.00  0.00     0.176 C
BRANCH  11  12
HETATM   12  N2  UNL     1      -8.853 -28.669 -34.200  1.00  0.00    -0.346 N
HETATM   13  C6  UNL     1      -8.976 -27.479 -33.444  1.00  0.00     0.256 C
HETATM   14  O1  UNL     1      -9.534 -26.482 -33.916  1.00  0.00    -0.271 OA
ATOM     15  H2  UNL     1      -8.384 -29.465 -33.768  1.00  0.00     0.163 HD
BRANCH  13  16
HETATM   16  C3  UNL     1      -8.431 -27.405 -32.052  1.00  0.00     0.231 C
HETATM   17  C4  UNL     1      -9.630 -27.449 -31.126  1.00  0.00     0.059 C
HETATM   18  C5  UNL     1      -7.677 -26.111 -31.844  1.00  0.00     0.059 C
BRANCH  16  19
HETATM   19  N1  UNL     1      -7.512 -28.499 -31.768  1.00  0.00     0.098 N
HETATM   20  C1  UNL     1      -7.703 -28.976 -30.402  1.00  0.00     0.310 C
HETATM   21  C2  UNL     1      -6.142 -28.021 -31.843  1.00  0.00     0.310 C
ENDBRANCH  16  19
ENDBRANCH  13  16
ENDBRANCH  11  12
BRANCH  11  22
HETATM   22  C8  UNL     1      -8.867 -30.089 -36.179  1.00  0.00     0.036 C
BRANCH  22  23
HETATM   23  C9  UNL     1      -9.261 -30.232 -37.632  1.00  0.00     0.022 C
BRANCH  23  24
HETATM   24  C10 UNL     1      -8.114 -30.802 -38.444  1.00  0.00     0.122 C
BRANCH  24  25
HETATM   25  N3  UNL     1      -7.015 -31.226 -37.579  1.00  0.00    -0.367 N
HETATM   26  C11 UNL     1      -6.156 -32.110 -37.982  1.00  0.00     0.196 C
HETATM   27  N4  UNL     1      -6.203 -32.717 -39.244  1.00  0.00    -0.067 NA
HETATM   28  N5  UNL     1      -5.116 -32.475 -37.094  1.00  0.00    -0.067 NA
ATOM     29  H3  UNL     1      -6.921 -30.821 -36.647  1.00  0.00     0.161 HD
ENDBRANCH  24  25
ENDBRANCH  23  24
ENDBRANCH  22  23
ENDBRANCH  11  22
ENDBRANCH   7  11
ENDBRANCH   1   5
BRANCH   3  30
HETATM   30  C17 UNL     1     -13.121 -24.325 -33.987  1.00  0.00     0.089 C
HETATM   31  C18 UNL     1     -14.027 -23.238 -34.502  1.00  0.00     0.030 C
HETATM   32  C19 UNL     1     -14.152 -22.101 -33.478  1.00  0.00    -0.013 C
HETATM   33  C20 UNL     1     -12.803 -21.473 -33.343  1.00  0.00     0.005 C
HETATM   34  C36 UNL     1     -14.827 -22.545 -32.237  1.00  0.00     0.005 C
HETATM   35  C21 UNL     1     -11.661 -22.394 -33.197  1.00  0.00     0.007 C
HETATM   36  C22 UNL     1     -11.978 -23.871 -33.185  1.00  0.00     0.011 C
HETATM   37  C23 UNL     1     -11.797 -24.479 -31.822  1.00  0.00     0.039 C
HETATM   38  C24 UNL     1     -12.917 -24.403 -30.853  1.00  0.00     0.127 C
HETATM   39  O4  UNL     1     -12.616 -25.387 -29.871  1.00  0.00    -0.373 OA
HETATM   40  C34 UNL     1     -13.260 -23.090 -30.287  1.00  0.00     0.020 C
HETATM   41  C25 UNL     1     -11.926 -25.007 -28.790  1.00  0.00     0.076 C
HETATM   42  C26 UNL     1     -10.458 -24.728 -28.943  1.00  0.00     0.047 C
HETATM   43  C27 UNL     1     -11.998 -26.203 -27.820  1.00  0.00     0.040 C
HETATM   44  C37 UNL     1     -12.506 -23.869 -28.005  1.00  0.00     0.060 C
HETATM   45  C28 UNL     1     -12.348 -25.636 -26.484  1.00  0.00     0.014 C
HETATM   46  C29 UNL     1     -13.229 -24.450 -26.808  1.00  0.00    -0.023 C
HETATM   47  C30 UNL     1     -13.351 -23.480 -25.665  1.00  0.00     0.017 C
HETATM   48  C31 UNL     1     -14.590 -24.855 -27.269  1.00  0.00     0.011 C
HETATM   49  C32 UNL     1     -14.827 -24.152 -28.610  1.00  0.00     0.007 C
HETATM   50  C33 UNL     1     -13.617 -23.287 -28.798  1.00  0.00     0.015 C
HETATM   51  S1  UNL     1     -11.283 -22.677 -27.453  1.00  0.00    -0.082 SA
HETATM   52  C35 UNL     1     -14.252 -22.221 -30.931  1.00  0.00     0.008 C
ENDBRANCH   3  30
TORSDOF 10
ENDMDL