MODEL 2
REMARK VINA RESULT: -11.270011430      0.743      1.231
REMARK  11 active torsions:
REMARK  status: ('A' for Active; 'I' for Inactive)
REMARK    1  A    between atoms: C3_3  and  O1_4
REMARK    2  A    between atoms: O1_4  and  C4_5
REMARK       I    between atoms: C4_5  and  N1_7
REMARK    3  A    between atoms: N1_7  and  C5_9
REMARK    4  A    between atoms: C5_9  and  N2_10
REMARK    5  A    between atoms: C5_9  and  C20_29
REMARK       I    between atoms: N2_10  and  C6_12
REMARK       I    between atoms: C6_12  and  N3_14
REMARK    6  A    between atoms: N3_14  and  C7_16
REMARK    7  A    between atoms: C7_16  and  C8_17
REMARK       I    between atoms: C20_29  and  N4_31
REMARK    8  A    between atoms: N4_31  and  C21_33
REMARK    9  A    between atoms: C21_33  and  C22_34
REMARK   10  A    between atoms: C21_33  and  C29_42
REMARK   11  A    between atoms: C22_34  and  C23_35
ROOT
HETATM    1  C5  UNL     1     -10.011 -28.226 -37.309  1.00  0.00     0.283 C
ENDROOT
BRANCH   1   2
HETATM    2  N1  UNL     1      -9.175 -28.167 -36.168  1.00  0.00    -0.307 N
HETATM    3  C4  UNL     1      -9.375 -28.894 -34.961  1.00  0.00     0.362 C
HETATM    4  O2  UNL     1     -10.321 -29.666 -34.722  1.00  0.00    -0.238 OA
ATOM      5  H1  UNL     1      -8.362 -27.553 -36.214  1.00  0.00     0.167 HD
BRANCH   3   6
HETATM    6  O1  UNL     1      -8.429 -28.733 -33.942  1.00  0.00    -0.297 OA
BRANCH   6   7
HETATM    7  C3  UNL     1      -8.320 -27.617 -33.142  1.00  0.00     0.152 C
HETATM    8  C2  UNL     1      -7.630 -27.918 -31.815  1.00  0.00     0.134 C
HETATM    9  C1  UNL     1      -6.240 -28.413 -31.976  1.00  0.00     0.029 C
HETATM   10  S1  UNL     1      -7.697 -26.271 -31.091  1.00  0.00     0.150 S
HETATM   11  C36 UNL     1      -9.012 -25.588 -32.117  1.00  0.00     0.143 C
HETATM   12  O5  UNL     1      -8.056 -26.322 -29.659  1.00  0.00    -0.227 OA
HETATM   13  O6  UNL     1      -6.413 -25.552 -31.377  1.00  0.00    -0.227 OA
HETATM   14  C35 UNL     1      -9.550 -26.879 -32.762  1.00  0.00     0.049 C
ENDBRANCH   6   7
ENDBRANCH   3   6
ENDBRANCH   1   2
BRANCH   1  15
HETATM   15  N2  UNL     1     -10.726 -29.468 -37.570  1.00  0.00    -0.313 N
HETATM   16  C6  UNL     1      -9.991 -30.620 -38.016  1.00  0.00     0.318 C
HETATM   17  O3  UNL     1      -8.728 -30.383 -38.089  1.00  0.00    -0.247 OA
HETATM   18  N3  UNL     1     -10.476 -31.873 -38.351  1.00  0.00    -0.333 N
ATOM     19  H3  UNL     1     -11.481 -32.034 -38.287  1.00  0.00     0.165 HD
ATOM     20  H2  UNL     1     -11.736 -29.519 -37.438  1.00  0.00     0.166 HD
BRANCH  18  21
HETATM   21  C7  UNL     1      -9.616 -32.989 -38.797  1.00  0.00     0.043 C
HETATM   22  C14 UNL     1      -9.388 -33.894 -37.660  1.00  0.00     0.038 C
HETATM   23  C15 UNL     1      -8.006 -34.096 -38.095  1.00  0.00     0.003 A
HETATM   24  C16 UNL     1      -8.192 -32.728 -38.751  1.00  0.00     0.027 A
HETATM   25  C17 UNL     1      -6.916 -33.369 -38.628  1.00  0.00    -0.037 A
HETATM   26  C18 UNL     1      -5.882 -33.020 -37.523  1.00  0.00     0.015 C
HETATM   27  C19 UNL     1      -6.160 -33.594 -39.923  1.00  0.00     0.015 C
BRANCH  21  28
HETATM   28  C8  UNL     1     -10.253 -33.500 -40.035  1.00  0.00     0.014 C
HETATM   29  C9  UNL     1     -11.187 -32.638 -40.797  1.00  0.00     0.007 C
HETATM   30  C10 UNL     1     -11.461 -33.370 -42.129  1.00  0.00     0.000 C
HETATM   31  C11 UNL     1     -12.279 -34.586 -41.838  1.00  0.00     0.000 C
HETATM   32  C12 UNL     1     -11.519 -35.466 -40.871  1.00  0.00     0.000 C
HETATM   33  C13 UNL     1     -11.087 -34.737 -39.642  1.00  0.00     0.007 C
ENDBRANCH  21  28
ENDBRANCH  18  21
ENDBRANCH   1  15
BRANCH   1  34
HETATM   34  C20 UNL     1     -10.946 -27.068 -37.340  1.00  0.00     0.260 C
HETATM   35  O4  UNL     1     -11.350 -26.689 -38.449  1.00  0.00    -0.269 OA
HETATM   36  N4  UNL     1     -11.335 -26.439 -36.136  1.00  0.00    -0.353 N
ATOM     37  H4  UNL     1     -10.957 -26.785 -35.254  1.00  0.00     0.163 HD
BRANCH  36  38
HETATM   38  C21 UNL     1     -12.295 -25.271 -36.113  1.00  0.00     0.089 C
BRANCH  38  39
HETATM   39  C22 UNL     1     -11.581 -24.344 -35.238  1.00  0.00     0.030 C
BRANCH  39  40
HETATM   40  C23 UNL     1     -12.050 -23.341 -34.331  1.00  0.00    -0.010 C
HETATM   41  C24 UNL     1     -11.108 -22.325 -33.749  1.00  0.00     0.024 C
HETATM   42  C25 UNL     1     -11.994 -21.072 -33.512  1.00  0.00     0.117 C
HETATM   43  N5  UNL     1     -12.942 -21.450 -32.519  1.00  0.00    -0.417 N
HETATM   44  C26 UNL     1     -14.235 -20.861 -32.684  1.00  0.00     0.143 C
HETATM   45  C27 UNL     1     -12.918 -22.782 -32.051  1.00  0.00     0.117 C
HETATM   46  C28 UNL     1     -12.873 -23.856 -33.143  1.00  0.00     0.024 C
ENDBRANCH  39  40
ENDBRANCH  38  39
BRANCH  38  47
HETATM   47  C29 UNL     1     -13.581 -25.878 -35.802  1.00  0.00     0.008 C
HETATM   48  C30 UNL     1     -14.769 -25.558 -36.651  1.00  0.00     0.007 C
HETATM   49  C31 UNL     1     -15.521 -26.771 -37.165  1.00  0.00     0.000 C
HETATM   50  C32 UNL     1     -16.020 -27.554 -35.979  1.00  0.00     0.000 C
HETATM   51  C33 UNL     1     -14.868 -27.807 -35.044  1.00  0.00     0.000 C
HETATM   52  C34 UNL     1     -13.538 -27.423 -35.734  1.00  0.00     0.007 C
ENDBRANCH  38  47
ENDBRANCH  36  38
ENDBRANCH   1  34
TORSDOF 11
ENDMDL