MODEL 5
REMARK VINA RESULT: -9.975933523      2.078      6.100
REMARK  12 active torsions:
REMARK  status: ('A' for Active; 'I' for Inactive)
REMARK    1  A    between atoms: C2_2  and  C3_3
REMARK    2  A    between atoms: C2_2  and  C26_37
REMARK       I    between atoms: C3_3  and  N1_5
REMARK       I    between atoms: N1_5  and  C4_7
REMARK    3  A    between atoms: C4_7  and  C5_9
REMARK    4  A    between atoms: N2_13  and  C9_14
REMARK    5  A    between atoms: C9_14  and  O3_15
REMARK    6  A    between atoms: C9_14  and  C10_17
REMARK    7  A    between atoms: C10_17  and  N3_18
REMARK    8  A    between atoms: C10_17  and  C20_31
REMARK       I    between atoms: C11_20  and  N5_22
REMARK    9  A    between atoms: C26_37  and  O4_38
REMARK   10  A    between atoms: C26_37  and  N6_40
REMARK   11  A    between atoms: C31_45  and  C32_46
REMARK       I    between atoms: C32_46  and  N7_48
REMARK   12  A    between atoms: N7_48  and  C33_50
ROOT
HETATM    1  C5  UNL     1      -8.720 -27.566 -31.101  1.00  0.00     0.178 C
HETATM    2  C6  UNL     1      -7.383 -27.236 -30.426  1.00  0.00     0.037 C
HETATM    3  C7  UNL     1      -6.965 -26.058 -31.300  1.00  0.00     0.022 C
HETATM    4  C8  UNL     1      -8.297 -25.341 -31.516  1.00  0.00     0.126 C
HETATM    5  N2  UNL     1      -9.333 -26.223 -31.063  1.00  0.00    -0.350 N
ENDROOT
BRANCH   1   6
HETATM    6  C4  UNL     1      -8.475 -28.045 -32.462  1.00  0.00     0.247 C
HETATM    7  N1  UNL     1      -9.547 -28.125 -33.379  1.00  0.00    -0.295 N
HETATM    8  C3  UNL     1      -9.374 -28.639 -34.697  1.00  0.00     0.232 C
ATOM      9  H1  UNL     1     -10.471 -27.806 -33.090  1.00  0.00     0.171 HD
HETATM   10  O1  UNL     1      -8.256 -29.039 -35.042  1.00  0.00    -0.273 OA
HETATM   11  O2  UNL     1      -7.325 -28.384 -32.815  1.00  0.00    -0.271 OA
BRANCH   8  12
HETATM   12  C2  UNL     1     -10.529 -28.676 -35.607  1.00  0.00     0.122 C
HETATM   13  C1  UNL     1     -10.689 -30.183 -35.974  1.00  0.00     0.024 C
BRANCH  12  14
HETATM   14  C26 UNL     1     -10.412 -27.881 -36.863  1.00  0.00     0.229 C
BRANCH  14  15
HETATM   15  O4  UNL     1      -9.069 -27.567 -37.153  1.00  0.00    -0.376 OA
ATOM     16  H4  UNL     1      -8.959 -26.641 -37.336  1.00  0.00     0.212 HD
ENDBRANCH  14  15
BRANCH  14  17
HETATM   17  N6  UNL     1     -11.334 -26.874 -37.024  1.00  0.00    -0.372 N
HETATM   18  C27 UNL     1     -11.890 -26.344 -38.175  1.00  0.00     0.131 C
HETATM   19  C28 UNL     1     -13.047 -25.810 -37.313  1.00  0.00    -0.003 C
HETATM   20  C29 UNL     1     -14.406 -26.278 -37.717  1.00  0.00     0.019 C
HETATM   21  C30 UNL     1     -12.909 -24.337 -37.123  1.00  0.00     0.019 C
HETATM   22  C31 UNL     1     -12.453 -26.671 -36.178  1.00  0.00     0.183 C
BRANCH  22  23
HETATM   23  C32 UNL     1     -12.244 -25.883 -34.938  1.00  0.00     0.241 C
HETATM   24  O5  UNL     1     -12.949 -26.116 -33.935  1.00  0.00    -0.271 OA
HETATM   25  N7  UNL     1     -11.261 -24.875 -34.878  1.00  0.00    -0.355 N
ATOM     26  H7  UNL     1     -10.695 -24.691 -35.706  1.00  0.00     0.162 HD
BRANCH  25  27
HETATM   27  C33 UNL     1     -11.028 -24.098 -33.696  1.00  0.00     0.084 C
HETATM   28  C34 UNL     1     -12.324 -23.461 -33.229  1.00  0.00     0.025 C
HETATM   29  C35 UNL     1     -12.740 -22.288 -34.049  1.00  0.00     0.002 C
HETATM   30  C36 UNL     1     -11.591 -21.278 -34.018  1.00  0.00     0.000 C
HETATM   31  C37 UNL     1     -10.414 -21.915 -34.709  1.00  0.00     0.002 C
HETATM   32  C38 UNL     1      -9.926 -23.104 -33.892  1.00  0.00     0.025 C
ENDBRANCH  25  27
ENDBRANCH  22  23
ENDBRANCH  14  17
ENDBRANCH  12  14
ENDBRANCH   8  12
ENDBRANCH   1   6
BRANCH   5  33
HETATM   33  C9  UNL     1     -10.658 -26.042 -30.640  1.00  0.00     0.138 C
BRANCH  33  34
HETATM   34  O3  UNL     1     -11.554 -26.503 -31.476  1.00  0.00    -0.348 OA
ATOM     35  H3  UNL     1     -11.892 -27.361 -31.247  1.00  0.00     0.219 HD
ENDBRANCH  33  34
BRANCH  33  36
HETATM   36  C10 UNL     1     -11.193 -25.424 -29.426  1.00  0.00     0.163 C
BRANCH  36  37
HETATM   37  N3  UNL     1     -12.512 -24.929 -29.609  1.00  0.00    -0.352 N
HETATM   38  C11 UNL     1     -12.885 -23.692 -29.462  1.00  0.00     0.186 C
HETATM   39  N4  UNL     1     -14.289 -23.491 -29.713  1.00  0.00    -0.064 NA
HETATM   40  N5  UNL     1     -12.042 -22.619 -29.120  1.00  0.00    -0.355 N
HETATM   41  C12 UNL     1     -11.529 -21.615 -30.032  1.00  0.00     0.130 C
HETATM   42  C19 UNL     1     -11.516 -22.275 -27.828  1.00  0.00     0.130 C
HETATM   43  C13 UNL     1     -11.189 -20.414 -29.205  1.00  0.00     0.009 C
HETATM   44  C14 UNL     1     -11.942 -19.162 -29.587  1.00  0.00     0.007 C
HETATM   45  C18 UNL     1     -11.733 -20.796 -27.820  1.00  0.00     0.009 C
HETATM   46  C15 UNL     1     -12.063 -18.327 -28.307  1.00  0.00     0.000 C
HETATM   47  C16 UNL     1     -10.887 -18.585 -27.365  1.00  0.00     0.000 C
HETATM   48  C17 UNL     1     -10.928 -20.026 -26.825  1.00  0.00     0.007 C
ATOM     49  H3  UNL     1     -13.229 -25.604 -29.879  1.00  0.00     0.163 HD
ENDBRANCH  36  37
BRANCH  36  50
HETATM   50  C20 UNL     1     -11.245 -26.433 -28.287  1.00  0.00     0.016 C
HETATM   51  C21 UNL     1     -12.410 -26.236 -27.370  1.00  0.00     0.007 C
HETATM   52  C22 UNL     1     -12.187 -25.326 -26.218  1.00  0.00     0.000 C
HETATM   53  C23 UNL     1     -10.853 -25.381 -25.556  1.00  0.00     0.000 C
HETATM   54  C24 UNL     1      -9.759 -25.335 -26.609  1.00  0.00     0.000 C
HETATM   55  C25 UNL     1      -9.994 -26.552 -27.488  1.00  0.00     0.007 C
ENDBRANCH  36  50
ENDBRANCH  33  36
ENDBRANCH   5  33
TORSDOF 12
ENDMDL