MODEL 2
REMARK VINA RESULT: -9.630077701      1.779      2.231
REMARK  13 active torsions:
REMARK  status: ('A' for Active; 'I' for Inactive)
REMARK    1  A    between atoms: O1_2  and  C2_3
REMARK    2  A    between atoms: C2_3  and  C3_5
REMARK    3  A    between atoms: C3_5  and  N1_6
REMARK    4  A    between atoms: C3_5  and  C34_50
REMARK       I    between atoms: N1_6  and  C4_8
REMARK    5  A    between atoms: C4_8  and  C5_10
REMARK    6  A    between atoms: C5_10  and  C6_11
REMARK    7  A    between atoms: C5_10  and  C29_45
REMARK    8  A    between atoms: C7_13  and  C8_14
REMARK    9  A    between atoms: C8_14  and  N3_15
REMARK       I    between atoms: N3_15  and  C9_17
REMARK   10  A    between atoms: C9_17  and  C10_19
REMARK   11  A    between atoms: C10_19  and  C11_20
REMARK       I    between atoms: N4_24  and  C15_25
REMARK       I    between atoms: C15_25  and  N7_30
REMARK   12  A    between atoms: C19_33  and  O5_34
REMARK   13  A    between atoms: C29_45  and  C30_46
ROOT
HETATM    1  C11 UNL     1     -14.461 -22.165 -32.605  1.00  0.00    -0.018 C
HETATM    2  C12 UNL     1     -15.608 -22.385 -33.560  1.00  0.00     0.017 C
HETATM    3  C13 UNL     1     -13.422 -21.204 -33.210  1.00  0.00     0.032 C
HETATM    4  C14 UNL     1     -12.102 -21.979 -33.079  1.00  0.00     0.142 C
HETATM    5  N4  UNL     1     -12.611 -23.323 -33.380  1.00  0.00    -0.216 N
HETATM    6  C15 UNL     1     -12.090 -24.179 -34.354  1.00  0.00     0.687 C
HETATM    7  N5  UNL     1     -10.836 -24.470 -34.382  1.00  0.00    -0.126 N
ATOM      8  H5  UNL     1     -10.482 -25.099 -35.103  1.00  0.00     0.197 HD
HETATM    9  C16 UNL     1      -9.965 -23.945 -33.451  1.00  0.00     0.196 C
HETATM   10  N6  UNL     1      -9.213 -23.511 -32.676  1.00  0.00    -0.171 NA
HETATM   11  N7  UNL     1     -12.892 -24.786 -35.376  1.00  0.00    -0.217 N
HETATM   12  C17 UNL     1     -13.119 -26.208 -35.285  1.00  0.00     0.143 C
HETATM   13  C18 UNL     1     -13.379 -26.880 -36.595  1.00  0.00     0.052 C
HETATM   14  C19 UNL     1     -12.769 -26.088 -37.723  1.00  0.00     0.121 C
HETATM   15  C20 UNL     1     -13.381 -24.705 -37.795  1.00  0.00     0.052 C
HETATM   16  C21 UNL     1     -13.466 -24.040 -36.459  1.00  0.00     0.143 C
HETATM   17  C22 UNL     1     -13.723 -23.474 -32.453  1.00  0.00     0.151 C
ENDROOT
BRANCH   1  18
HETATM   18  C10 UNL     1     -14.875 -21.568 -31.310  1.00  0.00     0.113 C
BRANCH  18  19
HETATM   19  C9  UNL     1     -13.862 -21.813 -30.209  1.00  0.00     0.218 C
HETATM   20  N3  UNL     1     -13.749 -23.087 -29.706  1.00  0.00    -0.359 N
ATOM     21  H3  UNL     1     -14.412 -23.721 -30.150  1.00  0.00     0.162 HD
HETATM   22  O4  UNL     1     -13.231 -20.819 -29.876  1.00  0.00    -0.274 OA
BRANCH  20  23
HETATM   23  C8  UNL     1     -12.962 -23.757 -28.739  1.00  0.00     0.147 C
BRANCH  23  24
HETATM   24  C7  UNL     1     -13.595 -24.929 -28.049  1.00  0.00     0.102 C
HETATM   25  N2  UNL     1     -13.393 -26.195 -28.587  1.00  0.00    -0.380 N
HETATM   26  C6  UNL     1     -12.413 -26.634 -29.419  1.00  0.00     0.073 C
HETATM   27  C25 UNL     1     -14.516 -27.038 -28.432  1.00  0.00     0.097 A
HETATM   28  C24 UNL     1     -15.691 -26.193 -28.115  1.00  0.00     0.021 A
HETATM   29  C26 UNL     1     -15.196 -27.237 -27.163  1.00  0.00    -0.021 A
HETATM   30  C23 UNL     1     -15.130 -24.785 -28.046  1.00  0.00     0.034 C
HETATM   31  C27 UNL     1     -16.096 -28.487 -27.131  1.00  0.00     0.017 C
HETATM   32  C28 UNL     1     -14.776 -26.759 -25.817  1.00  0.00     0.017 C
BRANCH  26  33
HETATM   33  C5  UNL     1     -11.015 -26.795 -28.796  1.00  0.00     0.117 C
BRANCH  33  34
HETATM   34  C4  UNL     1     -10.067 -26.393 -29.847  1.00  0.00     0.227 C
HETATM   35  N1  UNL     1      -9.349 -27.361 -30.582  1.00  0.00    -0.346 N
ATOM     36  H1  UNL     1      -9.465 -28.344 -30.338  1.00  0.00     0.163 HD
HETATM   37  O3  UNL     1      -9.887 -25.182 -30.125  1.00  0.00    -0.273 OA
BRANCH  35  38
HETATM   38  C3  UNL     1      -8.445 -27.014 -31.681  1.00  0.00     0.191 C
BRANCH  38  39
HETATM   39  C2  UNL     1      -9.066 -27.711 -32.874  1.00  0.00     0.282 C
HETATM   40  O2  UNL     1      -9.490 -28.901 -32.806  1.00  0.00    -0.263 OA
BRANCH  39  41
HETATM   41  O1  UNL     1      -9.211 -27.098 -34.099  1.00  0.00    -0.325 OA
HETATM   42  C1  UNL     1      -9.370 -27.846 -35.294  1.00  0.00     0.213 C
ENDBRANCH  39  41
ENDBRANCH  38  39
BRANCH  38  43
HETATM   43  C34 UNL     1      -7.054 -27.492 -31.541  1.00  0.00    -0.022 C
HETATM   44  C35 UNL     1      -6.072 -26.385 -31.214  1.00  0.00     0.017 C
HETATM   45  C36 UNL     1      -6.521 -28.282 -32.693  1.00  0.00     0.017 C
HETATM   46  C37 UNL     1      -6.993 -28.447 -30.335  1.00  0.00     0.017 C
ENDBRANCH  38  43
ENDBRANCH  35  38
ENDBRANCH  33  34
BRANCH  33  47
HETATM   47  C29 UNL     1     -10.840 -28.147 -28.254  1.00  0.00     0.028 C
BRANCH  47  48
HETATM   48  C30 UNL     1     -10.872 -28.426 -26.821  1.00  0.00    -0.050 C
HETATM   49  C31 UNL     1      -9.753 -29.200 -26.211  1.00  0.00     0.014 C
HETATM   50  C32 UNL     1     -12.142 -29.277 -26.563  1.00  0.00     0.014 C
HETATM   51  C33 UNL     1     -11.082 -27.197 -25.950  1.00  0.00     0.014 C
ENDBRANCH  47  48
ENDBRANCH  33  47
ENDBRANCH  26  33
ENDBRANCH  23  24
ENDBRANCH  20  23
ENDBRANCH  18  19
ENDBRANCH   1  18
BRANCH  14  52
HETATM   52  O5  UNL     1     -11.378 -26.012 -37.595  1.00  0.00    -0.395 OA
ATOM     53  H5  UNL     1     -11.074 -26.495 -36.835  1.00  0.00     0.210 HD
ENDBRANCH  14  52
TORSDOF 13
ENDMDL