MODEL 2
REMARK VINA RESULT: -9.579717901      0.903      1.197
REMARK  12 active torsions:
REMARK  status: ('A' for Active; 'I' for Inactive)
REMARK    1  A    between atoms: C2_2  and  N1_5
REMARK       I    between atoms: N1_5  and  C5_7
REMARK    2  A    between atoms: C5_7  and  C6_9
REMARK    3  A    between atoms: C6_9  and  N2_10
REMARK       I    between atoms: N2_10  and  C7_12
REMARK    4  A    between atoms: C7_12  and  C8_14
REMARK    5  A    between atoms: C8_14  and  C9_15
REMARK    6  A    between atoms: C9_15  and  S1_16
REMARK    7  A    between atoms: S1_16  and  C10_17
REMARK    8  A    between atoms: C10_17  and  C11_18
REMARK    9  A    between atoms: C18_25  and  O3_26
REMARK   10  A    between atoms: O3_26  and  C19_27
REMARK       I    between atoms: C19_27  and  N3_29
REMARK   11  A    between atoms: N3_29  and  C20_31
REMARK   12  A    between atoms: C32_45  and  C34_47
ROOT
HETATM    1  C8  UNL     1     -12.408 -23.944 -33.074  1.00  0.00     0.058 C
HETATM    2  C17 UNL     1     -12.937 -22.652 -32.401  1.00  0.00     0.053 C
HETATM    3  C18 UNL     1     -12.350 -21.503 -33.076  1.00  0.00     0.141 C
HETATM    4  C26 UNL     1     -11.665 -22.016 -34.306  1.00  0.00     0.046 C
HETATM    5  C27 UNL     1     -10.316 -21.443 -34.596  1.00  0.00     0.175 C
HETATM    6  O5  UNL     1      -9.349 -22.420 -34.376  1.00  0.00    -0.390 OA
HETATM    7  C28 UNL     1      -9.965 -23.361 -33.524  1.00  0.00     0.174 C
HETATM    8  C29 UNL     1     -11.375 -23.480 -34.036  1.00  0.00     0.037 C
ENDROOT
BRANCH   1   9
HETATM    9  C7  UNL     1     -11.922 -24.866 -32.018  1.00  0.00     0.228 C
HETATM   10  N2  UNL     1     -11.450 -24.442 -30.764  1.00  0.00    -0.342 N
ATOM     11  H2  UNL     1     -11.433 -23.441 -30.572  1.00  0.00     0.163 HD
HETATM   12  O2  UNL     1     -11.922 -26.087 -32.224  1.00  0.00    -0.273 OA
BRANCH  10  13
HETATM   13  C6  UNL     1     -10.981 -25.355 -29.718  1.00  0.00     0.114 C
HETATM   14  C30 UNL     1     -12.019 -26.385 -29.378  1.00  0.00     0.042 C
HETATM   15  C31 UNL     1     -13.076 -25.797 -28.440  1.00  0.00     0.021 C
HETATM   16  C32 UNL     1     -12.481 -25.667 -27.049  1.00  0.00     0.035 C
HETATM   17  C33 UNL     1     -12.465 -27.028 -26.356  1.00  0.00     0.025 C
HETATM   18  C35 UNL     1     -11.097 -25.112 -27.180  1.00  0.00     0.021 C
HETATM   19  C36 UNL     1     -10.734 -24.514 -28.493  1.00  0.00     0.042 C
BRANCH  13  20
HETATM   20  C5  UNL     1      -9.701 -25.981 -30.122  1.00  0.00     0.246 C
HETATM   21  N1  UNL     1      -9.413 -27.362 -29.899  1.00  0.00    -0.351 N
ATOM     22  H1  UNL     1     -10.112 -27.953 -29.448  1.00  0.00     0.163 HD
HETATM   23  O1  UNL     1      -8.836 -25.261 -30.686  1.00  0.00    -0.271 OA
BRANCH  21  24
HETATM   24  C2  UNL     1      -8.159 -27.932 -30.299  1.00  0.00     0.022 C
HETATM   25  C1  UNL     1      -8.103 -29.365 -29.757  1.00  0.00     0.037 C
HETATM   26  C3  UNL     1      -6.974 -27.190 -29.710  1.00  0.00     0.037 C
HETATM   27  C4  UNL     1      -7.962 -27.970 -31.792  1.00  0.00     0.037 C
ENDBRANCH  21  24
ENDBRANCH  13  20
BRANCH  16  28
HETATM   28  C34 UNL     1     -13.389 -24.796 -26.264  1.00  0.00     0.239 C
HETATM   29  N5  UNL     1     -13.975 -23.643 -26.842  1.00  0.00    -0.061 NA
HETATM   30  O6  UNL     1     -13.685 -25.035 -25.045  1.00  0.00    -0.276 OA
ENDBRANCH  16  28
ENDBRANCH  10  13
ENDBRANCH   1   9
BRANCH   1  31
HETATM   31  C9  UNL     1     -13.568 -24.692 -33.706  1.00  0.00     0.093 C
BRANCH  31  32
HETATM   32  S1  UNL     1     -14.556 -23.926 -34.927  1.00  0.00    -0.167 SA
BRANCH  32  33
HETATM   33  C10 UNL     1     -14.228 -24.312 -36.640  1.00  0.00     0.078 C
BRANCH  33  34
HETATM   34  C11 UNL     1     -12.781 -24.815 -36.808  1.00  0.00    -0.005 C
HETATM   35  C12 UNL     1     -12.032 -24.100 -37.856  1.00  0.00     0.005 C
HETATM   36  C13 UNL     1     -11.964 -24.727 -39.200  1.00  0.00     0.000 C
HETATM   37  C14 UNL     1     -12.523 -26.109 -39.282  1.00  0.00     0.000 C
HETATM   38  C15 UNL     1     -12.017 -26.870 -38.059  1.00  0.00     0.000 C
HETATM   39  C16 UNL     1     -12.782 -26.310 -36.883  1.00  0.00     0.005 C
ENDBRANCH  33  34
ENDBRANCH  32  33
ENDBRANCH  31  32
ENDBRANCH   1  31
BRANCH   3  40
HETATM   40  O3  UNL     1     -11.621 -20.560 -32.371  1.00  0.00    -0.298 OA
BRANCH  40  41
HETATM   41  C19 UNL     1     -11.290 -20.528 -31.069  1.00  0.00     0.361 C
HETATM   42  O4  UNL     1     -10.394 -21.293 -30.676  1.00  0.00    -0.238 OA
HETATM   43  N3  UNL     1     -11.927 -19.663 -30.160  1.00  0.00    -0.331 N
ATOM     44  H3  UNL     1     -12.662 -19.035 -30.484  1.00  0.00     0.165 HD
BRANCH  43  45
HETATM   45  C20 UNL     1     -11.539 -19.666 -28.765  1.00  0.00     0.114 C
HETATM   46  C21 UNL     1     -11.751 -18.325 -28.104  1.00  0.00     0.055 C
HETATM   47  C22 UNL     1     -11.719 -18.715 -26.637  1.00  0.00     0.238 C
HETATM   48  N4  UNL     1     -12.152 -20.075 -26.569  1.00  0.00    -0.073 N
HETATM   49  C23 UNL     1     -11.161 -20.901 -25.854  1.00  0.00     0.272 C
HETATM   50  C24 UNL     1     -13.391 -20.117 -25.811  1.00  0.00     0.272 C
HETATM   51  C25 UNL     1     -12.329 -20.590 -27.909  1.00  0.00     0.261 C
ENDBRANCH  43  45
ENDBRANCH  40  41
ENDBRANCH   3  40
TORSDOF 12
ENDMDL