MODEL 5
REMARK VINA RESULT: -10.453372577      3.079      5.942
REMARK  12 active torsions:
REMARK  status: ('A' for Active; 'I' for Inactive)
REMARK       I    between atoms: C2_2  and  N1_4
REMARK    1  A    between atoms: N1_4  and  C3_6
REMARK    2  A    between atoms: C3_6  and  C4_7
REMARK    3  A    between atoms: N2_10  and  C7_11
REMARK    4  A    between atoms: C7_11  and  C8_12
REMARK    5  A    between atoms: C8_12  and  O2_13
REMARK    6  A    between atoms: N3_15  and  O3_17
REMARK    7  A    between atoms: C16_27  and  C17_28
REMARK    8  A    between atoms: C17_28  and  C18_29
REMARK    9  A    between atoms: C18_29  and  N5_30
REMARK       I    between atoms: N5_30  and  C19_32
REMARK   10  A    between atoms: C19_32  and  C20_34
REMARK   11  A    between atoms: C20_34  and  C21_35
REMARK       I    between atoms: N6_44  and  C30_45
REMARK   12  A    between atoms: C30_45  and  C31_47
ROOT
HETATM    1  C17 UNL     1     -11.467 -22.547 -35.067  1.00  0.00    -0.020 C
HETATM    2  C37 UNL     1     -10.050 -22.150 -34.776  1.00  0.00     0.011 C
HETATM    3  C38 UNL     1      -9.943 -21.469 -36.120  1.00  0.00     0.002 C
HETATM    4  C39 UNL     1     -11.264 -22.173 -36.466  1.00  0.00     0.011 C
ENDROOT
BRANCH   1   5
HETATM    5  C16 UNL     1     -12.475 -21.889 -34.205  1.00  0.00     0.006 C
HETATM    6  C4  UNL     1     -13.606 -22.558 -33.611  1.00  0.00     0.010 C
HETATM    7  C5  UNL     1     -13.374 -23.551 -32.493  1.00  0.00     0.026 C
HETATM    8  C6  UNL     1     -12.503 -22.999 -31.386  1.00  0.00     0.123 C
HETATM    9  N2  UNL     1     -12.767 -21.658 -31.034  1.00  0.00    -0.377 N
HETATM   10  C14 UNL     1     -12.488 -20.651 -31.967  1.00  0.00     0.060 C
HETATM   11  C15 UNL     1     -11.715 -21.082 -33.147  1.00  0.00     0.050 C
BRANCH   6  12
HETATM   12  C3  UNL     1     -14.773 -22.952 -34.480  1.00  0.00     0.127 C
BRANCH  12  13
HETATM   13  N1  UNL     1     -14.833 -24.358 -34.839  1.00  0.00    -0.361 N
HETATM   14  C2  UNL     1     -14.768 -24.901 -36.129  1.00  0.00     0.213 C
HETATM   15  C1  UNL     1     -14.849 -26.363 -36.338  1.00  0.00     0.117 C
HETATM   16  O1  UNL     1     -14.639 -24.173 -37.129  1.00  0.00    -0.274 OA
ATOM     17  H1  UNL     1     -14.933 -25.021 -34.069  1.00  0.00     0.162 HD
ENDBRANCH  12  13
ENDBRANCH   6  12
BRANCH   9  18
HETATM   18  C7  UNL     1     -12.780 -21.354 -29.657  1.00  0.00     0.101 C
HETATM   19  C9  UNL     1     -13.989 -21.959 -28.959  1.00  0.00     0.070 C
HETATM   20  C10 UNL     1     -13.677 -22.460 -27.588  1.00  0.00     0.275 C
HETATM   21  N4  UNL     1     -12.888 -21.479 -26.873  1.00  0.00     0.084 N
HETATM   22  C11 UNL     1     -12.711 -21.985 -25.523  1.00  0.00     0.309 C
HETATM   23  C12 UNL     1     -11.654 -21.157 -27.527  1.00  0.00     0.275 C
HETATM   24  C13 UNL     1     -11.569 -21.789 -28.924  1.00  0.00     0.070 C
BRANCH  18  25
HETATM   25  C8  UNL     1     -12.899 -19.864 -29.533  1.00  0.00     0.164 C
HETATM   26  N3  UNL     1     -11.862 -19.101 -29.591  1.00  0.00    -0.249 N
ATOM     27  H3  UNL     1     -10.945 -19.527 -29.724  1.00  0.00     0.196 HD
BRANCH  25  28
HETATM   28  O2  UNL     1     -14.134 -19.259 -29.350  1.00  0.00    -0.346 OA
ATOM     29  H2  UNL     1     -14.641 -18.950 -30.091  1.00  0.00     0.219 HD
ENDBRANCH  25  28
BRANCH  26  30
HETATM   30  O3  UNL     1     -11.947 -17.755 -29.482  1.00  0.00    -0.288 OA
ATOM     31  H3  UNL     1     -11.215 -17.220 -29.197  1.00  0.00     0.244 HD
ENDBRANCH  26  30
ENDBRANCH  18  25
ENDBRANCH   9  18
ENDBRANCH   1   5
BRANCH   1  32
HETATM   32  C18 UNL     1     -11.559 -24.085 -34.993  1.00  0.00     0.132 C
BRANCH  32  33
HETATM   33  N5  UNL     1     -10.674 -24.669 -34.057  1.00  0.00    -0.360 N
HETATM   34  C19 UNL     1     -10.772 -26.081 -33.822  1.00  0.00     0.219 C
HETATM   35  O4  UNL     1     -11.654 -26.689 -34.474  1.00  0.00    -0.274 OA
ATOM     36  H5  UNL     1      -9.986 -24.102 -33.563  1.00  0.00     0.162 HD
BRANCH  34  37
HETATM   37  C20 UNL     1      -9.895 -26.768 -32.876  1.00  0.00     0.128 C
BRANCH  37  38
HETATM   38  C21 UNL     1      -9.645 -26.098 -31.578  1.00  0.00     0.096 C
HETATM   39  C22 UNL     1      -8.236 -25.497 -31.545  1.00  0.00     0.031 C
HETATM   40  C23 UNL     1      -7.242 -26.376 -30.855  1.00  0.00    -0.007 C
HETATM   41  C24 UNL     1      -5.869 -26.270 -31.512  1.00  0.00     0.005 C
HETATM   42  C28 UNL     1      -7.564 -27.813 -30.721  1.00  0.00     0.008 C
HETATM   43  C25 UNL     1      -5.081 -27.517 -31.241  1.00  0.00     0.000 C
HETATM   44  C26 UNL     1      -5.240 -27.932 -29.803  1.00  0.00     0.000 C
HETATM   45  C27 UNL     1      -6.656 -28.351 -29.589  1.00  0.00     0.006 C
HETATM   46  C29 UNL     1      -8.957 -28.142 -30.289  1.00  0.00     0.131 C
HETATM   47  N6  UNL     1      -9.788 -26.968 -30.402  1.00  0.00    -0.346 N
HETATM   48  C30 UNL     1     -10.713 -26.673 -29.373  1.00  0.00     0.224 C
HETATM   49  O5  UNL     1     -11.452 -25.626 -29.468  1.00  0.00    -0.273 OA
BRANCH  48  50
HETATM   50  C31 UNL     1     -10.930 -27.464 -28.151  1.00  0.00     0.078 C
HETATM   51  C32 UNL     1     -10.749 -26.709 -26.871  1.00  0.00     0.014 C
HETATM   52  C33 UNL     1     -11.983 -25.901 -26.502  1.00  0.00     0.001 C
HETATM   53  C34 UNL     1     -13.097 -26.858 -26.171  1.00  0.00     0.000 C
HETATM   54  C35 UNL     1     -12.865 -28.241 -26.746  1.00  0.00     0.001 C
HETATM   55  C36 UNL     1     -12.274 -28.141 -28.147  1.00  0.00     0.014 C
ENDBRANCH  48  50
ENDBRANCH  37  38
ENDBRANCH  34  37
ENDBRANCH  32  33
ENDBRANCH   1  32
TORSDOF 12
ENDMDL