MODEL 2
REMARK VINA RESULT: -9.771013671      2.161      7.172
REMARK  15 active torsions:
REMARK  status: ('A' for Active; 'I' for Inactive)
REMARK       I    between atoms: C2_2  and  N1_4
REMARK    1  A    between atoms: N1_4  and  C3_6
REMARK    2  A    between atoms: C3_6  and  C32_50
REMARK    3  A    between atoms: C4_7  and  O2_8
REMARK    4  A    between atoms: C4_7  and  N2_10
REMARK    5  A    between atoms: C8_14  and  C9_15
REMARK       I    between atoms: C9_15  and  N3_17
REMARK    6  A    between atoms: N3_17  and  C10_19
REMARK    7  A    between atoms: C10_19  and  C11_20
REMARK    8  A    between atoms: C10_19  and  C17_31
REMARK    9  A    between atoms: C11_20  and  O4_21
REMARK   10  A    between atoms: C11_20  and  C12_23
REMARK       I    between atoms: C12_23  and  N4_25
REMARK   11  A    between atoms: N4_25  and  C13_27
REMARK   12  A    between atoms: C17_31  and  N5_32
REMARK   13  A    between atoms: C17_31  and  C28_46
REMARK       I    between atoms: N5_32  and  C18_34
REMARK   14  A    between atoms: C18_34  and  O7_36
REMARK   15  A    between atoms: O7_36  and  C19_37
ROOT
HETATM    1  C10 UNL     1     -13.047 -23.680 -27.683  1.00  0.00     0.170 C
ENDROOT
BRANCH   1   2
HETATM    2  N3  UNL     1     -12.929 -23.536 -29.168  1.00  0.00    -0.346 N
HETATM    3  C9  UNL     1     -13.948 -22.857 -29.891  1.00  0.00     0.241 C
HETATM    4  O3  UNL     1     -14.898 -22.405 -29.199  1.00  0.00    -0.271 OA
ATOM      5  H3  UNL     1     -12.123 -23.923 -29.660  1.00  0.00     0.163 HD
BRANCH   3   6
HETATM    6  C8  UNL     1     -13.918 -22.678 -31.334  1.00  0.00     0.178 C
HETATM    7  N2  UNL     1     -12.689 -22.031 -31.863  1.00  0.00    -0.347 N
HETATM    8  C5  UNL     1     -12.766 -20.676 -31.434  1.00  0.00     0.126 C
HETATM    9  C6  UNL     1     -14.216 -20.359 -31.304  1.00  0.00     0.022 C
HETATM   10  C7  UNL     1     -14.954 -21.639 -31.717  1.00  0.00     0.037 C
BRANCH   7  11
HETATM   11  C4  UNL     1     -11.785 -22.797 -32.620  1.00  0.00     0.162 C
HETATM   12  C3  UNL     1     -11.678 -23.352 -33.938  1.00  0.00     0.067 C
BRANCH  12  13
HETATM   13  N1  UNL     1     -10.406 -22.941 -34.540  1.00  0.00    -0.327 N
HETATM   14  C2  UNL     1     -10.027 -21.655 -34.931  1.00  0.00     0.218 C
HETATM   15  C1  UNL     1      -8.688 -21.366 -35.559  1.00  0.00     0.117 C
HETATM   16  O1  UNL     1     -10.762 -20.651 -34.792  1.00  0.00    -0.274 OA
ATOM     17  H1  UNL     1      -9.718 -23.679 -34.692  1.00  0.00     0.168 HD
ENDBRANCH  12  13
BRANCH  12  18
HETATM   18  C32 UNL     1     -12.752 -23.380 -34.927  1.00  0.00     0.040 C
HETATM   19  C33 UNL     1     -12.313 -24.288 -36.130  1.00  0.00     0.011 C
HETATM   20  C34 UNL     1     -13.290 -23.972 -37.231  1.00  0.00     0.001 C
HETATM   21  C35 UNL     1     -14.640 -24.507 -36.827  1.00  0.00     0.000 C
HETATM   22  C36 UNL     1     -15.036 -23.993 -35.458  1.00  0.00     0.001 C
HETATM   23  C37 UNL     1     -13.962 -24.230 -34.439  1.00  0.00     0.011 C
ENDBRANCH  12  18
BRANCH  11  24
HETATM   24  O2  UNL     1     -10.691 -23.092 -31.903  1.00  0.00    -0.345 OA
ATOM     25  H2  UNL     1     -10.526 -22.411 -31.261  1.00  0.00     0.219 HD
ENDBRANCH  11  24
ENDBRANCH   7  11
ENDBRANCH   3   6
ENDBRANCH   1   2
BRANCH   1  26
HETATM   26  C11 UNL     1     -11.891 -22.764 -27.282  1.00  0.00     0.136 C
BRANCH  26  27
HETATM   27  O4  UNL     1     -10.826 -23.422 -26.910  1.00  0.00    -0.358 OA
ATOM     28  H4  UNL     1     -10.038 -22.892 -26.934  1.00  0.00     0.217 HD
ENDBRANCH  26  27
BRANCH  26  29
HETATM   29  C12 UNL     1     -11.780 -21.364 -27.232  1.00  0.00     0.273 C
HETATM   30  O5  UNL     1     -10.747 -20.731 -26.958  1.00  0.00    -0.266 OA
HETATM   31  N4  UNL     1     -12.925 -20.516 -27.517  1.00  0.00    -0.347 N
ATOM     32  H4  UNL     1     -13.809 -20.969 -27.748  1.00  0.00     0.163 HD
BRANCH  31  33
HETATM   33  C13 UNL     1     -12.891 -19.092 -27.495  1.00  0.00     0.022 C
HETATM   34  C14 UNL     1     -14.267 -18.542 -27.914  1.00  0.00     0.037 C
HETATM   35  C15 UNL     1     -11.918 -18.531 -28.502  1.00  0.00     0.037 C
HETATM   36  C16 UNL     1     -12.579 -18.515 -26.150  1.00  0.00     0.037 C
ENDBRANCH  31  33
ENDBRANCH  26  29
ENDBRANCH   1  26
BRANCH   1  37
HETATM   37  C17 UNL     1     -12.861 -25.043 -27.193  1.00  0.00     0.123 C
BRANCH  37  38
HETATM   38  N5  UNL     1     -12.179 -25.818 -28.352  1.00  0.00    -0.329 N
HETATM   39  C18 UNL     1     -10.966 -26.483 -28.053  1.00  0.00     0.361 C
HETATM   40  O6  UNL     1     -10.458 -26.453 -26.918  1.00  0.00    -0.238 OA
ATOM     41  H5  UNL     1     -12.586 -25.847 -29.287  1.00  0.00     0.165 HD
BRANCH  39  42
HETATM   42  O7  UNL     1     -10.281 -27.207 -29.027  1.00  0.00    -0.299 OA
BRANCH  42  43
HETATM   43  C19 UNL     1      -9.413 -26.574 -29.947  1.00  0.00     0.134 C
HETATM   44  C20 UNL     1      -9.858 -26.673 -31.376  1.00  0.00     0.033 C
HETATM   45  C21 UNL     1      -8.955 -27.650 -32.095  1.00  0.00     0.007 C
HETATM   46  C22 UNL     1      -7.532 -27.121 -32.249  1.00  0.00    -0.010 C
HETATM   47  C23 UNL     1      -6.651 -28.274 -32.600  1.00  0.00     0.005 C
HETATM   48  C26 UNL     1      -7.109 -26.597 -30.895  1.00  0.00    -0.008 C
HETATM   49  C24 UNL     1      -5.481 -28.185 -31.682  1.00  0.00     0.001 C
HETATM   50  C25 UNL     1      -5.678 -27.008 -30.749  1.00  0.00     0.005 C
HETATM   51  C27 UNL     1      -8.007 -27.119 -29.787  1.00  0.00     0.037 C
ENDBRANCH  42  43
ENDBRANCH  39  42
ENDBRANCH  37  38
BRANCH  37  52
HETATM   52  C28 UNL     1     -14.185 -25.841 -27.142  1.00  0.00    -0.028 C
HETATM   53  C29 UNL     1     -14.390 -26.489 -28.545  1.00  0.00     0.016 C
HETATM   54  C30 UNL     1     -14.125 -26.973 -26.161  1.00  0.00     0.016 C
HETATM   55  C31 UNL     1     -15.431 -25.064 -26.939  1.00  0.00     0.016 C
ENDBRANCH  37  52
ENDBRANCH   1  37
TORSDOF 15
ENDMDL