MODEL 3
REMARK VINA RESULT: -8.925818847      4.430      8.266
REMARK  14 active torsions:
REMARK  status: ('A' for Active; 'I' for Inactive)
REMARK    1  A    between atoms: C2_2  and  C3_3
REMARK    2  A    between atoms: N1_6  and  C6_7
REMARK    3  A    between atoms: C6_7  and  O1_8
REMARK    4  A    between atoms: C6_7  and  C7_10
REMARK    5  A    between atoms: C7_10  and  N2_11
REMARK    6  A    between atoms: C7_10  and  C31_47
REMARK       I    between atoms: N2_11  and  C8_13
REMARK    7  A    between atoms: C8_13  and  C9_15
REMARK       I    between atoms: N3_17  and  C11_18
REMARK    8  A    between atoms: C11_18  and  C12_20
REMARK    9  A    between atoms: C12_20  and  N4_21
REMARK   10  A    between atoms: C12_20  and  C27_43
REMARK       I    between atoms: N4_21  and  C13_23
REMARK   11  A    between atoms: C13_23  and  O5_25
REMARK   12  A    between atoms: O5_25  and  C14_26
REMARK   13  A    between atoms: C19_31  and  C20_32
REMARK       I    between atoms: C20_32  and  N5_34
REMARK   14  A    between atoms: N5_34  and  C21_36
ROOT
HETATM    1  C12 UNL     1     -12.381 -26.432 -36.486  1.00  0.00     0.089 C
ENDROOT
BRANCH   1   2
HETATM    2  C11 UNL     1     -11.495 -27.332 -37.205  1.00  0.00     0.268 C
HETATM    3  N3  UNL     1     -10.350 -28.026 -36.790  1.00  0.00    -0.330 N
HETATM    4  C9  UNL     1      -9.283 -28.921 -37.120  1.00  0.00     0.197 A
HETATM    5  C10 UNL     1      -9.385 -28.317 -35.717  1.00  0.00     0.162 A
HETATM    6  O3  UNL     1     -11.826 -27.514 -38.448  1.00  0.00    -0.266 OA
BRANCH   4   7
HETATM    7  C8  UNL     1      -9.357 -30.371 -37.106  1.00  0.00     0.243 C
HETATM    8  N2  UNL     1      -8.295 -31.130 -37.621  1.00  0.00    -0.346 N
ATOM      9  H2  UNL     1      -7.500 -30.616 -38.002  1.00  0.00     0.163 HD
HETATM   10  O2  UNL     1     -10.381 -30.971 -36.624  1.00  0.00    -0.271 OA
BRANCH   8  11
HETATM   11  C7  UNL     1      -8.222 -32.595 -37.660  1.00  0.00     0.166 C
BRANCH  11  12
HETATM   12  C6  UNL     1      -9.343 -33.112 -38.395  1.00  0.00     0.137 C
BRANCH  12  13
HETATM   13  N1  UNL     1      -9.761 -33.225 -39.694  1.00  0.00    -0.364 N
HETATM   14  C5  UNL     1     -10.605 -32.111 -40.250  1.00  0.00     0.125 C
HETATM   15  C4  UNL     1     -11.893 -32.673 -40.780  1.00  0.00     0.024 C
HETATM   16  C3  UNL     1     -11.698 -33.846 -41.697  1.00  0.00    -0.012 C
HETATM   17  C36 UNL     1     -10.814 -34.904 -41.063  1.00  0.00     0.024 C
HETATM   18  C35 UNL     1      -9.497 -34.228 -40.656  1.00  0.00     0.125 C
BRANCH  16  19
HETATM   19  C2  UNL     1     -12.960 -34.430 -42.231  1.00  0.00     0.000 C
HETATM   20  C1  UNL     1     -14.051 -33.400 -42.411  1.00  0.00     0.005 C
ENDBRANCH  16  19
ENDBRANCH  12  13
BRANCH  12  21
HETATM   21  O1  UNL     1     -10.252 -33.647 -37.547  1.00  0.00    -0.348 OA
ATOM     22  H1  UNL     1     -10.011 -33.483 -36.643  1.00  0.00     0.219 HD
ENDBRANCH  12  21
ENDBRANCH  11  12
BRANCH  11  23
HETATM   23  C31 UNL     1      -6.826 -33.003 -37.894  1.00  0.00    -0.023 C
HETATM   24  C32 UNL     1      -6.607 -34.408 -38.364  1.00  0.00     0.017 C
HETATM   25  C33 UNL     1      -5.845 -32.497 -36.878  1.00  0.00     0.017 C
HETATM   26  C34 UNL     1      -6.401 -32.171 -39.186  1.00  0.00     0.017 C
ENDBRANCH  11  23
ENDBRANCH   8  11
ENDBRANCH   4   7
ENDBRANCH   1   2
BRANCH   1  27
HETATM   27  N4  UNL     1     -12.379 -26.651 -35.054  1.00  0.00    -0.300 N
HETATM   28  C13 UNL     1     -11.922 -25.666 -34.100  1.00  0.00     0.365 C
HETATM   29  O4  UNL     1     -11.505 -24.557 -34.523  1.00  0.00    -0.238 OA
ATOM     30  H4  UNL     1     -12.716 -27.547 -34.701  1.00  0.00     0.171 HD
BRANCH  28  31
HETATM   31  O5  UNL     1     -11.933 -25.906 -32.759  1.00  0.00    -0.297 OA
BRANCH  31  32
HETATM   32  C14 UNL     1     -10.994 -25.513 -31.792  1.00  0.00     0.147 C
HETATM   33  C15 UNL     1     -10.215 -26.798 -31.345  1.00  0.00     0.039 C
HETATM   34  C16 UNL     1     -10.200 -26.739 -29.884  1.00  0.00     0.001 A
HETATM   35  C17 UNL     1      -9.588 -25.338 -29.617  1.00  0.00    -0.001 A
HETATM   36  C24 UNL     1      -9.169 -26.519 -28.930  1.00  0.00    -0.040 A
HETATM   37  C18 UNL     1     -10.771 -24.490 -29.477  1.00  0.00     0.022 C
HETATM   38  C19 UNL     1     -11.707 -24.875 -30.645  1.00  0.00     0.108 C
HETATM   39  C25 UNL     1      -7.781 -27.062 -29.204  1.00  0.00     0.015 C
HETATM   40  C26 UNL     1      -9.526 -26.602 -27.445  1.00  0.00     0.015 C
BRANCH  38  41
HETATM   41  C20 UNL     1     -12.309 -23.593 -31.067  1.00  0.00     0.225 C
HETATM   42  O6  UNL     1     -11.959 -22.489 -30.630  1.00  0.00    -0.273 OA
HETATM   43  N5  UNL     1     -13.376 -23.595 -32.044  1.00  0.00    -0.342 N
ATOM     44  H5  UNL     1     -13.693 -24.483 -32.431  1.00  0.00     0.164 HD
BRANCH  43  45
HETATM   45  C21 UNL     1     -14.002 -22.376 -32.484  1.00  0.00     0.084 C
HETATM   46  C22 UNL     1     -14.772 -21.659 -31.399  1.00  0.00     0.051 C
HETATM   47  C23 UNL     1     -14.928 -22.678 -33.656  1.00  0.00     0.051 C
HETATM   48  S1  UNL     1     -12.752 -21.206 -33.128  1.00  0.00    -0.064 SA
ENDBRANCH  43  45
ENDBRANCH  38  41
ENDBRANCH  31  32
ENDBRANCH  28  31
ENDBRANCH   1  27
BRANCH   1  49
HETATM   49  C27 UNL     1     -13.746 -26.192 -37.019  1.00  0.00    -0.003 C
HETATM   50  C28 UNL     1     -14.047 -24.697 -36.737  1.00  0.00     0.021 C
HETATM   51  C29 UNL     1     -14.826 -26.982 -36.364  1.00  0.00     0.021 C
HETATM   52  C30 UNL     1     -13.757 -26.267 -38.540  1.00  0.00     0.021 C
ENDBRANCH   1  49
TORSDOF 14
ENDMDL