MODEL 4
REMARK VINA RESULT: -7.197798721      3.293      5.021
REMARK  6 active torsions:
REMARK  status: ('A' for Active; 'I' for Inactive)
REMARK    1  A    between atoms: C2_2  and  C3_3
REMARK    2  A    between atoms: C5_7  and  N2_8
REMARK       I    between atoms: N2_8  and  C6_10
REMARK    3  A    between atoms: C6_10  and  C7_12
REMARK    4  A    between atoms: C7_12  and  C8_13
REMARK    5  A    between atoms: C16_21  and  C17_22
REMARK    6  A    between atoms: C17_22  and  O2_23
ROOT
HETATM    1  C7  UNL     1      -2.382   5.505  12.254  1.00  0.00     0.065 C
HETATM    2  C14 UNL     1      -0.998   6.116  12.099  1.00  0.00     0.024 C
HETATM    3  C15 UNL     1      -1.046   5.796  10.629  1.00  0.00     0.010 C
HETATM    4  C16 UNL     1      -2.177   4.811  10.996  1.00  0.00     0.031 C
ENDROOT
BRANCH   1   5
HETATM    5  C6  UNL     1      -2.218   4.431  13.350  1.00  0.00     0.236 C
HETATM    6  N2  UNL     1      -3.052   3.297  13.317  1.00  0.00    -0.306 N
ATOM      7  H2  UNL     1      -3.051   2.709  12.484  1.00  0.00     0.171 HD
HETATM    8  O1  UNL     1      -1.383   4.524  14.253  1.00  0.00    -0.272 OA
BRANCH   6   9
HETATM    9  C5  UNL     1      -3.831   2.970  14.319  1.00  0.00     0.151 A
HETATM   10  N1  UNL     1      -3.496   2.278  15.405  1.00  0.00    -0.345 N
HETATM   11  C4  UNL     1      -4.406   2.043  16.305  1.00  0.00     0.109 A
ATOM     12  H1  UNL     1      -2.543   1.938  15.529  1.00  0.00     0.167 HD
HETATM   13  C3  UNL     1      -5.665   2.526  16.081  1.00  0.00     0.023 A
HETATM   14  S1  UNL     1      -5.481   3.304  14.568  1.00  0.00    -0.053 SA
BRANCH  13  15
HETATM   15  C2  UNL     1      -6.872   2.404  16.929  1.00  0.00     0.010 C
HETATM   16  C1  UNL     1      -7.415   1.245  17.173  1.00  0.00     0.013 C
ENDBRANCH  13  15
ENDBRANCH   6   9
ENDBRANCH   1   5
BRANCH   1  17
HETATM   17  C8  UNL     1      -3.468   6.344  12.688  1.00  0.00    -0.004 C
HETATM   18  C9  UNL     1      -4.455   7.082  11.967  1.00  0.00    -0.082 C
HETATM   19  C10 UNL     1      -3.915   8.162  11.002  1.00  0.00     0.034 C
HETATM   20  C13 UNL     1      -5.593   6.589  11.215  1.00  0.00     0.034 C
HETATM   21  C11 UNL     1      -5.216   8.885  10.704  1.00  0.00     0.005 C
HETATM   22  C12 UNL     1      -6.340   7.911  10.919  1.00  0.00     0.005 C
ENDBRANCH   1  17
BRANCH   4  23
HETATM   23  C17 UNL     1      -3.116   4.698   9.882  1.00  0.00     0.170 C
BRANCH  23  24
HETATM   24  O2  UNL     1      -3.998   3.639   9.915  1.00  0.00    -0.400 OA
ATOM     25  H2  UNL     1      -4.124   3.159   9.104  1.00  0.00     0.209 HD
ENDBRANCH  23  24
ENDBRANCH   4  23
TORSDOF 6
ENDMDL