MODEL 3
REMARK VINA RESULT: -6.878514443      3.175      4.069
REMARK  7 active torsions:
REMARK  status: ('A' for Active; 'I' for Inactive)
REMARK    1  A    between atoms: C2_2  and  C3_3
REMARK    2  A    between atoms: C3_3  and  N1_4
REMARK    3  A    between atoms: N1_4  and  C4_6
REMARK    4  A    between atoms: C8_12  and  N3_13
REMARK    5  A    between atoms: N3_13  and  C9_15
REMARK    6  A    between atoms: C9_15  and  C10_16
REMARK    7  A    between atoms: C10_16  and  C11_17
ROOT
HETATM    1  C4  UNL     1      -5.730   2.957  15.264  1.00  0.00     0.129 A
HETATM    2  N2  UNL     1      -6.262   4.087  15.735  1.00  0.00    -0.351 N
ATOM      3  H2  UNL     1      -6.846   4.054  16.571  1.00  0.00     0.166 HD
HETATM    4  C5  UNL     1      -6.040   5.281  15.124  1.00  0.00     0.091 A
HETATM    5  C6  UNL     1      -5.258   5.376  13.994  1.00  0.00     0.034 A
HETATM    6  C7  UNL     1      -4.691   4.224  13.477  1.00  0.00     0.040 A
HETATM    7  C8  UNL     1      -3.898   4.238  12.351  1.00  0.00     0.114 A
HETATM    8  N4  UNL     1      -3.385   3.076  11.912  1.00  0.00    -0.338 N
ATOM      9  H4  UNL     1      -2.798   3.084  11.078  1.00  0.00     0.168 HD
HETATM   10  C17 UNL     1      -3.612   1.909  12.526  1.00  0.00     0.182 A
HETATM   11  N5  UNL     1      -4.389   1.919  13.623  1.00  0.00    -0.348 N
ATOM     12  H5  UNL     1      -4.567   1.034  14.098  1.00  0.00     0.167 HD
HETATM   13  C18 UNL     1      -4.941   3.036  14.126  1.00  0.00     0.091 A
ENDROOT
BRANCH   7  14
HETATM   14  N3  UNL     1      -3.698   5.375  11.784  1.00  0.00    -0.375 N
ATOM     15  H3  UNL     1      -4.507   5.914  11.477  1.00  0.00     0.161 HD
BRANCH  14  16
HETATM   16  C9  UNL     1      -2.376   5.925  11.561  1.00  0.00     0.125 C
BRANCH  16  17
HETATM   17  C10 UNL     1      -1.709   6.255  12.840  1.00  0.00     0.053 C
BRANCH  17  18
HETATM   18  C11 UNL     1      -1.911   7.595  13.365  1.00  0.00    -0.082 C
HETATM   19  C12 UNL     1      -1.703   8.749  12.742  1.00  0.00    -0.024 C
HETATM   20  C13 UNL     1      -1.998   9.981  13.537  1.00  0.00     0.027 C
HETATM   21  C14 UNL     1      -1.200   9.935  14.811  1.00  0.00     0.004 C
HETATM   22  C15 UNL     1      -1.537   8.667  15.569  1.00  0.00     0.005 C
HETATM   23  C16 UNL     1      -2.416   7.744  14.784  1.00  0.00     0.034 C
ENDBRANCH  17  18
ENDBRANCH  16  17
ENDBRANCH  14  16
ENDBRANCH   7  14
BRANCH   1  24
HETATM   24  N1  UNL     1      -5.897   1.799  15.789  1.00  0.00    -0.371 N
ATOM     25  H1  UNL     1      -5.287   1.052  15.457  1.00  0.00     0.161 HD
BRANCH  24  26
HETATM   26  C3  UNL     1      -6.853   1.449  16.794  1.00  0.00     0.148 C
BRANCH  26  27
HETATM   27  C2  UNL     1      -6.126   1.383  18.101  1.00  0.00    -0.018 C
HETATM   28  C1  UNL     1      -6.258   2.337  19.005  1.00  0.00     0.008 C
ENDBRANCH  26  27
ENDBRANCH  24  26
ENDBRANCH   1  24
TORSDOF 7
ENDMDL