MODEL 2
REMARK VINA RESULT: -6.986128215      0.834      1.346
REMARK  6 active torsions:
REMARK  status: ('A' for Active; 'I' for Inactive)
REMARK    1  A    between atoms: O1_1  and  C1_3
REMARK    2  A    between atoms: C1_3  and  C2_4
REMARK    3  A    between atoms: C2_4  and  C3_5
REMARK    4  A    between atoms: N1_8  and  C6_9
REMARK    5  A    between atoms: C6_9  and  C7_10
REMARK    6  A    between atoms: N2_14  and  C11_15
ROOT
HETATM    1  C7  UNL     1      -3.174   4.075  13.216  1.00  0.00     0.042 C
HETATM    2  C8  UNL     1      -4.459   3.802  12.476  1.00  0.00     0.016 C
HETATM    3  C9  UNL     1      -4.771   2.341  12.552  1.00  0.00     0.045 C
HETATM    4  C10 UNL     1      -4.061   1.745  13.747  1.00  0.00     0.063 C
HETATM    5  N2  UNL     1      -4.119   2.609  14.824  1.00  0.00    -0.369 N
HETATM    6  C17 UNL     1      -3.480   3.841  14.684  1.00  0.00     0.069 C
ENDROOT
BRANCH   1   7
HETATM    7  C6  UNL     1      -2.669   5.476  12.986  1.00  0.00     0.126 C
BRANCH   7   8
HETATM    8  N1  UNL     1      -1.564   5.571  12.105  1.00  0.00    -0.412 N
HETATM    9  C5  UNL     1      -1.394   4.537  11.162  1.00  0.00     0.117 C
HETATM   10  C4  UNL     1      -0.674   5.170   9.961  1.00  0.00     0.024 C
HETATM   11  C3  UNL     1       0.680   5.538  10.431  1.00  0.00    -0.010 C
HETATM   12  C19 UNL     1       0.616   6.464  11.643  1.00  0.00     0.024 C
HETATM   13  C18 UNL     1      -0.325   5.934  12.694  1.00  0.00     0.117 C
BRANCH  11  14
HETATM   14  C2  UNL     1       1.622   4.408  10.664  1.00  0.00     0.031 C
BRANCH  14  15
HETATM   15  C1  UNL     1       2.683   4.246   9.623  1.00  0.00     0.164 C
BRANCH  15  16
HETATM   16  O1  UNL     1       2.790   3.002   9.047  1.00  0.00    -0.401 OA
ATOM     17  H1  UNL     1       3.642   2.584   9.101  1.00  0.00     0.209 HD
ENDBRANCH  15  16
ENDBRANCH  14  15
ENDBRANCH  11  14
ENDBRANCH   7   8
ENDBRANCH   1   7
BRANCH   5  18
HETATM   18  C11 UNL     1      -4.809   2.312  15.991  1.00  0.00     0.088 C
HETATM   19  C12 UNL     1      -6.106   3.134  15.997  1.00  0.00     0.026 C
HETATM   20  C13 UNL     1      -6.982   2.770  17.161  1.00  0.00     0.002 C
HETATM   21  C14 UNL     1      -6.255   1.949  18.171  1.00  0.00     0.000 C
HETATM   22  C15 UNL     1      -5.826   0.654  17.524  1.00  0.00     0.002 C
HETATM   23  C16 UNL     1      -5.210   0.880  16.161  1.00  0.00     0.026 C
ENDBRANCH   5  18
TORSDOF 6
ENDMDL