MODEL 1
REMARK VINA RESULT: -6.329224948      0.000      0.000
REMARK  5 active torsions:
REMARK  status: ('A' for Active; 'I' for Inactive)
REMARK    1  A    between atoms: C2_2  and  C3_3
REMARK    2  A    between atoms: C3_3  and  C4_4
REMARK    3  A    between atoms: C4_4  and  C5_5
REMARK    4  A    between atoms: N1_16  and  C15_17
REMARK    5  A    between atoms: C15_17  and  C16_18
ROOT
HETATM    1  C4  UNL     1      -2.969   5.805  13.804  1.00  0.00    -0.026 C
HETATM    2  C6  UNL     1      -3.014   6.529  12.443  1.00  0.00     0.015 C
HETATM    3  C7  UNL     1      -4.388   5.919  12.266  1.00  0.00    -0.008 C
HETATM    4  C8  UNL     1      -4.404   5.175  10.967  1.00  0.00     0.006 C
HETATM    5  C9  UNL     1      -3.511   3.959  11.252  1.00  0.00     0.013 C
HETATM    6  C10 UNL     1      -3.895   3.677  12.653  1.00  0.00     0.001 C
HETATM    7  C11 UNL     1      -5.316   3.047  12.555  1.00  0.00     0.025 C
HETATM    8  C12 UNL     1      -5.019   1.750  11.836  1.00  0.00     0.009 C
HETATM    9  C13 UNL     1      -3.637   1.412  12.286  1.00  0.00     0.037 C
HETATM   10  C14 UNL     1      -3.307   2.506  13.322  1.00  0.00     0.233 C
HETATM   11  N1  UNL     1      -4.202   2.383  14.490  1.00  0.00     0.104 N
HETATM   12  C17 UNL     1      -5.519   2.645  13.999  1.00  0.00     0.279 C
HETATM   13  C18 UNL     1      -4.048   4.949  13.381  1.00  0.00     0.010 C
ENDROOT
BRANCH  11  14
HETATM   14  C15 UNL     1      -4.037   1.134  15.159  1.00  0.00     0.385 C
BRANCH  14  15
HETATM   15  C16 UNL     1      -4.914   1.089  16.342  1.00  0.00     0.202 C
HETATM   16  O1  UNL     1      -4.881   1.975  17.223  1.00  0.00    -0.647 OA
HETATM   17  O2  UNL     1      -5.806   0.046  16.503  1.00  0.00    -0.647 OA
ENDBRANCH  14  15
ENDBRANCH  11  14
BRANCH   1  18
HETATM   18  C3  UNL     1      -3.047   6.805  14.878  1.00  0.00     0.010 C
BRANCH  18  19
HETATM   19  C2  UNL     1      -2.599   8.186  14.734  1.00  0.00    -0.004 C
HETATM   20  C1  UNL     1      -1.477   8.618  15.624  1.00  0.00     0.005 C
ENDBRANCH  18  19
ENDBRANCH   1  18
BRANCH   1  21
HETATM   21  C5  UNL     1      -1.556   5.188  13.889  1.00  0.00     0.096 C
HETATM   22  S1  UNL     1      -0.648   6.005  12.508  1.00  0.00    -0.097 SA
ENDBRANCH   1  21
TORSDOF 5
ENDMDL