MODEL 2
REMARK VINA RESULT: -6.995731796      0.946      1.457
REMARK  7 active torsions:
REMARK  status: ('A' for Active; 'I' for Inactive)
REMARK    1  A    between atoms: O1_1  and  C1_3
REMARK    2  A    between atoms: C1_3  and  C2_4
REMARK    3  A    between atoms: C2_4  and  O2_5
REMARK    4  A    between atoms: C2_4  and  C3_7
REMARK    5  A    between atoms: C3_7  and  N1_8
REMARK    6  A    between atoms: C6_11  and  C7_12
REMARK    7  A    between atoms: C7_12  and  C8_13
ROOT
HETATM    1  N1  UNL     1      -4.126   3.531  13.908  1.00  0.00    -0.391 N
HETATM    2  C4  UNL     1      -5.041   4.415  14.446  1.00  0.00     0.058 C
HETATM    3  C5  UNL     1      -4.526   5.666  15.126  1.00  0.00     0.049 C
HETATM    4  C6  UNL     1      -3.358   6.157  14.313  1.00  0.00    -0.008 C
HETATM    5  C18 UNL     1      -2.304   5.093  14.407  1.00  0.00     0.024 C
HETATM    6  C19 UNL     1      -2.818   3.934  13.557  1.00  0.00     0.122 C
ENDROOT
BRANCH   4   7
HETATM    7  C7  UNL     1      -2.918   7.527  14.500  1.00  0.00     0.010 C
BRANCH   7   8
HETATM    8  C8  UNL     1      -1.536   7.972  14.403  1.00  0.00    -0.006 C
HETATM    9  C9  UNL     1      -0.906   8.100  13.056  1.00  0.00    -0.009 C
HETATM   10  C10 UNL     1      -1.483   9.198  12.192  1.00  0.00     0.010 C
HETATM   11  C14 UNL     1       0.564   8.517  13.249  1.00  0.00     0.010 C
HETATM   12  C11 UNL     1      -1.530  10.496  12.937  1.00  0.00    -0.013 C
HETATM   13  C12 UNL     1      -0.076  10.937  13.154  1.00  0.00     0.009 C
HETATM   14  C17 UNL     1      -2.144  10.382  14.314  1.00  0.00     0.010 C
HETATM   15  C13 UNL     1       0.641   9.860  13.911  1.00  0.00    -0.013 C
HETATM   16  C15 UNL     1       0.013   9.732  15.280  1.00  0.00     0.010 C
HETATM   17  C16 UNL     1      -1.432   9.341  15.094  1.00  0.00    -0.009 C
ENDBRANCH   7   8
ENDBRANCH   4   7
BRANCH   1  18
HETATM   18  C3  UNL     1      -4.280   2.141  14.223  1.00  0.00     0.155 C
BRANCH  18  19
HETATM   19  C2  UNL     1      -4.250   1.984  15.727  1.00  0.00     0.159 C
BRANCH  19  20
HETATM   20  C1  UNL     1      -5.170   0.868  16.138  1.00  0.00     0.197 C
BRANCH  20  21
HETATM   21  O1  UNL     1      -4.845  -0.323  15.494  1.00  0.00    -0.398 OA
ATOM     22  H1  UNL     1      -5.343  -1.053  15.843  1.00  0.00     0.209 HD
ENDBRANCH  20  21
ENDBRANCH  19  20
BRANCH  19  23
HETATM   23  O2  UNL     1      -2.956   1.837  16.221  1.00  0.00    -0.392 OA
ATOM     24  H2  UNL     1      -2.305   1.737  15.537  1.00  0.00     0.210 HD
ENDBRANCH  19  23
ENDBRANCH  18  19
ENDBRANCH   1  18
TORSDOF 7
ENDMDL