MODEL 4
REMARK VINA RESULT: -6.645146257      0.791      1.381
REMARK  7 active torsions:
REMARK  status: ('A' for Active; 'I' for Inactive)
REMARK    1  A    between atoms: C1_2  and  N1_3
REMARK    2  A    between atoms: C1_2  and  N3_14
REMARK    3  A    between atoms: N1_3  and  C2_5
REMARK    4  A    between atoms: C2_5  and  C3_6
REMARK    5  A    between atoms: C3_6  and  N2_7
REMARK    6  A    between atoms: N3_14  and  N4_16
REMARK    7  A    between atoms: C10_18  and  C11_19
ROOT
HETATM    1  S1  UNL     1      -3.964  -0.624  11.890  1.00  0.00    -0.040 SA
HETATM    2  C1  UNL     1      -4.314   0.546  12.964  1.00  0.00     0.186 C
ENDROOT
BRANCH   2   3
HETATM    3  N1  UNL     1      -4.644   1.831  12.479  1.00  0.00    -0.361 N
ATOM      4  H1  UNL     1      -5.571   2.225  12.645  1.00  0.00     0.162 HD
BRANCH   3   5
HETATM    5  C2  UNL     1      -3.649   2.581  11.741  1.00  0.00     0.166 C
BRANCH   5   6
HETATM    6  C3  UNL     1      -2.928   3.588  12.571  1.00  0.00     0.082 C
BRANCH   6   7
HETATM    7  N2  UNL     1      -3.707   4.567  13.203  1.00  0.00    -0.372 N
HETATM    8  C4  UNL     1      -3.391   4.940  14.516  1.00  0.00     0.063 C
HETATM    9  C5  UNL     1      -3.638   6.401  14.850  1.00  0.00     0.044 C
HETATM   10  C6  UNL     1      -2.568   7.244  14.222  1.00  0.00     0.005 C
HETATM   11  C7  UNL     1      -2.912   7.661  12.812  1.00  0.00     0.002 C
HETATM   12  C8  UNL     1      -3.131   6.482  11.904  1.00  0.00     0.020 C
HETATM   13  C9  UNL     1      -4.253   5.585  12.355  1.00  0.00     0.127 C
ENDBRANCH   6   7
ENDBRANCH   5   6
ENDBRANCH   3   5
ENDBRANCH   2   3
BRANCH   2  14
HETATM   14  N3  UNL     1      -4.289   0.291  14.348  1.00  0.00    -0.277 N
ATOM     15  H3  UNL     1      -4.781  -0.537  14.682  1.00  0.00     0.189 HD
BRANCH  14  16
HETATM   16  N4  UNL     1      -3.645   1.081  15.295  1.00  0.00    -0.313 N
HETATM   17  C10 UNL     1      -4.352   1.773  16.107  1.00  0.00     0.085 C
ATOM     18  H4  UNL     1      -2.626   1.107  15.343  1.00  0.00     0.185 HD
BRANCH  17  19
HETATM   19  C11 UNL     1      -5.829   1.734  16.041  1.00  0.00     0.029 C
HETATM   20  C12 UNL     1      -6.400   3.117  15.876  1.00  0.00     0.036 C
HETATM   21  C13 UNL     1      -6.913   3.680  17.139  1.00  0.00    -0.030 C
HETATM   22  C14 UNL     1      -6.801   3.116  18.315  1.00  0.00    -0.031 C
HETATM   23  C15 UNL     1      -6.116   1.804  18.466  1.00  0.00     0.027 C
HETATM   24  C16 UNL     1      -6.399   0.991  17.227  1.00  0.00     0.014 C
ENDBRANCH  17  19
ENDBRANCH  14  16
ENDBRANCH   2  14
TORSDOF 7
ENDMDL