MODEL 1
REMARK VINA RESULT: -7.170152691      0.000      0.000
REMARK  6 active torsions:
REMARK  status: ('A' for Active; 'I' for Inactive)
REMARK    1  A    between atoms: C2_2  and  O1_3
REMARK    2  A    between atoms: C2_2  and  C3_5
REMARK       I    between atoms: C3_5  and  N1_7
REMARK    3  A    between atoms: C6_10  and  C7_11
REMARK    4  A    between atoms: C7_11  and  C8_12
REMARK    5  A    between atoms: C8_12  and  C9_13
REMARK       I    between atoms: C9_13  and  N2_15
REMARK    6  A    between atoms: N2_15  and  C10_17
ROOT
HETATM    1  C3  UNL     1      -4.320   2.009  16.099  1.00  0.00     0.248 C
HETATM    2  O2  UNL     1      -3.200   1.481  16.399  1.00  0.00    -0.270 OA
HETATM    3  N1  UNL     1      -4.312   3.244  15.412  1.00  0.00    -0.350 N
HETATM    4  C4  UNL     1      -3.062   3.919  15.074  1.00  0.00     0.126 C
HETATM    5  C5  UNL     1      -2.942   3.845  13.530  1.00  0.00     0.024 C
HETATM    6  C6  UNL     1      -4.257   3.538  12.965  1.00  0.00    -0.011 C
HETATM    7  C16 UNL     1      -5.358   4.401  13.607  1.00  0.00     0.024 C
HETATM    8  C17 UNL     1      -5.538   3.872  15.024  1.00  0.00     0.126 C
ENDROOT
BRANCH   6   9
HETATM    9  C7  UNL     1      -4.431   3.601  11.511  1.00  0.00     0.014 C
BRANCH   9  10
HETATM   10  C8  UNL     1      -3.560   4.536  10.772  1.00  0.00     0.103 C
BRANCH  10  11
HETATM   11  C9  UNL     1      -4.226   5.559   9.986  1.00  0.00     0.217 C
HETATM   12  O3  UNL     1      -4.052   5.673   8.758  1.00  0.00    -0.274 OA
HETATM   13  N2  UNL     1      -5.109   6.472  10.612  1.00  0.00    -0.356 N
ATOM     14  H2  UNL     1      -5.278   6.412  11.616  1.00  0.00     0.162 HD
BRANCH  13  15
HETATM   15  C10 UNL     1      -5.766   7.484   9.829  1.00  0.00     0.084 C
HETATM   16  C11 UNL     1      -7.124   6.998   9.321  1.00  0.00     0.025 C
HETATM   17  C12 UNL     1      -7.926   8.198   8.906  1.00  0.00     0.002 C
HETATM   18  C13 UNL     1      -7.029   9.368   8.519  1.00  0.00     0.000 C
HETATM   19  C14 UNL     1      -6.392   9.863   9.806  1.00  0.00     0.002 C
HETATM   20  C15 UNL     1      -6.030   8.696  10.696  1.00  0.00     0.025 C
ENDBRANCH  13  15
ENDBRANCH  10  11
ENDBRANCH   9  10
ENDBRANCH   6   9
BRANCH   1  21
HETATM   21  C2  UNL     1      -5.600   1.364  16.453  1.00  0.00     0.206 C
HETATM   22  C1  UNL     1      -5.943   1.749  17.880  1.00  0.00     0.049 C
BRANCH  21  23
HETATM   23  O1  UNL     1      -5.485  -0.040  16.369  1.00  0.00    -0.387 OA
ATOM     24  H1  UNL     1      -4.632  -0.260  16.013  1.00  0.00     0.210 HD
ENDBRANCH  21  23
ENDBRANCH   1  21
TORSDOF 6
ENDMDL