MODEL 5
REMARK VINA RESULT: -7.085755042      0.445      1.283
REMARK  5 active torsions:
REMARK  status: ('A' for Active; 'I' for Inactive)
REMARK    1  A    between atoms: C1_2  and  C2_4
REMARK    2  A    between atoms: C5_7  and  C6_8
REMARK       I    between atoms: C6_8  and  N2_10
REMARK    3  A    between atoms: N2_10  and  N3_12
REMARK    4  A    between atoms: C7_14  and  C8_15
REMARK    5  A    between atoms: C8_15  and  C9_16
ROOT
HETATM    1  C6  UNL     1      -4.220   3.361  11.900  1.00  0.00     0.240 C
HETATM    2  O2  UNL     1      -5.173   2.897  11.226  1.00  0.00    -0.271 OA
HETATM    3  N2  UNL     1      -3.409   4.363  11.313  1.00  0.00    -0.270 N
ATOM      4  H2  UNL     1      -2.631   4.750  11.847  1.00  0.00     0.190 HD
ENDROOT
BRANCH   3   5
HETATM    5  N3  UNL     1      -3.647   4.832  10.023  1.00  0.00    -0.313 N
HETATM    6  C7  UNL     1      -4.070   6.035   9.813  1.00  0.00     0.080 C
ATOM      7  H3  UNL     1      -3.485   4.213   9.228  1.00  0.00     0.185 HD
BRANCH   6   8
HETATM    8  C8  UNL     1      -4.338   6.584   8.478  1.00  0.00     0.050 C
BRANCH   8   9
HETATM    9  C9  UNL     1      -5.813   6.926   8.289  1.00  0.00    -0.010 C
HETATM   10  C10 UNL     1      -6.244   7.678   9.508  1.00  0.00     0.005 C
HETATM   11  C11 UNL     1      -7.693   7.935   9.617  1.00  0.00     0.000 C
HETATM   12  C12 UNL     1      -8.431   8.042   8.320  1.00  0.00     0.000 C
HETATM   13  C13 UNL     1      -7.911   9.071   7.385  1.00  0.00     0.000 C
HETATM   14  C14 UNL     1      -6.423   9.044   7.191  1.00  0.00     0.000 C
HETATM   15  C15 UNL     1      -5.972   7.630   6.993  1.00  0.00     0.005 C
ENDBRANCH   8   9
ENDBRANCH   6   8
ENDBRANCH   3   5
BRANCH   1  16
HETATM   16  C5  UNL     1      -3.996   2.841  13.264  1.00  0.00     0.079 C
HETATM   17  C4  UNL     1      -5.327   2.307  13.760  1.00  0.00     0.015 C
HETATM   18  C3  UNL     1      -5.683   3.051  15.025  1.00  0.00     0.014 C
HETATM   19  C2  UNL     1      -4.612   2.711  16.053  1.00  0.00     0.075 C
HETATM   20  C17 UNL     1      -3.333   3.340  15.579  1.00  0.00     0.014 C
HETATM   21  C16 UNL     1      -3.441   3.902  14.188  1.00  0.00     0.015 C
BRANCH  19  22
HETATM   22  C1  UNL     1      -4.483   1.214  16.083  1.00  0.00     0.235 C
HETATM   23  N1  UNL     1      -5.636   0.409  16.208  1.00  0.00    -0.062 NA
HETATM   24  O1  UNL     1      -3.325   0.714  15.994  1.00  0.00    -0.277 OA
ENDBRANCH  19  22
ENDBRANCH   1  16
TORSDOF 5
ENDMDL