MODEL 5
REMARK VINA RESULT: -7.410079645      1.392      1.633
REMARK  5 active torsions:
REMARK  status: ('A' for Active; 'I' for Inactive)
REMARK    1  A    between atoms: C1_2  and  C2_4
REMARK    2  A    between atoms: C2_4  and  C3_5
REMARK    3  A    between atoms: C3_5  and  C4_6
REMARK    4  A    between atoms: C4_6  and  N1_7
REMARK    5  A    between atoms: C16_19  and  C17_20
ROOT
HETATM    1  N1  UNL     1      -3.452   4.304  14.436  1.00  0.00    -0.403 N
HETATM    2  C5  UNL     1      -2.270   4.595  13.747  1.00  0.00     0.080 C
HETATM    3  C6  UNL     1      -2.333   4.450  12.241  1.00  0.00     0.025 C
HETATM    4  C7  UNL     1      -3.512   5.029  11.579  1.00  0.00     0.007 C
HETATM    5  C8  UNL     1      -4.172   6.190  12.274  1.00  0.00    -0.012 C
HETATM    6  C9  UNL     1      -3.200   7.222  12.744  1.00  0.00     0.009 C
HETATM    7  C10 UNL     1      -2.711   7.008  14.144  1.00  0.00    -0.010 C
HETATM    8  C11 UNL     1      -1.660   5.955  14.142  1.00  0.00     0.029 C
HETATM    9  C12 UNL     1      -3.779   6.612  15.103  1.00  0.00     0.029 C
HETATM   10  C13 UNL     1      -4.411   5.331  14.579  1.00  0.00     0.080 C
HETATM   11  C14 UNL     1      -5.127   5.691  13.302  1.00  0.00     0.029 C
ENDROOT
BRANCH   1  12
HETATM   12  C4  UNL     1      -3.490   3.222  15.352  1.00  0.00     0.128 C
BRANCH  12  13
HETATM   13  C3  UNL     1      -4.618   2.265  15.178  1.00  0.00    -0.001 A
HETATM   14  C15 UNL     1      -4.223   0.801  15.095  1.00  0.00     0.029 A
HETATM   15  C16 UNL     1      -4.989   1.530  13.990  1.00  0.00     0.098 A
BRANCH  13  16
HETATM   16  C2  UNL     1      -5.727   2.422  16.236  1.00  0.00     0.125 C
BRANCH  16  17
HETATM   17  C1  UNL     1      -5.894   1.165  16.962  1.00  0.00     0.173 C
HETATM   18  O1  UNL     1      -5.152   0.680  17.839  1.00  0.00    -0.648 OA
HETATM   19  O2  UNL     1      -7.033   0.367  16.660  1.00  0.00    -0.648 OA
ENDBRANCH  16  17
ENDBRANCH  13  16
BRANCH  15  20
HETATM   20  C17 UNL     1      -4.300   1.449  12.706  1.00  0.00     0.177 C
HETATM   21  O3  UNL     1      -4.928   1.662  11.606  1.00  0.00    -0.648 OA
HETATM   22  O4  UNL     1      -2.958   1.147  12.532  1.00  0.00    -0.648 OA
ENDBRANCH  15  20
ENDBRANCH  12  13
ENDBRANCH   1  12
TORSDOF 5
ENDMDL