MODEL 3
REMARK VINA RESULT: -5.799323319      5.640      8.879
REMARK  10 active torsions:
REMARK  status: ('A' for Active; 'I' for Inactive)
REMARK    1  A    between atoms: N1_2  and  C2_3
REMARK    2  A    between atoms: N1_2  and  C11_35
REMARK    3  A    between atoms: C2_3  and  C3_4
REMARK    4  A    between atoms: N2_5  and  C4_7
REMARK    5  A    between atoms: C5_10  and  N4_11
REMARK    6  A    between atoms: C7_17  and  N6_18
REMARK       I    between atoms: N6_18  and  C8_20
REMARK       I    between atoms: C8_20  and  N7_21
REMARK       I    between atoms: C8_20  and  N8_25
REMARK    7  A    between atoms: C11_35  and  C12_36
REMARK    8  A    between atoms: C12_36  and  C13_38
REMARK    9  A    between atoms: C13_38  and  O1_39
REMARK   10  A    between atoms: C13_38  and  O2_41
ROOT
HETATM    1  C4  UNL     1      24.208   7.352  14.000  1.00  0.00     0.150 A
HETATM    2  N3  UNL     1      23.669   6.136  13.903  1.00  0.00    -0.174 N
ATOM      3  H3  UNL     1      23.025   5.832  14.634  1.00  0.00     0.186 HD
HETATM    4  C5  UNL     1      23.938   5.271  12.871  1.00  0.00     0.678 A
HETATM    5  N5  UNL     1      24.776   5.606  11.877  1.00  0.00    -0.186 N
ATOM      6  H5  UNL     1      24.969   4.956  11.116  1.00  0.00     0.184 HD
HETATM    7  C6  UNL     1      25.347   6.802  11.909  1.00  0.00     0.123 A
HETATM    8  C7  UNL     1      26.201   7.126  10.870  1.00  0.00     0.135 A
HETATM    9  N9  UNL     1      26.768   8.337  10.908  1.00  0.00    -0.337 N
ATOM     10  H9  UNL     1      27.405   8.618  10.163  1.00  0.00     0.168 HD
HETATM   11  C9  UNL     1      26.504   9.205  11.935  1.00  0.00     0.182 A
HETATM   12  N10 UNL     1      25.667   8.876  12.946  1.00  0.00    -0.347 N
ATOM     13  H10 UNL     1      25.484   9.536  13.703  1.00  0.00     0.167 HD
HETATM   14  C10 UNL     1      25.085   7.678  12.938  1.00  0.00     0.109 A
ENDROOT
BRANCH   1  15
HETATM   15  N2  UNL     1      24.020   8.180  14.889  1.00  0.00    -0.352 N
HETATM   16  C3  UNL     1      23.602   8.414  16.167  1.00  0.00     0.077 C
ATOM     17  H2  UNL     1      24.297   9.083  14.506  1.00  0.00     0.166 HD
BRANCH  16  18
HETATM   18  C2  UNL     1      24.024   7.450  17.273  1.00  0.00     0.139 C
BRANCH  18  19
HETATM   19  N1  UNL     1      23.055   6.379  17.401  1.00  0.00    -0.290 NA
HETATM   20  C1  UNL     1      21.895   6.807  18.078  1.00  0.00     0.116 C
BRANCH  19  21
HETATM   21  C11 UNL     1      23.614   5.165  17.785  1.00  0.00     0.086 C
BRANCH  21  22
HETATM   22  C12 UNL     1      23.819   4.057  16.844  1.00  0.00     0.088 C
HETATM   23  N11 UNL     1      24.925   4.186  15.913  1.00  0.00    -0.101 NA
BRANCH  22  24
HETATM   24  C13 UNL     1      22.601   3.505  16.197  1.00  0.00     0.303 C
BRANCH  24  25
HETATM   25  O1  UNL     1      21.867   4.410  15.449  1.00  0.00    -0.366 OA
ATOM     26  H1  UNL     1      21.610   4.109  14.586  1.00  0.00     0.213 HD
ENDBRANCH  24  25
BRANCH  24  27
HETATM   27  O2  UNL     1      22.976   2.492  15.267  1.00  0.00    -0.366 OA
ATOM     28  H2  UNL     1      22.278   1.851  15.198  1.00  0.00     0.213 HD
ENDBRANCH  24  27
ENDBRANCH  22  24
ENDBRANCH  21  22
ENDBRANCH  19  21
ENDBRANCH  18  19
ENDBRANCH  16  18
ENDBRANCH   1  15
BRANCH   4  29
HETATM   29  N4  UNL     1      23.397   4.093  12.817  1.00  0.00    -0.234 N
ATOM     30  H42 UNL     1      22.558   3.940  13.377  1.00  0.00     0.174 HD
ATOM     31  H41 UNL     1      23.791   3.352  12.237  1.00  0.00     0.174 HD
ENDBRANCH   4  29
BRANCH   8  32
HETATM   32  N6  UNL     1      26.446   6.315   9.921  1.00  0.00    -0.325 N
HETATM   33  C8  UNL     1      27.603   5.536   9.674  1.00  0.00     0.481 C
HETATM   34  N7  UNL     1      27.767   4.569  10.744  1.00  0.00    -0.033 N
HETATM   35  N8  UNL     1      28.799   6.324   9.462  1.00  0.00    -0.033 N
ATOM     36  H73 UNL     1      27.786   5.009  11.664  1.00  0.00     0.278 HD
ATOM     37  H72 UNL     1      26.935   3.995  10.876  1.00  0.00     0.278 HD
ATOM     38  H71 UNL     1      28.599   4.007  10.567  1.00  0.00     0.278 HD
ATOM     39  H83 UNL     1      28.655   7.002   8.714  1.00  0.00     0.278 HD
ATOM     40  H82 UNL     1      28.955   6.962  10.242  1.00  0.00     0.278 HD
ATOM     41  H81 UNL     1      29.632   5.763   9.284  1.00  0.00     0.278 HD
ATOM     42  H6  UNL     1      25.698   6.210   9.236  1.00  0.00     0.165 HD
ENDBRANCH   8  32
TORSDOF 10
ENDMDL