MODEL 5
REMARK VINA RESULT: -5.184913598      2.162      6.772
REMARK  11 active torsions:
REMARK  status: ('A' for Active; 'I' for Inactive)
REMARK    1  A    between atoms: N1_1  and  C1_4
REMARK    2  A    between atoms: N5_18  and  C7_19
REMARK    3  A    between atoms: C8_23  and  C9_24
REMARK    4  A    between atoms: C9_24  and  N7_25
REMARK    5  A    between atoms: N7_25  and  C10_28
REMARK    6  A    between atoms: C10_28  and  C11_29
REMARK    7  A    between atoms: C11_29  and  N8_30
REMARK    8  A    between atoms: N8_30  and  N9_31
REMARK    9  A    between atoms: N9_31  and  N10_32
REMARK   10  A    between atoms: C12_35  and  C13_36
REMARK   11  A    between atoms: C13_36  and  O3_37
ROOT
HETATM    1  C7  UNL     1      24.125   2.344  16.961  1.00  0.00     0.441 C
HETATM    2  N6  UNL     1      23.909   3.457  16.133  1.00  0.00    -0.022 N
ATOM      3  H61 UNL     1      23.017   3.440  15.639  1.00  0.00     0.283 HD
ATOM      4  H62 UNL     1      24.501   3.478  15.303  1.00  0.00     0.283 HD
HETATM    5  C8  UNL     1      24.073   4.570  16.980  1.00  0.00     0.247 C
HETATM    6  C12 UNL     1      25.200   4.127  17.848  1.00  0.00     0.182 C
HETATM    7  O4  UNL     1      25.091   2.751  17.889  1.00  0.00    -0.334 OA
ENDROOT
BRANCH   1   8
HETATM    8  N5  UNL     1      23.004   1.840  17.708  1.00  0.00    -0.232 N
HETATM    9  C2  UNL     1      23.267   1.112  18.837  1.00  0.00     0.148 A
HETATM   10  N2  UNL     1      24.512   0.870  19.243  1.00  0.00    -0.175 N
HETATM   11  C3  UNL     1      22.232   0.610  19.580  1.00  0.00     0.093 A
HETATM   12  C1  UNL     1      24.795   0.157  20.347  1.00  0.00     0.677 A
ATOM     13  H2  UNL     1      25.285   1.243  18.692  1.00  0.00     0.186 HD
HETATM   14  N3  UNL     1      23.764  -0.329  21.064  1.00  0.00    -0.201 N
HETATM   15  C4  UNL     1      22.488  -0.131  20.727  1.00  0.00     0.127 A
ATOM     16  H3  UNL     1      23.968  -0.872  21.904  1.00  0.00     0.183 HD
HETATM   17  C5  UNL     1      20.940   0.858  19.162  1.00  0.00     0.264 A
HETATM   18  O1  UNL     1      19.990   0.392  19.851  1.00  0.00    -0.267 OA
HETATM   19  N4  UNL     1      20.746   1.577  18.048  1.00  0.00    -0.274 N
HETATM   20  C6  UNL     1      21.750   2.082  17.298  1.00  0.00     0.334 A
ATOM     21  H4  UNL     1      19.787   1.752  17.749  1.00  0.00     0.173 HD
HETATM   22  O2  UNL     1      21.482   2.758  16.246  1.00  0.00    -0.246 OA
BRANCH  12  23
HETATM   23  N1  UNL     1      26.016  -0.066  20.722  1.00  0.00    -0.234 N
ATOM     24  H12 UNL     1      26.795   0.181  20.112  1.00  0.00     0.174 HD
ATOM     25  H11 UNL     1      26.231  -0.489  21.625  1.00  0.00     0.174 HD
ENDBRANCH  12  23
ENDBRANCH   1   8
BRANCH   5  26
HETATM   26  C9  UNL     1      24.271   5.883  16.301  1.00  0.00     0.268 C
BRANCH  26  27
HETATM   27  N7  UNL     1      23.294   6.022  15.252  1.00  0.00    -0.072 N
ATOM     28  H72 UNL     1      22.852   5.133  15.017  1.00  0.00     0.277 HD
ATOM     29  H71 UNL     1      22.461   6.520  15.565  1.00  0.00     0.277 HD
BRANCH  27  30
HETATM   30  C10 UNL     1      23.910   6.651  14.099  1.00  0.00     0.249 C
BRANCH  30  31
HETATM   31  C11 UNL     1      25.026   5.781  13.534  1.00  0.00     0.159 C
BRANCH  31  32
HETATM   32  N8  UNL     1      24.502   5.026  12.394  1.00  0.00    -0.125 NA
BRANCH  32  33
HETATM   33  N9  UNL     1      23.401   4.256  12.769  1.00  0.00    -0.039 NA
BRANCH  33  34
HETATM   34  N10 UNL     1      23.378   3.090  11.994  1.00  0.00    -0.332 N
ATOM     35 2H10 UNL     1      22.810   2.959  11.158  1.00  0.00     0.173 HD
ATOM     36 1H10 UNL     1      24.017   2.408  12.405  1.00  0.00     0.173 HD
ENDBRANCH  33  34
ENDBRANCH  32  33
ENDBRANCH  31  32
ENDBRANCH  30  31
ENDBRANCH  27  30
ENDBRANCH  26  27
ENDBRANCH   5  26
BRANCH   6  37
HETATM   37  C13 UNL     1      26.563   4.465  17.314  1.00  0.00     0.198 C
BRANCH  37  38
HETATM   38  O3  UNL     1      26.950   3.568  16.313  1.00  0.00    -0.398 OA
ATOM     39  H3  UNL     1      26.412   2.784  16.328  1.00  0.00     0.209 HD
ENDBRANCH  37  38
ENDBRANCH   6  37
TORSDOF 11
ENDMDL