MODEL 4
REMARK VINA RESULT: -4.422007994      4.740      9.034
REMARK  14 active torsions:
REMARK  status: ('A' for Active; 'I' for Inactive)
REMARK    1  A    between atoms: N1_1  and  N2_4
REMARK    2  A    between atoms: C1_6  and  C2_7
REMARK    3  A    between atoms: C1_6  and  N4_11
REMARK    4  A    between atoms: C2_7  and  N3_8
REMARK    5  A    between atoms: N4_11  and  C3_13
REMARK    6  A    between atoms: C4_14  and  C5_15
REMARK    7  A    between atoms: C5_15  and  N5_16
REMARK    8  A    between atoms: C5_15  and  C6_20
REMARK    9  A    between atoms: C6_20  and  O3_21
REMARK   10  A    between atoms: C7_25  and  N7_26
REMARK   11  A    between atoms: N7_26  and  C8_27
REMARK   12  A    between atoms: C8_27  and  C9_28
REMARK   13  A    between atoms: C9_28  and  O4_29
REMARK   14  A    between atoms: C10_33  and  N9_34
REMARK       I    between atoms: N9_34  and  C11_36
REMARK       I    between atoms: C11_36  and  N10_37
REMARK       I    between atoms: C11_36  and  N11_41
ROOT
HETATM    1  C3  UNL     1      21.937  -3.755  21.041  1.00  0.00     0.103 A
HETATM    2  C4  UNL     1      22.738  -3.365  19.993  1.00  0.00     0.076 A
HETATM    3  N6  UNL     1      22.730  -2.125  19.612  1.00  0.00    -0.316 N
ATOM      4  H6  UNL     1      23.322  -1.844  18.832  1.00  0.00     0.170 HD
HETATM    5  C7  UNL     1      21.945  -1.176  20.230  1.00  0.00     0.255 A
HETATM    6  N8  UNL     1      21.155  -1.575  21.289  1.00  0.00    -0.301 N
ATOM      7  H8  UNL     1      20.574  -0.882  21.762  1.00  0.00     0.171 HD
HETATM    8  C10 UNL     1      21.131  -2.801  21.700  1.00  0.00     0.136 A
ENDROOT
BRANCH   1   9
HETATM    9  N4  UNL     1      21.838  -5.127  21.446  1.00  0.00    -0.339 N
ATOM     10  H4  UNL     1      22.541  -5.483  22.095  1.00  0.00     0.167 HD
BRANCH   9  11
HETATM   11  C1  UNL     1      20.829  -6.023  21.006  1.00  0.00     0.120 C
HETATM   12  N2  UNL     1      20.554  -6.038  19.720  1.00  0.00    -0.294 N
ATOM     13  H2  UNL     1      21.095  -5.426  19.108  1.00  0.00     0.187 HD
BRANCH  12  14
HETATM   14  N1  UNL     1      19.583  -6.828  19.149  1.00  0.00    -0.344 N
ATOM     15  H12 UNL     1      18.840  -6.350  18.639  1.00  0.00     0.176 HD
ATOM     16  H11 UNL     1      19.568  -7.846  19.208  1.00  0.00     0.176 HD
ENDBRANCH  12  14
BRANCH  11  17
HETATM   17  C2  UNL     1      20.005  -6.935  21.833  1.00  0.00     0.278 C
BRANCH  17  18
HETATM   18  N3  UNL     1      18.841  -6.229  22.288  1.00  0.00    -0.148 N
HETATM   19  O1  UNL     1      17.821  -6.172  21.542  1.00  0.00    -0.536 OA
HETATM   20  O2  UNL     1      18.833  -5.615  23.540  1.00  0.00    -0.536 OA
ENDBRANCH  17  18
ENDBRANCH  11  17
ENDBRANCH   9  11
ENDBRANCH   1   9
BRANCH   2  21
HETATM   21  C5  UNL     1      23.654  -4.329  19.281  1.00  0.00     0.258 C
BRANCH  21  22
HETATM   22  N5  UNL     1      25.041  -4.069  19.446  1.00  0.00    -0.068 N
ATOM     23  H53 UNL     1      25.593  -4.769  18.950  1.00  0.00     0.275 HD
ATOM     24  H52 UNL     1      25.307  -3.233  18.925  1.00  0.00     0.275 HD
ATOM     25  H51 UNL     1      25.352  -3.995  20.415  1.00  0.00     0.275 HD
ENDBRANCH  21  22
BRANCH  21  26
HETATM   26  C6  UNL     1      23.353  -4.141  17.767  1.00  0.00     0.203 C
BRANCH  26  27
HETATM   27  O3  UNL     1      22.285  -4.973  17.385  1.00  0.00    -0.398 OA
ATOM     28  H3  UNL     1      22.015  -4.764  16.498  1.00  0.00     0.209 HD
ENDBRANCH  26  27
ENDBRANCH  21  26
ENDBRANCH   2  21
BRANCH   8  29
HETATM   29  N9  UNL     1      20.452  -3.177  22.708  1.00  0.00    -0.325 N
HETATM   30  C11 UNL     1      20.838  -3.023  24.102  1.00  0.00     0.481 C
HETATM   31  N10 UNL     1      21.502  -4.271  24.559  1.00  0.00    -0.033 N
HETATM   32  N11 UNL     1      19.642  -2.838  24.875  1.00  0.00    -0.033 N
ATOM     33 3H10 UNL     1      20.925  -5.098  24.405  1.00  0.00     0.278 HD
ATOM     34 2H10 UNL     1      22.289  -4.534  23.965  1.00  0.00     0.278 HD
ATOM     35 1H10 UNL     1      21.773  -4.164  25.536  1.00  0.00     0.278 HD
ATOM     36 3H11 UNL     1      19.069  -2.065  24.536  1.00  0.00     0.278 HD
ATOM     37 2H11 UNL     1      18.961  -3.583  24.735  1.00  0.00     0.278 HD
ATOM     38 1H11 UNL     1      19.913  -2.730  25.853  1.00  0.00     0.278 HD
ATOM     39  H9  UNL     1      19.556  -3.628  22.523  1.00  0.00     0.165 HD
ENDBRANCH   8  29
BRANCH   5  40
HETATM   40  N7  UNL     1      21.839  -0.036  19.816  1.00  0.00    -0.413 NA
BRANCH  40  41
HETATM   41  C8  UNL     1      21.718   1.206  19.354  1.00  0.00     0.247 C
BRANCH  41  42
HETATM   42  C9  UNL     1      20.401   1.477  18.547  1.00  0.00     0.197 C
BRANCH  42  43
HETATM   43  O4  UNL     1      20.421   0.655  17.429  1.00  0.00    -0.398 OA
ATOM     44  H4  UNL     1      20.892   1.116  16.744  1.00  0.00     0.209 HD
ENDBRANCH  42  43
ENDBRANCH  41  42
ENDBRANCH  40  41
ENDBRANCH   5  40
TORSDOF 14
ENDMDL