MODEL 2
REMARK VINA RESULT: -4.650029593      6.561     10.281
REMARK  15 active torsions:
REMARK  status: ('A' for Active; 'I' for Inactive)
REMARK    1  A    between atoms: N1_1  and  C1_5
REMARK    2  A    between atoms: C1_5  and  C2_6
REMARK    3  A    between atoms: C3_8  and  O2_9
REMARK    4  A    between atoms: O2_9  and  C4_10
REMARK    5  A    between atoms: C6_12  and  C7_13
REMARK    6  A    between atoms: C6_12  and  C8_18
REMARK    7  A    between atoms: C7_13  and  N2_14
REMARK    8  A    between atoms: C8_18  and  N3_19
REMARK    9  A    between atoms: N3_19  and  C9_22
REMARK   10  A    between atoms: C9_22  and  C10_23
REMARK   11  A    between atoms: C10_23  and  O3_24
REMARK   12  A    between atoms: O3_24  and  N4_25
REMARK   13  A    between atoms: C11_28  and  N5_29
REMARK   14  A    between atoms: C13_34  and  N6_35
REMARK   15  A    between atoms: C14_42  and  O4_43
ROOT
HETATM    1  C4  UNL     1      22.953   5.686  16.150  1.00  0.00     0.157 C
HETATM    2  C5  UNL     1      24.211   5.017  15.758  1.00  0.00     0.049 C
HETATM    3  C6  UNL     1      25.064   5.743  14.774  1.00  0.00     0.037 C
HETATM    4  C11 UNL     1      24.959   7.235  14.825  1.00  0.00     0.197 C
HETATM    5  C12 UNL     1      23.584   7.753  15.074  1.00  0.00     0.069 C
HETATM    6  C13 UNL     1      23.081   7.177  16.367  1.00  0.00     0.214 C
ENDROOT
BRANCH   1   7
HETATM    7  O2  UNL     1      22.538   5.151  17.391  1.00  0.00    -0.331 OA
BRANCH   7   8
HETATM    8  C3  UNL     1      22.783   3.787  17.465  1.00  0.00     0.473 C
HETATM    9  O1  UNL     1      21.574   3.097  17.377  1.00  0.00    -0.327 OA
HETATM   10  C2  UNL     1      21.787   1.842  17.947  1.00  0.00     0.208 C
HETATM   11  C14 UNL     1      23.057   1.951  18.730  1.00  0.00     0.355 C
HETATM   12  N7  UNL     1      23.256   3.398  18.781  1.00  0.00     0.004 N
ATOM     13  H72 UNL     1      24.200   3.703  19.016  1.00  0.00     0.286 HD
ATOM     14  H71 UNL     1      22.810   3.874  19.566  1.00  0.00     0.286 HD
BRANCH  10  15
HETATM   15  C1  UNL     1      20.584   1.525  18.793  1.00  0.00     0.266 C
BRANCH  15  16
HETATM   16  N1  UNL     1      20.469   0.159  19.167  1.00  0.00    -0.077 N
ATOM     17  H13 UNL     1      21.154  -0.405  18.665  1.00  0.00     0.274 HD
ATOM     18  H12 UNL     1      20.798   0.024  20.123  1.00  0.00     0.274 HD
ATOM     19  H11 UNL     1      19.535  -0.234  19.055  1.00  0.00     0.274 HD
ENDBRANCH  15  16
ENDBRANCH  10  15
BRANCH  11  20
HETATM   20  O4  UNL     1      23.008   1.383  19.979  1.00  0.00    -0.368 OA
ATOM     21  H4  UNL     1      23.232   0.460  20.004  1.00  0.00     0.212 HD
ENDBRANCH  11  20
ENDBRANCH   7   8
ENDBRANCH   1   7
BRANCH   6  22
HETATM   22  N6  UNL     1      21.739   7.670  16.684  1.00  0.00    -0.072 N
ATOM     23  H63 UNL     1      21.344   8.259  15.951  1.00  0.00     0.274 HD
ATOM     24  H62 UNL     1      21.026   6.941  16.660  1.00  0.00     0.274 HD
ATOM     25  H61 UNL     1      21.807   8.139  17.587  1.00  0.00     0.274 HD
ENDBRANCH   6  22
BRANCH   3  26
HETATM   26  C7  UNL     1      26.509   5.396  15.077  1.00  0.00     0.243 C
BRANCH  26  27
HETATM   27  N2  UNL     1      26.646   4.383  16.085  1.00  0.00    -0.079 N
ATOM     28  H23 UNL     1      27.591   4.379  16.470  1.00  0.00     0.274 HD
ATOM     29  H22 UNL     1      26.124   4.633  16.925  1.00  0.00     0.274 HD
ATOM     30  H21 UNL     1      26.384   3.454  15.758  1.00  0.00     0.274 HD
ENDBRANCH  26  27
ENDBRANCH   3  26
BRANCH   3  31
HETATM   31  C8  UNL     1      24.792   5.267  13.362  1.00  0.00     0.245 C
BRANCH  31  32
HETATM   32  N3  UNL     1      25.998   5.173  12.602  1.00  0.00    -0.072 N
ATOM     33  H32 UNL     1      26.777   5.648  13.055  1.00  0.00     0.277 HD
ATOM     34  H31 UNL     1      26.382   4.229  12.605  1.00  0.00     0.277 HD
BRANCH  32  35
HETATM   35  C9  UNL     1      25.761   5.665  11.256  1.00  0.00     0.260 C
BRANCH  35  36
HETATM   36  C10 UNL     1      25.371   7.128  11.273  1.00  0.00     0.228 C
BRANCH  36  37
HETATM   37  O3  UNL     1      24.362   7.386  10.326  1.00  0.00    -0.286 OA
BRANCH  37  38
HETATM   38  N4  UNL     1      23.179   7.472  10.939  1.00  0.00    -0.311 N
ATOM     39  H42 UNL     1      23.041   7.868  11.869  1.00  0.00     0.184 HD
ATOM     40  H41 UNL     1      22.451   7.087  10.338  1.00  0.00     0.184 HD
ENDBRANCH  37  38
ENDBRANCH  36  37
ENDBRANCH  35  36
ENDBRANCH  32  35
ENDBRANCH  31  32
ENDBRANCH   3  31
BRANCH   4  41
HETATM   41  N5  UNL     1      25.890   7.815  15.775  1.00  0.00    -0.074 N
ATOM     42  H53 UNL     1      26.594   7.136  16.064  1.00  0.00     0.274 HD
ATOM     43  H52 UNL     1      26.500   8.498  15.325  1.00  0.00     0.274 HD
ATOM     44  H51 UNL     1      25.414   8.219  16.581  1.00  0.00     0.274 HD
ENDBRANCH   4  41
TORSDOF 15
ENDMDL