MODEL 1
REMARK VINA RESULT: -4.973145562      0.000      0.000
REMARK  14 active torsions:
REMARK  status: ('A' for Active; 'I' for Inactive)
REMARK    1  A    between atoms: N1_1  and  C1_4
REMARK    2  A    between atoms: C2_7  and  C3_8
REMARK       I    between atoms: C3_8  and  N3_10
REMARK    3  A    between atoms: N3_10  and  N4_12
REMARK    4  A    between atoms: C4_15  and  S1_16
REMARK    5  A    between atoms: S1_16  and  N5_19
REMARK    6  A    between atoms: N5_19  and  C5_21
REMARK    7  A    between atoms: C5_21  and  C6_22
REMARK    8  A    between atoms: C5_21  and  C7_25
REMARK    9  A    between atoms: C6_22  and  O4_23
REMARK   10  A    between atoms: C7_25  and  O5_26
REMARK   11  A    between atoms: C7_25  and  N6_28
REMARK   12  A    between atoms: N6_28  and  C8_30
REMARK   13  A    between atoms: C8_30  and  C9_31
REMARK   14  A    between atoms: C9_31  and  O6_32
ROOT
HETATM    1  C1  UNL     1      23.210   8.275  16.655  1.00  0.00     0.676 A
HETATM    2  N2  UNL     1      22.926   7.296  15.803  1.00  0.00    -0.185 N
ATOM      3  H2  UNL     1      22.279   7.495  15.039  1.00  0.00     0.184 HD
HETATM    4  C2  UNL     1      23.458   6.027  15.894  1.00  0.00     0.143 A
HETATM    5  C4  UNL     1      24.331   5.745  16.914  1.00  0.00     0.128 A
HETATM    6  C10 UNL     1      24.615   6.778  17.794  1.00  0.00     0.134 A
HETATM    7  N7  UNL     1      24.058   7.990  17.644  1.00  0.00    -0.201 N
ATOM      8  H7  UNL     1      24.293   8.723  18.313  1.00  0.00     0.183 HD
ENDROOT
BRANCH   5   9
HETATM    9  S1  UNL     1      25.024   4.179  17.062  1.00  0.00     0.263 S
HETATM   10  O2  UNL     1      26.117   4.034  16.005  1.00  0.00    -0.200 OA
HETATM   11  O3  UNL     1      25.670   4.028  18.435  1.00  0.00    -0.200 OA
BRANCH   9  12
HETATM   12  N5  UNL     1      23.992   2.851  16.819  1.00  0.00    -0.304 N
ATOM     13  H5  UNL     1      23.834   2.468  15.887  1.00  0.00     0.173 HD
BRANCH  12  14
HETATM   14  C5  UNL     1      23.353   2.290  17.969  1.00  0.00     0.164 C
BRANCH  14  15
HETATM   15  C6  UNL     1      21.879   2.523  17.889  1.00  0.00     0.194 C
BRANCH  15  16
HETATM   16  O4  UNL     1      21.454   2.234  16.592  1.00  0.00    -0.399 OA
ATOM     17  H4  UNL     1      21.607   2.997  16.047  1.00  0.00     0.209 HD
ENDBRANCH  15  16
ENDBRANCH  14  15
BRANCH  14  18
HETATM   18  C7  UNL     1      23.608   0.736  17.917  1.00  0.00     0.239 C
BRANCH  18  19
HETATM   19  O5  UNL     1      24.059   0.449  16.673  1.00  0.00    -0.375 OA
ATOM     20  H5  UNL     1      24.486  -0.398  16.720  1.00  0.00     0.212 HD
ENDBRANCH  18  19
BRANCH  18  21
HETATM   21  N6  UNL     1      22.445   0.101  18.393  1.00  0.00    -0.393 N
ATOM     22  H6  UNL     1      21.587   0.083  17.841  1.00  0.00     0.155 HD
BRANCH  21  23
HETATM   23  C8  UNL     1      22.512  -0.510  19.669  1.00  0.00     0.142 C
BRANCH  23  24
HETATM   24  C9  UNL     1      21.234  -0.365  20.443  1.00  0.00     0.183 C
BRANCH  24  25
HETATM   25  O6  UNL     1      20.177  -0.081  19.618  1.00  0.00    -0.399 OA
ATOM     26  H6  UNL     1      19.695   0.679  19.920  1.00  0.00     0.209 HD
ENDBRANCH  24  25
ENDBRANCH  23  24
ENDBRANCH  21  23
ENDBRANCH  18  21
ENDBRANCH  14  18
ENDBRANCH  12  14
ENDBRANCH   9  12
ENDBRANCH   5   9
BRANCH   4  27
HETATM   27  C3  UNL     1      23.002   5.126  14.865  1.00  0.00     0.288 C
HETATM   28  O1  UNL     1      21.962   4.481  14.908  1.00  0.00    -0.264 OA
HETATM   29  N3  UNL     1      23.801   4.937  13.673  1.00  0.00    -0.271 N
ATOM     30  H3  UNL     1      24.680   5.446  13.578  1.00  0.00     0.189 HD
BRANCH  29  31
HETATM   31  N4  UNL     1      23.401   4.077  12.653  1.00  0.00    -0.342 N
ATOM     32  H42 UNL     1      22.422   3.791  12.621  1.00  0.00     0.176 HD
ATOM     33  H41 UNL     1      24.058   3.736  11.952  1.00  0.00     0.176 HD
ENDBRANCH  29  31
ENDBRANCH   4  27
BRANCH   1  34
HETATM   34  N1  UNL     1      22.682   9.466  16.531  1.00  0.00    -0.234 N
ATOM     35  H12 UNL     1      21.674   9.594  16.440  1.00  0.00     0.174 HD
ATOM     36  H11 UNL     1      23.259  10.307  16.523  1.00  0.00     0.174 HD
ENDBRANCH   1  34
TORSDOF 14
ENDMDL