MODEL 4
REMARK VINA RESULT: -4.983210173      2.297      4.709
REMARK  11 active torsions:
REMARK  status: ('A' for Active; 'I' for Inactive)
REMARK       I    between atoms: C1_4  and  N3_6
REMARK    1  A    between atoms: N3_6  and  C2_8
REMARK    2  A    between atoms: C2_8  and  C3_9
REMARK    3  A    between atoms: C3_9  and  C4_10
REMARK    4  A    between atoms: C4_10  and  C5_11
REMARK    5  A    between atoms: C5_11  and  N4_12
REMARK    6  A    between atoms: N4_12  and  C6_14
REMARK    7  A    between atoms: C7_17  and  N6_18
REMARK       I    between atoms: N6_18  and  C8_20
REMARK       I    between atoms: C8_20  and  N7_21
REMARK       I    between atoms: C8_20  and  N8_25
REMARK    8  A    between atoms: N10_33  and  C10_34
REMARK    9  A    between atoms: C10_34  and  O2_35
REMARK   10  A    between atoms: O2_35  and  C11_36
REMARK       I    between atoms: C11_36  and  N11_38
REMARK   11  A    between atoms: N11_38  and  N12_40
ROOT
HETATM    1  C6  UNL     1      22.857   0.875  19.595  1.00  0.00     0.700 A
HETATM    2  N5  UNL     1      22.885  -0.235  20.369  1.00  0.00    -0.022 N
ATOM      3  H5  UNL     1      23.781  -0.536  20.750  1.00  0.00     0.203 HD
HETATM    4  C7  UNL     1      21.795  -0.959  20.661  1.00  0.00     0.699 A
HETATM    5  N9  UNL     1      20.612  -0.576  20.166  1.00  0.00    -0.140 N
ATOM      6  H9  UNL     1      19.767  -1.110  20.371  1.00  0.00     0.189 HD
HETATM    7  C9  UNL     1      20.552   0.539  19.382  1.00  0.00     0.356 A
HETATM    8  O1  UNL     1      19.417   0.860  18.940  1.00  0.00    -0.245 OA
HETATM    9  N10 UNL     1      21.655   1.251  19.102  1.00  0.00    -0.109 N
ENDROOT
BRANCH   1  10
HETATM   10  N4  UNL     1      23.919   1.558  19.327  1.00  0.00    -0.225 N
ATOM     11  H4  UNL     1      23.939   2.572  19.436  1.00  0.00     0.177 HD
BRANCH  10  12
HETATM   12  C5  UNL     1      25.083   0.828  18.865  1.00  0.00     0.138 C
BRANCH  12  13
HETATM   13  C4  UNL     1      24.798   0.071  17.588  1.00  0.00     0.022 C
BRANCH  13  14
HETATM   14  C3  UNL     1      25.477  -1.287  17.660  1.00  0.00     0.021 C
BRANCH  14  15
HETATM   15  C2  UNL     1      24.507  -2.301  17.093  1.00  0.00     0.122 C
BRANCH  15  16
HETATM   16  N3  UNL     1      23.444  -2.597  18.017  1.00  0.00    -0.365 N
HETATM   17  C1  UNL     1      23.100  -3.932  18.299  1.00  0.00     0.181 C
HETATM   18  N1  UNL     1      22.711  -4.645  17.272  1.00  0.00    -0.374 N
HETATM   19  N2  UNL     1      23.152  -4.509  19.582  1.00  0.00    -0.064 NA
ATOM     20  H12 UNL     1      22.461  -5.613  17.476  1.00  0.00     0.158 HD
ATOM     21  H11 UNL     1      22.674  -4.226  16.342  1.00  0.00     0.158 HD
ATOM     22  H3  UNL     1      22.938  -1.836  18.470  1.00  0.00     0.162 HD
ENDBRANCH  15  16
ENDBRANCH  14  15
ENDBRANCH  13  14
ENDBRANCH  12  13
ENDBRANCH  10  12
ENDBRANCH   1  10
BRANCH   9  23
HETATM   23  C10 UNL     1      21.568   2.447  18.258  1.00  0.00     0.335 C
BRANCH  23  24
HETATM   24  O2  UNL     1      22.040   2.139  16.954  1.00  0.00    -0.282 OA
BRANCH  24  25
HETATM   25  C11 UNL     1      22.790   3.026  16.221  1.00  0.00     0.380 C
HETATM   26  O3  UNL     1      23.944   3.318  16.592  1.00  0.00    -0.237 OA
HETATM   27  N11 UNL     1      22.255   3.601  15.052  1.00  0.00    -0.252 N
ATOM     28  H11 UNL     1      21.312   3.363  14.746  1.00  0.00     0.191 HD
BRANCH  27  29
HETATM   29  N12 UNL     1      23.030   4.500  14.318  1.00  0.00    -0.341 N
ATOM     30 2H12 UNL     1      23.676   4.146  13.613  1.00  0.00     0.177 HD
ATOM     31 1H12 UNL     1      22.938   5.500  14.500  1.00  0.00     0.177 HD
ENDBRANCH  27  29
ENDBRANCH  24  25
ENDBRANCH  23  24
ENDBRANCH   9  23
BRANCH   4  32
HETATM   32  N6  UNL     1      21.885  -2.005  21.402  1.00  0.00    -0.173 N
HETATM   33  C8  UNL     1      20.811  -2.884  21.733  1.00  0.00     0.494 C
HETATM   34  N7  UNL     1      20.174  -2.365  22.954  1.00  0.00    -0.032 N
HETATM   35  N8  UNL     1      21.356  -4.196  22.119  1.00  0.00    -0.032 N
ATOM     36  H73 UNL     1      20.833  -2.235  23.722  1.00  0.00     0.278 HD
ATOM     37  H72 UNL     1      19.880  -1.392  22.866  1.00  0.00     0.278 HD
ATOM     38  H71 UNL     1      19.406  -2.993  23.191  1.00  0.00     0.278 HD
ATOM     39  H83 UNL     1      21.968  -4.586  21.403  1.00  0.00     0.278 HD
ATOM     40  H82 UNL     1      22.042  -4.123  22.871  1.00  0.00     0.278 HD
ATOM     41  H81 UNL     1      20.588  -4.825  22.356  1.00  0.00     0.278 HD
ATOM     42  H6  UNL     1      22.803  -2.226  21.787  1.00  0.00     0.181 HD
ENDBRANCH   4  32
TORSDOF 11
ENDMDL