MODEL 4
REMARK VINA RESULT: -4.308837200      7.785     11.611
REMARK  14 active torsions:
REMARK  status: ('A' for Active; 'I' for Inactive)
REMARK    1  A    between atoms: N1_1  and  N2_4
REMARK       I    between atoms: N2_4  and  C1_6
REMARK    2  A    between atoms: C1_6  and  C2_8
REMARK    3  A    between atoms: C3_9  and  C4_10
REMARK    4  A    between atoms: C4_10  and  N3_11
REMARK    5  A    between atoms: C4_10  and  C5_15
REMARK    6  A    between atoms: C5_15  and  C6_17
REMARK    7  A    between atoms: C6_17  and  O3_18
REMARK    8  A    between atoms: C7_22  and  C8_23
REMARK    9  A    between atoms: C9_28  and  N7_29
REMARK   10  A    between atoms: N7_29  and  C10_30
REMARK   11  A    between atoms: N7_29  and  N8_34
REMARK   12  A    between atoms: C10_30  and  C11_31
REMARK   13  A    between atoms: C11_31  and  O5_32
REMARK   14  A    between atoms: N8_34  and  N9_35
ROOT
HETATM    1  C2  UNL     1      22.682  -2.376  20.409  1.00  0.00     0.104 A
HETATM    2  C3  UNL     1      23.165  -1.651  19.347  1.00  0.00     0.068 A
HETATM    3  N4  UNL     1      22.508  -0.529  18.898  1.00  0.00    -0.339 N
ATOM      4  H4  UNL     1      22.891  -0.009  18.108  1.00  0.00     0.167 HD
HETATM    5  C7  UNL     1      21.387  -0.108  19.472  1.00  0.00     0.173 A
HETATM    6  N6  UNL     1      20.901  -0.804  20.506  1.00  0.00    -0.323 N
ATOM      7  H6  UNL     1      20.040  -0.486  20.950  1.00  0.00     0.169 HD
HETATM    8  C9  UNL     1      21.501  -1.901  20.982  1.00  0.00     0.140 A
ENDROOT
BRANCH   2   9
HETATM    9  C4  UNL     1      24.367  -2.043  18.588  1.00  0.00     0.305 C
BRANCH   9  10
HETATM   10  N3  UNL     1      25.209  -0.854  18.413  1.00  0.00    -0.063 N
ATOM     11  H33 UNL     1      24.682   0.016  18.493  1.00  0.00     0.275 HD
ATOM     12  H32 UNL     1      25.844  -0.704  19.196  1.00  0.00     0.275 HD
ATOM     13  H31 UNL     1      25.698  -0.936  17.522  1.00  0.00     0.275 HD
ENDBRANCH   9  10
BRANCH   9  14
HETATM   14  C5  UNL     1      23.889  -2.454  17.193  1.00  0.00     0.186 C
HETATM   15  O2  UNL     1      23.892  -1.637  16.316  1.00  0.00    -0.293 OA
BRANCH  14  16
HETATM   16  C6  UNL     1      23.434  -3.841  16.952  1.00  0.00     0.245 C
BRANCH  16  17
HETATM   17  O3  UNL     1      22.395  -3.837  16.051  1.00  0.00    -0.394 OA
ATOM     18  H3  UNL     1      21.713  -3.250  16.354  1.00  0.00     0.209 HD
ENDBRANCH  16  17
ENDBRANCH  14  16
ENDBRANCH   9  14
ENDBRANCH   2   9
BRANCH   1  19
HETATM   19  C1  UNL     1      23.352  -3.506  21.023  1.00  0.00     0.275 C
HETATM   20  N2  UNL     1      24.035  -3.460  22.260  1.00  0.00    -0.272 N
ATOM     21  H2  UNL     1      24.077  -2.589  22.789  1.00  0.00     0.189 HD
HETATM   22  O1  UNL     1      23.365  -4.659  20.475  1.00  0.00    -0.266 OA
BRANCH  20  23
HETATM   23  N1  UNL     1      24.669  -4.645  22.767  1.00  0.00    -0.342 N
ATOM     24  H12 UNL     1      25.683  -4.659  22.875  1.00  0.00     0.176 HD
ATOM     25  H11 UNL     1      24.101  -5.456  23.013  1.00  0.00     0.176 HD
ENDBRANCH  20  23
ENDBRANCH   1  19
BRANCH   8  26
HETATM   26  N7  UNL     1      20.910  -2.634  22.058  1.00  0.00    -0.258 N
BRANCH  26  27
HETATM   27  C10 UNL     1      19.925  -3.615  21.703  1.00  0.00     0.174 C
BRANCH  27  28
HETATM   28  C11 UNL     1      20.295  -5.037  22.008  1.00  0.00     0.185 C
BRANCH  28  29
HETATM   29  O5  UNL     1      21.396  -5.139  22.839  1.00  0.00    -0.399 OA
ATOM     30  H5  UNL     1      21.385  -5.925  23.371  1.00  0.00     0.209 HD
ENDBRANCH  28  29
ENDBRANCH  27  28
ENDBRANCH  26  27
BRANCH  26  31
HETATM   31  N8  UNL     1      21.252  -2.391  23.371  1.00  0.00    -0.026 NA
BRANCH  31  32
HETATM   32  N9  UNL     1      20.176  -2.487  24.268  1.00  0.00    -0.328 N
ATOM     33  H92 UNL     1      19.581  -3.314  24.315  1.00  0.00     0.174 HD
ATOM     34  H91 UNL     1      20.051  -1.663  24.855  1.00  0.00     0.174 HD
ENDBRANCH  31  32
ENDBRANCH  26  31
ENDBRANCH   8  26
BRANCH   5  35
HETATM   35  C8  UNL     1      20.717   1.093  18.964  1.00  0.00     0.298 C
HETATM   36  N5  UNL     1      21.508   2.118  18.404  1.00  0.00    -0.054 NA
HETATM   37  O4  UNL     1      19.469   1.138  19.058  1.00  0.00    -0.268 OA
ENDBRANCH   5  35
TORSDOF 14
ENDMDL