MODEL 3
REMARK VINA RESULT: -5.693074786      3.089      5.172
REMARK  14 active torsions:
REMARK  status: ('A' for Active; 'I' for Inactive)
REMARK    1  A    between atoms: C2_7  and  C3_8
REMARK    2  A    between atoms: C3_8  and  N3_9
REMARK    3  A    between atoms: N3_9  and  O1_10
REMARK    4  A    between atoms: N3_9  and  C4_12
REMARK    5  A    between atoms: C4_12  and  C5_13
REMARK       I    between atoms: C5_13  and  N4_15
REMARK    6  A    between atoms: N4_15  and  O3_17
REMARK    7  A    between atoms: O3_17  and  C6_18
REMARK    8  A    between atoms: C7_22  and  N6_23
REMARK    9  A    between atoms: C8_28  and  C9_29
REMARK   10  A    between atoms: C9_29  and  N7_30
REMARK   11  A    between atoms: C10_34  and  N8_35
REMARK   12  A    between atoms: N8_35  and  C11_37
REMARK   13  A    between atoms: C11_37  and  C12_38
REMARK   14  A    between atoms: C12_38  and  O5_39
ROOT
HETATM    1  N1  UNL     1      18.984  -4.251  22.243  1.00  0.00    -0.234 N
ATOM      2  H11 UNL     1      18.666  -5.217  22.166  1.00  0.00     0.174 HD
ATOM      3  H12 UNL     1      18.452  -3.592  22.811  1.00  0.00     0.174 HD
HETATM    4  C1  UNL     1      20.050  -3.906  21.616  1.00  0.00     0.677 A
HETATM    5  N2  UNL     1      20.478  -2.605  21.720  1.00  0.00    -0.194 N
ATOM      6  H2  UNL     1      19.950  -1.942  22.287  1.00  0.00     0.184 HD
HETATM    7  C2  UNL     1      21.583  -2.201  21.084  1.00  0.00     0.053 A
HETATM    8  C8  UNL     1      22.304  -3.123  20.306  1.00  0.00     0.036 A
HETATM    9  C10 UNL     1      21.851  -4.413  20.222  1.00  0.00     0.127 A
HETATM   10  N9  UNL     1      20.750  -4.773  20.869  1.00  0.00    -0.177 N
ATOM     11  H9  UNL     1      20.426  -5.738  20.796  1.00  0.00     0.186 HD
ENDROOT
BRANCH   7  12
HETATM   12  C3  UNL     1      22.063  -0.821  21.198  1.00  0.00     0.179 C
BRANCH  12  13
HETATM   13  N3  UNL     1      21.411   0.090  20.326  1.00  0.00    -0.185 NA
BRANCH  13  14
HETATM   14  O1  UNL     1      20.371  -0.447  19.646  1.00  0.00    -0.312 OA
ATOM     15  H1  UNL     1      20.423  -0.331  18.704  1.00  0.00     0.237 HD
ENDBRANCH  13  14
BRANCH  13  16
HETATM   16  C4  UNL     1      22.266   0.881  19.514  1.00  0.00     0.225 C
BRANCH  16  17
HETATM   17  C5  UNL     1      21.540   1.651  18.487  1.00  0.00     0.256 C
HETATM   18  O2  UNL     1      20.353   2.021  18.539  1.00  0.00    -0.270 OA
HETATM   19  N4  UNL     1      22.271   2.009  17.313  1.00  0.00    -0.229 N
ATOM     20  H4  UNL     1      23.247   1.724  17.230  1.00  0.00     0.197 HD
BRANCH  19  21
HETATM   21  O3  UNL     1      21.705   2.714  16.308  1.00  0.00    -0.215 OA
BRANCH  21  22
HETATM   22  C6  UNL     1      22.640   3.631  15.846  1.00  0.00     0.500 C
HETATM   23  N5  UNL     1      23.077   3.293  14.499  1.00  0.00     0.029 N
HETATM   24  C7  UNL     1      22.900   4.726  14.227  1.00  0.00     0.530 C
ATOM     25  H52 UNL     1      23.955   2.807  14.317  1.00  0.00     0.288 HD
ATOM     26  H51 UNL     1      22.619   2.571  13.942  1.00  0.00     0.288 HD
HETATM   27  O4  UNL     1      22.040   4.802  15.350  1.00  0.00    -0.282 OA
BRANCH  24  28
HETATM   28  N6  UNL     1      24.124   5.426  14.566  1.00  0.00    -0.027 N
ATOM     29  H63 UNL     1      24.906   4.789  14.718  1.00  0.00     0.279 HD
ATOM     30  H62 UNL     1      24.510   5.941  13.774  1.00  0.00     0.279 HD
ATOM     31  H61 UNL     1      23.951   6.028  15.372  1.00  0.00     0.279 HD
ENDBRANCH  24  28
ENDBRANCH  21  22
ENDBRANCH  19  21
ENDBRANCH  16  17
ENDBRANCH  13  16
ENDBRANCH  12  13
ENDBRANCH   7  12
BRANCH   8  32
HETATM   32  C9  UNL     1      23.509  -2.612  19.630  1.00  0.00     0.274 C
BRANCH  32  33
HETATM   33  N7  UNL     1      23.357  -2.344  18.249  1.00  0.00    -0.075 N
ATOM     34  H73 UNL     1      23.117  -1.362  18.107  1.00  0.00     0.274 HD
ATOM     35  H72 UNL     1      24.264  -2.375  17.784  1.00  0.00     0.274 HD
ATOM     36  H71 UNL     1      22.691  -2.941  17.761  1.00  0.00     0.274 HD
ENDBRANCH  32  33
ENDBRANCH   8  32
BRANCH   9  37
HETATM   37  N8  UNL     1      22.554  -5.218  19.492  1.00  0.00    -0.373 N
ATOM     38  H8  UNL     1      23.547  -5.307  19.711  1.00  0.00     0.161 HD
BRANCH  37  39
HETATM   39  C11 UNL     1      22.044  -5.989  18.403  1.00  0.00     0.147 C
BRANCH  39  40
HETATM   40  C12 UNL     1      22.809  -5.715  17.116  1.00  0.00     0.183 C
BRANCH  40  41
HETATM   41  O5  UNL     1      22.134  -4.721  16.404  1.00  0.00    -0.399 OA
ATOM     42  H5  UNL     1      22.743  -4.323  15.793  1.00  0.00     0.209 HD
ENDBRANCH  40  41
ENDBRANCH  39  40
ENDBRANCH  37  39
ENDBRANCH   9  37
TORSDOF 14
ENDMDL