MODEL 4
REMARK VINA RESULT: -4.284335125      1.521      2.059
REMARK  13 active torsions:
REMARK  status: ('A' for Active; 'I' for Inactive)
REMARK    1  A    between atoms: C1_2  and  O2_4
REMARK    2  A    between atoms: O2_4  and  C2_5
REMARK    3  A    between atoms: C2_5  and  C3_6
REMARK    4  A    between atoms: C3_6  and  N2_7
REMARK    5  A    between atoms: C3_6  and  O3_11
REMARK    6  A    between atoms: C3_6  and  C5_21
REMARK    7  A    between atoms: O3_11  and  C4_12
REMARK    8  A    between atoms: C4_12  and  N3_13
REMARK    9  A    between atoms: C4_12  and  N4_17
REMARK   10  A    between atoms: C6_23  and  C7_24
REMARK   11  A    between atoms: C8_27  and  N5_28
REMARK   12  A    between atoms: C10_33  and  N6_34
REMARK   13  A    between atoms: C10_33  and  C11_38
ROOT
HETATM    1  C5  UNL     1      22.505   2.509  17.375  1.00  0.00     0.235 C
HETATM    2  O4  UNL     1      21.473   2.817  18.219  1.00  0.00    -0.360 OA
HETATM    3  C6  UNL     1      20.810   1.736  18.757  1.00  0.00     0.253 C
HETATM    4  C8  UNL     1      21.726   0.766  19.453  1.00  0.00     0.225 C
HETATM    5  C9  UNL     1      22.881   0.450  18.584  1.00  0.00     0.089 C
HETATM    6  C10 UNL     1      23.526   1.732  18.097  1.00  0.00     0.242 C
ENDROOT
BRANCH   1   7
HETATM    7  C3  UNL     1      22.940   3.695  16.559  1.00  0.00     0.278 C
BRANCH   7   8
HETATM    8  C2  UNL     1      24.377   3.942  16.474  1.00  0.00     0.251 C
BRANCH   8   9
HETATM    9  O2  UNL     1      24.935   3.940  15.185  1.00  0.00    -0.301 OA
BRANCH   9  10
HETATM   10  C1  UNL     1      25.279   5.052  14.474  1.00  0.00     0.372 C
HETATM   11  N1  UNL     1      24.293   5.872  13.865  1.00  0.00    -0.032 NA
HETATM   12  O1  UNL     1      26.490   5.339  14.369  1.00  0.00    -0.242 OA
ENDBRANCH   9  10
ENDBRANCH   8   9
ENDBRANCH   7   8
BRANCH   7  13
HETATM   13  N2  UNL     1      22.405   3.506  15.188  1.00  0.00    -0.042 N
ATOM     14  H23 UNL     1      22.884   4.085  14.499  1.00  0.00     0.278 HD
ATOM     15  H22 UNL     1      22.646   2.594  14.799  1.00  0.00     0.278 HD
ATOM     16  H21 UNL     1      21.398   3.669  15.202  1.00  0.00     0.278 HD
ENDBRANCH   7  13
BRANCH   7  17
HETATM   17  O3  UNL     1      22.270   4.768  17.077  1.00  0.00    -0.296 OA
BRANCH  17  18
HETATM   18  C4  UNL     1      22.803   5.976  17.209  1.00  0.00     0.521 C
BRANCH  18  19
HETATM   19  N3  UNL     1      22.185   6.621  18.387  1.00  0.00    -0.027 N
ATOM     20  H33 UNL     1      21.704   7.491  18.154  1.00  0.00     0.279 HD
ATOM     21  H32 UNL     1      21.375   6.109  18.738  1.00  0.00     0.279 HD
ATOM     22  H31 UNL     1      22.909   6.747  19.093  1.00  0.00     0.279 HD
ENDBRANCH  18  19
BRANCH  18  23
HETATM   23  N4  UNL     1      22.424   6.896  16.097  1.00  0.00    -0.027 N
ATOM     24  H43 UNL     1      21.992   6.383  15.329  1.00  0.00     0.279 HD
ATOM     25  H42 UNL     1      21.637   7.487  16.363  1.00  0.00     0.279 HD
ATOM     26  H41 UNL     1      23.209   7.457  15.767  1.00  0.00     0.279 HD
ENDBRANCH  18  23
ENDBRANCH  17  18
ENDBRANCH   7  17
ENDBRANCH   1   7
BRANCH   6  27
HETATM   27  N6  UNL     1      24.565   1.196  17.192  1.00  0.00    -0.057 N
ATOM     28  H63 UNL     1      24.407   0.208  16.993  1.00  0.00     0.276 HD
ATOM     29  H62 UNL     1      24.461   1.570  16.249  1.00  0.00     0.276 HD
ATOM     30  H61 UNL     1      25.507   1.354  17.549  1.00  0.00     0.276 HD
ENDBRANCH   6  27
BRANCH   6  31
HETATM   31  C11 UNL     1      24.132   2.364  19.273  1.00  0.00     0.213 C
HETATM   32  O7  UNL     1      23.884   3.501  19.722  1.00  0.00    -0.646 OA
HETATM   33  O8  UNL     1      25.095   1.632  19.988  1.00  0.00    -0.646 OA
ENDBRANCH   6  31
BRANCH   3  34
HETATM   34  C7  UNL     1      19.883   1.073  17.856  1.00  0.00     0.205 C
HETATM   35  O5  UNL     1      18.856   0.499  18.299  1.00  0.00    -0.646 OA
HETATM   36  O6  UNL     1      20.020   1.001  16.472  1.00  0.00    -0.646 OA
ENDBRANCH   3  34
BRANCH   4  37
HETATM   37  N5  UNL     1      20.958  -0.456  19.777  1.00  0.00    -0.072 N
ATOM     38  H53 UNL     1      21.169  -0.816  20.708  1.00  0.00     0.274 HD
ATOM     39  H52 UNL     1      19.966  -0.268  19.922  1.00  0.00     0.274 HD
ATOM     40  H51 UNL     1      21.122  -1.147  19.045  1.00  0.00     0.274 HD
ENDBRANCH   4  37
TORSDOF 13
ENDMDL