MODEL 4
REMARK VINA RESULT: -4.852720386      4.045      7.130
REMARK  14 active torsions:
REMARK  status: ('A' for Active; 'I' for Inactive)
REMARK    1  A    between atoms: C2_2  and  C3_3
REMARK    2  A    between atoms: C3_3  and  N1_4
REMARK       I    between atoms: N1_4  and  C4_6
REMARK       I    between atoms: C4_6  and  N2_8
REMARK    3  A    between atoms: N2_8  and  C5_10
REMARK    4  A    between atoms: C5_10  and  C6_11
REMARK    5  A    between atoms: C6_11  and  C7_13
REMARK    6  A    between atoms: C7_13  and  N3_14
REMARK    7  A    between atoms: C7_13  and  C8_18
REMARK    8  A    between atoms: C8_18  and  O3_19
REMARK    9  A    between atoms: C8_18  and  C9_21
REMARK   10  A    between atoms: C9_21  and  O4_22
REMARK   11  A    between atoms: C9_21  and  C10_24
REMARK   12  A    between atoms: C10_24  and  N4_25
REMARK   13  A    between atoms: N6_34  and  N7_35
REMARK   14  A    between atoms: N7_35  and  N8_36
ROOT
HETATM    1  C5  UNL     1      24.355  -3.504  17.003  1.00  0.00     0.308 C
HETATM    2  O5  UNL     1      24.834  -4.311  18.143  1.00  0.00    -0.246 OA
HETATM    3  C11 UNL     1      26.010  -3.695  18.538  1.00  0.00     0.380 C
HETATM    4  O6  UNL     1      26.618  -3.917  19.635  1.00  0.00    -0.237 OA
HETATM    5  N5  UNL     1      26.402  -2.793  17.516  1.00  0.00    -0.243 N
ATOM      6  H5  UNL     1      27.087  -2.038  17.557  1.00  0.00     0.188 HD
HETATM    7  N6  UNL     1      25.589  -3.213  16.409  1.00  0.00    -0.054 NA
ENDROOT
BRANCH   1   8
HETATM    8  N2  UNL     1      23.556  -2.500  17.593  1.00  0.00    -0.288 N
HETATM    9  C4  UNL     1      23.495  -1.127  17.584  1.00  0.00     0.320 C
HETATM   10  N1  UNL     1      22.444  -0.492  18.387  1.00  0.00    -0.340 N
HETATM   11  O1  UNL     1      24.229  -0.358  16.972  1.00  0.00    -0.247 OA
ATOM     12  H1  UNL     1      21.799  -1.068  18.927  1.00  0.00     0.164 HD
ATOM     13  H2  UNL     1      22.828  -2.902  18.185  1.00  0.00     0.169 HD
BRANCH  10  14
HETATM   14  C3  UNL     1      22.324   0.933  18.414  1.00  0.00     0.150 C
BRANCH  14  15
HETATM   15  C2  UNL     1      20.968   1.439  18.115  1.00  0.00    -0.018 C
HETATM   16  C1  UNL     1      19.935   1.058  18.875  1.00  0.00     0.008 C
ENDBRANCH  14  15
ENDBRANCH  10  14
ENDBRANCH   1   8
BRANCH   1  17
HETATM   17  C6  UNL     1      23.446  -4.439  16.256  1.00  0.00     0.234 C
HETATM   18  O2  UNL     1      22.504  -3.785  15.708  1.00  0.00    -0.288 OA
BRANCH  17  19
HETATM   19  C7  UNL     1      23.530  -5.869  16.102  1.00  0.00     0.290 C
BRANCH  19  20
HETATM   20  N3  UNL     1      22.654  -6.578  16.934  1.00  0.00    -0.065 N
ATOM     21  H33 UNL     1      22.863  -7.576  16.909  1.00  0.00     0.275 HD
ATOM     22  H32 UNL     1      22.856  -6.385  17.916  1.00  0.00     0.275 HD
ATOM     23  H31 UNL     1      21.669  -6.411  16.730  1.00  0.00     0.275 HD
ENDBRANCH  19  20
BRANCH  19  24
HETATM   24  C8  UNL     1      23.601  -6.281  14.647  1.00  0.00     0.186 C
BRANCH  24  25
HETATM   25  O3  UNL     1      24.151  -5.127  13.971  1.00  0.00    -0.390 OA
ATOM     26  H3  UNL     1      24.957  -5.442  13.580  1.00  0.00     0.210 HD
ENDBRANCH  24  25
BRANCH  24  27
HETATM   27  C9  UNL     1      24.615  -7.327  14.329  1.00  0.00     0.174 C
BRANCH  27  28
HETATM   28  O4  UNL     1      25.840  -6.616  14.161  1.00  0.00    -0.391 OA
ATOM     29  H4  UNL     1      25.851  -6.356  13.248  1.00  0.00     0.210 HD
ENDBRANCH  27  28
BRANCH  27  30
HETATM   30  C10 UNL     1      24.440  -8.107  13.080  1.00  0.00     0.263 C
BRANCH  30  31
HETATM   31  N4  UNL     1      24.536  -7.265  11.876  1.00  0.00    -0.077 N
ATOM     32  H43 UNL     1      25.504  -7.178  11.564  1.00  0.00     0.274 HD
ATOM     33  H42 UNL     1      24.145  -7.741  11.062  1.00  0.00     0.274 HD
ATOM     34  H41 UNL     1      24.108  -6.348  12.006  1.00  0.00     0.274 HD
ENDBRANCH  30  31
ENDBRANCH  27  30
ENDBRANCH  24  27
ENDBRANCH  19  24
ENDBRANCH  17  19
ENDBRANCH   1  17
BRANCH   7  35
HETATM   35  N7  UNL     1      26.298  -4.459  16.120  1.00  0.00    -0.030 NA
BRANCH  35  36
HETATM   36  N8  UNL     1      27.014  -4.167  14.953  1.00  0.00    -0.332 N
ATOM     37  H82 UNL     1      27.068  -4.725  14.101  1.00  0.00     0.173 HD
ATOM     38  H81 UNL     1      27.460  -3.274  15.164  1.00  0.00     0.173 HD
ENDBRANCH  35  36
ENDBRANCH   7  35
TORSDOF 14
ENDMDL