MODEL 5
REMARK VINA RESULT: -6.232558326      1.222      2.034
REMARK  8 active torsions:
REMARK  status: ('A' for Active; 'I' for Inactive)
REMARK    1  A    between atoms: C2_2  and  O1_3
REMARK    2  A    between atoms: O1_3  and  C3_4
REMARK    3  A    between atoms: C3_4  and  C4_5
REMARK    4  A    between atoms: C4_5  and  O2_6
REMARK    5  A    between atoms: O2_6  and  N1_7
REMARK    6  A    between atoms: N1_7  and  C5_9
REMARK    7  A    between atoms: C5_9  and  N2_11
REMARK    8  A    between atoms: N2_11  and  C6_13
ROOT
HETATM    1  N2  UNL     1      -2.652   3.152  12.288  1.00  0.00    -0.356 N
ATOM      2  H2  UNL     1      -1.820   2.776  11.833  1.00  0.00     0.162 HD
ENDROOT
BRANCH   1   3
HETATM    3  C5  UNL     1      -3.717   2.245  12.529  1.00  0.00     0.192 C
HETATM    4  S1  UNL     1      -4.806   1.779  11.413  1.00  0.00    -0.039 SA
BRANCH   3   5
HETATM    5  N1  UNL     1      -3.875   1.673  13.833  1.00  0.00    -0.241 N
ATOM      6  H1  UNL     1      -4.180   0.702  13.895  1.00  0.00     0.197 HD
BRANCH   5   7
HETATM    7  O2  UNL     1      -3.650   2.332  14.972  1.00  0.00    -0.276 OA
BRANCH   7   8
HETATM    8  C4  UNL     1      -4.007   1.591  16.106  1.00  0.00     0.228 C
BRANCH   8   9
HETATM    9  C3  UNL     1      -4.596   0.287  15.665  1.00  0.00     0.203 C
BRANCH   9  10
HETATM   10  O1  UNL     1      -5.593  -0.098  16.587  1.00  0.00    -0.362 OA
BRANCH  10  11
HETATM   11  C2  UNL     1      -6.279   0.775  17.386  1.00  0.00     0.124 C
HETATM   12  C1  UNL     1      -7.447   1.247  17.036  1.00  0.00     0.037 C
ENDBRANCH  10  11
ENDBRANCH   9  10
ENDBRANCH   8   9
ENDBRANCH   7   8
ENDBRANCH   5   7
ENDBRANCH   3   5
ENDBRANCH   1   3
BRANCH   1  13
HETATM   13  C6  UNL     1      -2.634   4.542  12.623  1.00  0.00     0.033 C
HETATM   14  C7  UNL     1      -1.739   4.851  13.776  1.00  0.00     0.035 C
HETATM   15  C8  UNL     1      -1.821   6.317  14.145  1.00  0.00    -0.012 C
HETATM   16  C9  UNL     1      -3.234   6.764  14.392  1.00  0.00     0.009 C
HETATM   17  C13 UNL     1      -1.240   7.100  12.999  1.00  0.00     0.009 C
HETATM   18  C10 UNL     1      -4.007   6.544  13.111  1.00  0.00    -0.012 C
HETATM   19  C11 UNL     1      -3.434   7.334  11.977  1.00  0.00     0.009 C
HETATM   20  C15 UNL     1      -4.047   5.088  12.802  1.00  0.00     0.035 C
HETATM   21  C12 UNL     1      -2.015   6.803  11.752  1.00  0.00    -0.012 C
HETATM   22  C14 UNL     1      -2.077   5.346  11.436  1.00  0.00     0.035 C
ENDBRANCH   1  13
TORSDOF 8
ENDMDL