MODEL 2
REMARK VINA RESULT: -6.758493943      2.084      5.583
REMARK  6 active torsions:
REMARK  status: ('A' for Active; 'I' for Inactive)
REMARK    1  A    between atoms: C1_2  and  C2_3
REMARK       I    between atoms: C1_2  and  N1_9
REMARK    2  A    between atoms: C2_3  and  C3_4
REMARK    3  A    between atoms: N1_9  and  C8_11
REMARK    4  A    between atoms: C12_18  and  O2_19
REMARK    5  A    between atoms: O2_19  and  C13_20
REMARK    6  A    between atoms: C13_20  and  C14_21
ROOT
HETATM    1  C8  UNL     1      -4.423   5.638  12.631  1.00  0.00     0.116 C
HETATM    2  C9  UNL     1      -3.277   6.652  12.599  1.00  0.00     0.055 C
HETATM    3  C10 UNL     1      -3.608   7.744  11.634  1.00  0.00     0.234 C
HETATM    4  N2  UNL     1      -4.230   7.170  10.468  1.00  0.00    -0.073 N
ATOM      5  H21 UNL     1      -4.049   7.731   9.635  1.00  0.00     0.277 HD
ATOM      6  H22 UNL     1      -5.245   7.263  10.504  1.00  0.00     0.277 HD
HETATM    7  C11 UNL     1      -3.831   5.784  10.272  1.00  0.00     0.266 C
HETATM    8  C12 UNL     1      -4.418   4.887  11.299  1.00  0.00     0.169 C
ENDROOT
BRANCH   1   9
HETATM    9  N1  UNL     1      -4.094   4.744  13.724  1.00  0.00    -0.354 N
HETATM   10  C1  UNL     1      -5.169   4.214  14.490  1.00  0.00     0.218 C
HETATM   11  O1  UNL     1      -6.364   4.487  14.252  1.00  0.00    -0.274 OA
ATOM     12  H1  UNL     1      -3.126   4.504  13.936  1.00  0.00     0.162 HD
BRANCH  10  13
HETATM   13  C2  UNL     1      -4.839   3.305  15.607  1.00  0.00     0.107 C
BRANCH  13  14
HETATM   14  C3  UNL     1      -6.008   2.367  15.834  1.00  0.00    -0.006 C
HETATM   15  C4  UNL     1      -6.784   2.854  17.040  1.00  0.00     0.005 C
HETATM   16  C5  UNL     1      -6.362   2.000  18.192  1.00  0.00     0.000 C
HETATM   17  C6  UNL     1      -5.929   0.723  17.548  1.00  0.00     0.000 C
HETATM   18  C7  UNL     1      -5.474   1.011  16.157  1.00  0.00     0.005 C
ENDBRANCH  13  14
ENDBRANCH  10  13
ENDBRANCH   1   9
BRANCH   8  19
HETATM   19  O2  UNL     1      -3.810   3.661  11.435  1.00  0.00    -0.382 OA
BRANCH  19  20
HETATM   20  C13 UNL     1      -4.513   2.617  10.858  1.00  0.00     0.172 C
BRANCH  20  21
HETATM   21  C14 UNL     1      -4.930   1.616  11.871  1.00  0.00     0.009 A
HETATM   22  C15 UNL     1      -4.509   0.187  11.603  1.00  0.00     0.007 A
HETATM   23  C16 UNL     1      -3.970   0.922  12.759  1.00  0.00     0.007 A
ENDBRANCH  20  21
ENDBRANCH  19  20
ENDBRANCH   8  19
TORSDOF 6
ENDMDL