MODEL 5
REMARK VINA RESULT: -6.504988366      2.470      6.550
REMARK  8 active torsions:
REMARK  status: ('A' for Active; 'I' for Inactive)
REMARK    1  A    between atoms: C2_2  and  O1_3
REMARK    2  A    between atoms: C2_2  and  C3_5
REMARK    3  A    between atoms: C4_6  and  C5_7
REMARK    4  A    between atoms: C5_7  and  C6_8
REMARK    5  A    between atoms: C6_8  and  C7_9
REMARK    6  A    between atoms: C6_8  and  C8_12
REMARK    7  A    between atoms: C7_9  and  O2_10
REMARK    8  A    between atoms: C8_12  and  C9_13
ROOT
HETATM    1  C6  UNL     1      -3.838   1.730  12.353  1.00  0.00     0.013 C
ENDROOT
BRANCH   1   2
HETATM    2  C5  UNL     1      -4.884   2.160  13.417  1.00  0.00     0.033 C
BRANCH   2   3
HETATM    3  C4  UNL     1      -4.672   1.558  14.731  1.00  0.00    -0.028 C
HETATM    4  C3  UNL     1      -5.561   1.773  15.712  1.00  0.00    -0.000 C
BRANCH   4   5
HETATM    5  C2  UNL     1      -5.419   1.203  17.065  1.00  0.00     0.136 C
HETATM    6  C1  UNL     1      -6.294   1.945  18.054  1.00  0.00     0.043 C
BRANCH   5   7
HETATM    7  O1  UNL     1      -5.908  -0.120  17.001  1.00  0.00    -0.392 OA
ATOM      8  H1  UNL     1      -5.190  -0.664  16.700  1.00  0.00     0.210 HD
ENDBRANCH   5   7
ENDBRANCH   4   5
ENDBRANCH   2   3
ENDBRANCH   1   2
BRANCH   1   9
HETATM    9  C7  UNL     1      -4.706   1.534  11.091  1.00  0.00     0.168 C
BRANCH   9  10
HETATM   10  O2  UNL     1      -5.920   2.255  11.276  1.00  0.00    -0.400 OA
ATOM     11  H2  UNL     1      -6.458   2.127  10.504  1.00  0.00     0.209 HD
ENDBRANCH   9  10
ENDBRANCH   1   9
BRANCH   1  12
HETATM   12  C8  UNL     1      -2.878   2.833  12.254  1.00  0.00     0.021 C
BRANCH  12  13
HETATM   13  C9  UNL     1      -3.127   4.039  11.465  1.00  0.00     0.080 C
HETATM   14  C10 UNL     1      -1.741   4.799  11.487  1.00  0.00     0.039 C
HETATM   15  C11 UNL     1      -1.854   5.621  12.757  1.00  0.00     0.088 C
HETATM   16  C12 UNL     1      -1.367   7.018  12.440  1.00  0.00     0.025 C
HETATM   17  N1  UNL     1      -3.296   5.771  13.020  1.00  0.00    -0.347 N
HETATM   18  C13 UNL     1      -1.718   7.985  13.520  1.00  0.00     0.004 C
HETATM   19  C14 UNL     1      -2.544   7.444  14.630  1.00  0.00     0.020 C
HETATM   20  C15 UNL     1      -3.658   6.523  14.189  1.00  0.00     0.126 C
HETATM   21  C16 UNL     1      -4.004   5.089  11.977  1.00  0.00     0.224 C
HETATM   22  O3  UNL     1      -5.144   5.366  11.602  1.00  0.00    -0.273 OA
ENDBRANCH  12  13
ENDBRANCH   1  12
TORSDOF 8
ENDMDL