MODEL 5
REMARK VINA RESULT: -7.017771483      1.908      2.913
REMARK  6 active torsions:
REMARK  status: ('A' for Active; 'I' for Inactive)
REMARK    1  A    between atoms: C3_3  and  C4_4
REMARK    2  A    between atoms: C4_4  and  C5_5
REMARK    3  A    between atoms: C5_5  and  C6_6
REMARK    4  A    between atoms: C6_6  and  C12_20
REMARK    5  A    between atoms: N1_7  and  N2_9
REMARK       I    between atoms: N2_9  and  C7_11
REMARK    6  A    between atoms: C7_11  and  C8_13
ROOT
HETATM    1  C1  UNL     1      -4.107   0.084  12.466  1.00  0.00     0.012 C
HETATM    2  C2  UNL     1      -4.358   1.196  12.077  1.00  0.00    -0.117 C
HETATM    3  C3  UNL     1      -4.646   2.556  11.623  1.00  0.00     0.093 C
ENDROOT
BRANCH   3   4
HETATM    4  C4  UNL     1      -3.396   3.405  11.714  1.00  0.00     0.018 C
BRANCH   4   5
HETATM    5  C5  UNL     1      -3.667   4.674  12.493  1.00  0.00     0.055 C
BRANCH   5   6
HETATM    6  C6  UNL     1      -2.733   4.882  13.598  1.00  0.00     0.008 C
HETATM    7  N1  UNL     1      -3.014   4.336  14.749  1.00  0.00    -0.306 N
ATOM      8  H1  UNL     1      -2.361   4.482  15.519  1.00  0.00     0.186 HD
BRANCH   7   9
HETATM    9  N2  UNL     1      -4.134   3.576  14.991  1.00  0.00    -0.268 N
HETATM   10  C7  UNL     1      -4.159   2.330  15.630  1.00  0.00     0.267 C
HETATM   11  O1  UNL     1      -3.057   1.850  16.025  1.00  0.00    -0.269 OA
ATOM     12  H2  UNL     1      -5.027   3.954  14.676  1.00  0.00     0.190 HD
BRANCH  10  13
HETATM   13  C8  UNL     1      -5.369   1.532  15.879  1.00  0.00     0.278 C
HETATM   14  C9  UNL     1      -6.479   2.372  16.513  1.00  0.00     0.044 C
HETATM   15  C10 UNL     1      -7.370   1.275  17.061  1.00  0.00     0.030 C
HETATM   16  C11 UNL     1      -6.336   0.312  17.610  1.00  0.00     0.233 C
HETATM   17  N3  UNL     1      -5.167   0.446  16.784  1.00  0.00    -0.062 N
ATOM     18  H32 UNL     1      -4.925  -0.422  16.305  1.00  0.00     0.278 HD
ATOM     19  H31 UNL     1      -4.312   0.548  17.332  1.00  0.00     0.278 HD
ENDBRANCH  10  13
ENDBRANCH   7   9
BRANCH   6  20
HETATM   20  C12 UNL     1      -1.506   5.669  13.470  1.00  0.00     0.033 C
HETATM   21  C13 UNL     1      -1.163   5.986  12.022  1.00  0.00     0.010 C
HETATM   22  C14 UNL     1      -0.419   7.299  11.929  1.00  0.00     0.001 C
HETATM   23  C15 UNL     1      -1.309   8.476  12.258  1.00  0.00     0.000 C
HETATM   24  C16 UNL     1      -2.313   8.029  13.298  1.00  0.00     0.001 C
HETATM   25  C17 UNL     1      -1.635   7.002  14.180  1.00  0.00     0.010 C
ENDBRANCH   6  20
ENDBRANCH   5   6
ENDBRANCH   4   5
ENDBRANCH   3   4
TORSDOF 6
ENDMDL