MODEL 5
REMARK VINA RESULT: -6.759880727      3.678      4.962
REMARK  6 active torsions:
REMARK  status: ('A' for Active; 'I' for Inactive)
REMARK       I    between atoms: C1_2  and  N1_3
REMARK    1  A    between atoms: C1_2  and  C14_21
REMARK    2  A    between atoms: N1_3  and  C2_5
REMARK    3  A    between atoms: C2_5  and  C3_6
REMARK    4  A    between atoms: C6_9  and  C7_10
REMARK    5  A    between atoms: C7_10  and  N2_11
REMARK    6  A    between atoms: N2_11  and  C8_14
ROOT
HETATM    1  C3  UNL     1      -4.636   3.549  13.274  1.00  0.00     0.003 C
HETATM    2  C4  UNL     1      -3.533   3.789  12.233  1.00  0.00     0.007 C
HETATM    3  C5  UNL     1      -4.083   4.645  11.129  1.00  0.00     0.007 C
HETATM    4  C6  UNL     1      -4.752   5.909  11.610  1.00  0.00     0.011 C
HETATM    5  C12 UNL     1      -4.624   6.058  13.093  1.00  0.00     0.007 C
HETATM    6  C13 UNL     1      -5.017   4.857  13.888  1.00  0.00     0.007 C
ENDROOT
BRANCH   4   7
HETATM    7  C7  UNL     1      -4.219   7.129  10.916  1.00  0.00     0.237 C
BRANCH   7   8
HETATM    8  N2  UNL     1      -5.248   7.970  10.382  1.00  0.00    -0.068 N
ATOM      9  H22 UNL     1      -5.676   8.553  11.101  1.00  0.00     0.277 HD
ATOM     10  H21 UNL     1      -4.869   8.713   9.795  1.00  0.00     0.277 HD
BRANCH   8  11
HETATM   11  C8  UNL     1      -6.226   7.165   9.680  1.00  0.00     0.211 C
HETATM   12  C9  UNL     1      -7.566   7.861   9.621  1.00  0.00     0.061 C
HETATM   13  C10 UNL     1      -8.099   7.419   8.301  1.00  0.00     0.169 C
HETATM   14  O2  UNL     1      -7.122   6.689   7.647  1.00  0.00    -0.389 OA
HETATM   15  C11 UNL     1      -5.902   7.044   8.208  1.00  0.00     0.200 C
ENDBRANCH   8  11
ENDBRANCH   7   8
ENDBRANCH   4   7
BRANCH   1  16
HETATM   16  C2  UNL     1      -4.165   2.546  14.275  1.00  0.00     0.127 C
BRANCH  16  17
HETATM   17  N1  UNL     1      -5.141   2.188  15.266  1.00  0.00    -0.360 N
HETATM   18  C1  UNL     1      -4.866   1.201  16.244  1.00  0.00     0.221 C
HETATM   19  O1  UNL     1      -3.764   0.627  16.261  1.00  0.00    -0.273 OA
ATOM     20  H1  UNL     1      -6.048   2.653  15.266  1.00  0.00     0.162 HD
BRANCH  18  21
HETATM   21  C14 UNL     1      -5.896   0.828  17.276  1.00  0.00     0.078 A
HETATM   22  C15 UNL     1      -6.395   1.978  18.111  1.00  0.00     0.015 A
HETATM   23  C16 UNL     1      -7.267   1.368  17.014  1.00  0.00     0.015 A
ENDBRANCH  18  21
ENDBRANCH  16  17
ENDBRANCH   1  16
TORSDOF 6
ENDMDL