MODEL 1
REMARK VINA RESULT: -6.419874659      0.000      0.000
REMARK  7 active torsions:
REMARK  status: ('A' for Active; 'I' for Inactive)
REMARK    1  A    between atoms: C2_2  and  N1_3
REMARK    2  A    between atoms: C8_9  and  C9_10
REMARK    3  A    between atoms: C9_10  and  N2_11
REMARK    4  A    between atoms: N2_11  and  C10_14
REMARK    5  A    between atoms: C10_14  and  C11_15
REMARK    6  A    between atoms: C11_15  and  N3_16
REMARK    7  A    between atoms: C11_15  and  C12_20
ROOT
HETATM    1  N2  UNL     1      -3.416   1.840  13.039  1.00  0.00    -0.073 N
ATOM      2  H21 UNL     1      -2.503   1.871  13.491  1.00  0.00     0.277 HD
ATOM      3  H22 UNL     1      -3.282   1.021  12.447  1.00  0.00     0.277 HD
ENDROOT
BRANCH   1   4
HETATM    4  C9  UNL     1      -3.630   3.005  12.251  1.00  0.00     0.237 C
BRANCH   4   5
HETATM    5  C8  UNL     1      -3.257   4.295  12.871  1.00  0.00     0.016 C
HETATM    6  C7  UNL     1      -4.285   5.296  13.258  1.00  0.00     0.047 C
HETATM    7  C2  UNL     1      -3.488   6.403  12.604  1.00  0.00     0.157 C
HETATM    8  C1  UNL     1      -4.307   7.302  11.707  1.00  0.00     0.049 C
HETATM    9  C17 UNL     1      -2.852   5.289  11.757  1.00  0.00     0.047 C
BRANCH   7  10
HETATM   10  N1  UNL     1      -2.511   7.087  13.329  1.00  0.00     0.097 N
HETATM   11  C3  UNL     1      -2.832   7.467  14.675  1.00  0.00     0.273 C
HETATM   12  C4  UNL     1      -1.585   8.260  15.086  1.00  0.00     0.032 C
HETATM   13  C5  UNL     1      -0.836   8.582  13.815  1.00  0.00     0.032 C
HETATM   14  C6  UNL     1      -1.882   8.217  12.745  1.00  0.00     0.273 C
ENDBRANCH   7  10
ENDBRANCH   4   5
ENDBRANCH   1   4
BRANCH   1  15
HETATM   15  C10 UNL     1      -4.444   1.614  13.990  1.00  0.00     0.265 C
BRANCH  15  16
HETATM   16  C11 UNL     1      -4.039   1.244  15.373  1.00  0.00     0.213 C
BRANCH  16  17
HETATM   17  N3  UNL     1      -4.390  -0.167  15.560  1.00  0.00    -0.073 N
ATOM     18  H33 UNL     1      -5.369  -0.367  15.354  1.00  0.00     0.274 HD
ATOM     19  H32 UNL     1      -3.981  -0.779  14.853  1.00  0.00     0.274 HD
ATOM     20  H31 UNL     1      -4.122  -0.418  16.511  1.00  0.00     0.274 HD
ENDBRANCH  16  17
BRANCH  16  21
HETATM   21  C12 UNL     1      -4.782   2.059  16.384  1.00  0.00     0.018 C
HETATM   22  C13 UNL     1      -5.544   1.163  17.346  1.00  0.00     0.007 C
HETATM   23  C14 UNL     1      -6.626   2.049  17.885  1.00  0.00     0.000 C
HETATM   24  C15 UNL     1      -6.892   3.092  16.843  1.00  0.00     0.000 C
HETATM   25  C16 UNL     1      -5.848   2.922  15.773  1.00  0.00     0.007 C
ENDBRANCH  16  21
ENDBRANCH  15  16
ENDBRANCH   1  15
TORSDOF 7
ENDMDL