MODEL 4
REMARK VINA RESULT: -6.237951654      2.021      2.945
REMARK  8 active torsions:
REMARK  status: ('A' for Active; 'I' for Inactive)
REMARK    1  A    between atoms: C2_2  and  C3_3
REMARK    2  A    between atoms: C3_3  and  C4_4
REMARK    3  A    between atoms: C4_4  and  C5_5
REMARK    4  A    between atoms: C5_5  and  C6_6
REMARK    5  A    between atoms: C6_6  and  C7_7
REMARK    6  A    between atoms: C7_7  and  N1_8
REMARK    7  A    between atoms: N1_8  and  C8_10
REMARK    8  A    between atoms: C8_10  and  N2_12
ROOT
HETATM    1  C8  UNL     1      -3.824   2.828  12.889  1.00  0.00     0.169 C
HETATM    2  S1  UNL     1      -4.540   2.693  11.362  1.00  0.00    -0.041 SA
ENDROOT
BRANCH   1   3
HETATM    3  N1  UNL     1      -2.569   3.410  12.878  1.00  0.00    -0.367 N
ATOM      4  H1  UNL     1      -1.774   2.783  13.005  1.00  0.00     0.161 HD
BRANCH   3   5
HETATM    5  C7  UNL     1      -2.274   4.783  12.709  1.00  0.00     0.122 C
BRANCH   5   6
HETATM    6  C6  UNL     1      -2.368   5.461  14.100  1.00  0.00     0.020 C
BRANCH   6   7
HETATM    7  C5  UNL     1      -3.615   6.312  14.085  1.00  0.00     0.002 C
BRANCH   7   8
HETATM    8  C4  UNL     1      -3.862   6.672  12.636  1.00  0.00     0.000 C
BRANCH   8   9
HETATM    9  C3  UNL     1      -5.282   6.492  12.236  1.00  0.00    -0.000 C
BRANCH   9  10
HETATM   10  C2  UNL     1      -5.633   7.457  11.135  1.00  0.00    -0.005 C
HETATM   11  C1  UNL     1      -7.088   7.852  11.337  1.00  0.00     0.005 C
ENDBRANCH   9  10
ENDBRANCH   8   9
ENDBRANCH   7   8
ENDBRANCH   6   7
ENDBRANCH   5   6
ENDBRANCH   3   5
ENDBRANCH   1   3
BRANCH   1  12
HETATM   12  N2  UNL     1      -4.534   2.364  13.983  1.00  0.00    -0.358 N
HETATM   13  C9  UNL     1      -4.392   0.924  14.304  1.00  0.00     0.128 C
HETATM   14  C10 UNL     1      -4.134   0.707  15.769  1.00  0.00     0.054 C
HETATM   15  C11 UNL     1      -4.817   1.711  16.641  1.00  0.00     0.155 C
HETATM   16  O1  UNL     1      -5.509   1.203  17.711  1.00  0.00    -0.281 OA
HETATM   17  C13 UNL     1      -6.012   2.215  15.809  1.00  0.00     0.051 C
HETATM   18  N3  UNL     1      -6.335   2.209  18.086  1.00  0.00    -0.100 NA
HETATM   19  C12 UNL     1      -6.793   2.876  16.881  1.00  0.00     0.151 C
HETATM   20  C14 UNL     1      -5.375   3.187  14.813  1.00  0.00     0.133 C
ENDBRANCH   1  12
TORSDOF 8
ENDMDL