MODEL 2
REMARK VINA RESULT: -6.740502044      2.140      4.178
REMARK  6 active torsions:
REMARK  status: ('A' for Active; 'I' for Inactive)
REMARK       I    between atoms: C1_4  and  N2_5
REMARK       I    between atoms: C1_4  and  N3_18
REMARK    1  A    between atoms: N2_5  and  C2_7
REMARK    2  A    between atoms: C2_7  and  C3_8
REMARK    3  A    between atoms: C3_8  and  C4_9
REMARK    4  A    between atoms: C4_9  and  C5_10
REMARK    5  A    between atoms: C5_10  and  C6_11
REMARK    6  A    between atoms: C6_11  and  C7_12
ROOT
HETATM    1  N1  UNL     1      -1.806   4.387  11.492  1.00  0.00    -0.235 N
ATOM      2  H11 UNL     1      -2.038   4.187  10.519  1.00  0.00     0.174 HD
ATOM      3  H12 UNL     1      -1.083   5.081  11.683  1.00  0.00     0.174 HD
HETATM    4  C1  UNL     1      -2.418   3.773  12.434  1.00  0.00     0.669 C
HETATM    5  N2  UNL     1      -2.094   4.052  13.788  1.00  0.00    -0.227 N
ATOM      6  H2  UNL     1      -1.557   3.390  14.349  1.00  0.00     0.177 HD
HETATM    7  N3  UNL     1      -3.417   2.815  12.171  1.00  0.00    -0.214 N
HETATM    8  C12 UNL     1      -3.638   1.732  13.096  1.00  0.00     0.167 C
HETATM    9  C13 UNL     1      -3.920   0.494  12.281  1.00  0.00     0.188 C
HETATM   10  O2  UNL     1      -4.961   0.613  11.401  1.00  0.00    -0.388 OA
HETATM   11  C14 UNL     1      -5.367   1.886  11.101  1.00  0.00     0.188 C
HETATM   12  C15 UNL     1      -4.238   2.885  10.990  1.00  0.00     0.167 C
ENDROOT
BRANCH   5  13
HETATM   13  C2  UNL     1      -2.552   5.305  14.347  1.00  0.00     0.138 C
BRANCH  13  14
HETATM   14  C3  UNL     1      -3.915   5.626  13.828  1.00  0.00     0.020 C
BRANCH  14  15
HETATM   15  C4  UNL     1      -4.904   5.650  14.942  1.00  0.00     0.002 C
BRANCH  15  16
HETATM   16  C5  UNL     1      -6.222   5.015  14.588  1.00  0.00     0.002 C
BRANCH  16  17
HETATM   17  C6  UNL     1      -6.159   3.545  14.853  1.00  0.00     0.032 C
BRANCH  17  18
HETATM   18  C7  UNL     1      -5.629   3.230  16.242  1.00  0.00     0.121 C
HETATM   19  C8  UNL     1      -6.772   3.161  17.184  1.00  0.00     0.032 C
HETATM   20  C9  UNL     1      -6.817   1.878  17.988  1.00  0.00     0.004 C
HETATM   21  C10 UNL     1      -6.599   0.774  16.980  1.00  0.00     0.026 C
HETATM   22  C11 UNL     1      -5.232   0.931  16.404  1.00  0.00     0.168 C
HETATM   23  O1  UNL     1      -4.771   2.183  16.231  1.00  0.00    -0.386 OA
ENDBRANCH  17  18
ENDBRANCH  16  17
ENDBRANCH  15  16
ENDBRANCH  14  15
ENDBRANCH  13  14
ENDBRANCH   5  13
TORSDOF 6
ENDMDL