MODEL 1
REMARK VINA RESULT: -6.444902856      0.000      0.000
REMARK  9 active torsions:
REMARK  status: ('A' for Active; 'I' for Inactive)
REMARK    1  A    between atoms: C2_2  and  C3_3
REMARK    2  A    between atoms: C3_3  and  C5_5
REMARK    3  A    between atoms: C3_3  and  C10_11
REMARK    4  A    between atoms: C6_6  and  C7_7
REMARK    5  A    between atoms: C7_7  and  N1_8
REMARK    6  A    between atoms: C10_11  and  C11_12
REMARK    7  A    between atoms: C11_12  and  O1_13
REMARK    8  A    between atoms: C11_12  and  C12_15
REMARK    9  A    between atoms: C12_15  and  C13_16
ROOT
HETATM    1  C11 UNL     1      -4.330   1.071  15.476  1.00  0.00     0.120 C
ENDROOT
BRANCH   1   2
HETATM    2  C10 UNL     1      -5.466   0.626  16.341  1.00  0.00     0.053 C
BRANCH   2   3
HETATM    3  C3  UNL     1      -6.248   1.677  17.019  1.00  0.00     0.022 C
HETATM    4  C4  UNL     1      -7.711   1.194  17.023  1.00  0.00     0.029 C
BRANCH   3   5
HETATM    5  C2  UNL     1      -5.918   1.995  18.429  1.00  0.00     0.018 C
HETATM    6  C1  UNL     1      -6.826   3.008  19.059  1.00  0.00     0.007 C
ENDBRANCH   3   5
BRANCH   3   7
HETATM    7  C5  UNL     1      -6.215   2.899  16.182  1.00  0.00    -0.095 C
HETATM    8  C6  UNL     1      -6.167   3.895  15.503  1.00  0.00    -0.075 C
BRANCH   8   9
HETATM    9  C7  UNL     1      -6.081   5.115  14.677  1.00  0.00     0.364 C
BRANCH   9  10
HETATM   10  N1  UNL     1      -4.829   5.185  13.979  1.00  0.00     0.090 N
HETATM   11  C8  UNL     1      -4.930   5.868  12.708  1.00  0.00     0.310 C
HETATM   12  C9  UNL     1      -3.841   5.835  14.803  1.00  0.00     0.310 C
ENDBRANCH   9  10
ENDBRANCH   8   9
ENDBRANCH   3   7
ENDBRANCH   2   3
ENDBRANCH   1   2
BRANCH   1  13
HETATM   13  O1  UNL     1      -3.237   1.352  16.290  1.00  0.00    -0.396 OA
ATOM     14  H1  UNL     1      -2.915   0.536  16.656  1.00  0.00     0.210 HD
ENDBRANCH   1  13
BRANCH   1  15
HETATM   15  C12 UNL     1      -4.017   0.151  14.355  1.00  0.00     0.036 C
BRANCH  15  16
HETATM   16  C13 UNL     1      -4.002   0.693  12.985  1.00  0.00    -0.009 C
HETATM   17  C14 UNL     1      -4.535  -0.430  12.077  1.00  0.00     0.032 C
HETATM   18  C15 UNL     1      -4.396  -0.055  10.635  1.00  0.00     0.232 C
HETATM   19  N2  UNL     1      -5.288   1.095  10.425  1.00  0.00    -0.075 N
HETATM   20  C16 UNL     1      -4.854   2.193  11.241  1.00  0.00     0.232 C
ATOM     21  H22 UNL     1      -5.360   1.353   9.440  1.00  0.00     0.277 HD
ATOM     22  H21 UNL     1      -6.267   0.858  10.586  1.00  0.00     0.277 HD
HETATM   23  C17 UNL     1      -4.844   1.890  12.724  1.00  0.00     0.032 C
ENDBRANCH  15  16
ENDBRANCH   1  15
TORSDOF 9
ENDMDL