MODEL 4
REMARK VINA RESULT: -6.378971846      1.388      1.628
REMARK  7 active torsions:
REMARK  status: ('A' for Active; 'I' for Inactive)
REMARK       I    between atoms: C1_2  and  N1_3
REMARK    1  A    between atoms: C1_2  and  O2_14
REMARK    2  A    between atoms: O2_14  and  C9_15
REMARK    3  A    between atoms: C9_15  and  C10_16
REMARK    4  A    between atoms: C10_16  and  N3_17
REMARK    5  A    between atoms: N3_17  and  C11_20
REMARK    6  A    between atoms: C11_20  and  C12_21
REMARK    7  A    between atoms: C12_21  and  C13_22
ROOT
HETATM    1  O1  UNL     1      -5.055   5.197  11.623  1.00  0.00    -0.238 OA
HETATM    2  C1  UNL     1      -4.874   4.668  12.768  1.00  0.00     0.366 C
HETATM    3  N1  UNL     1      -4.438   5.477  13.830  1.00  0.00    -0.292 N
ATOM      4  H1  UNL     1      -4.979   5.448  14.694  1.00  0.00     0.172 HD
HETATM    5  C2  UNL     1      -3.394   6.262  13.798  1.00  0.00     0.081 C
HETATM    6  C3  UNL     1      -3.233   6.963  15.077  1.00  0.00     0.076 C
HETATM    7  C4  UNL     1      -2.415   8.204  15.052  1.00  0.00     0.007 C
HETATM    8  C5  UNL     1      -1.249   8.233  14.137  1.00  0.00     0.000 C
HETATM    9  C6  UNL     1      -1.502   9.107  12.931  1.00  0.00     0.002 C
HETATM   10  C7  UNL     1      -2.470   8.544  11.947  1.00  0.00     0.020 C
HETATM   11  C8  UNL     1      -2.130   7.118  11.649  1.00  0.00     0.121 C
HETATM   12  N2  UNL     1      -2.753   6.187  12.552  1.00  0.00    -0.380 N
ATOM     13  H2  UNL     1      -2.721   5.232  12.197  1.00  0.00     0.160 HD
ENDROOT
BRANCH   2  14
HETATM   14  O2  UNL     1      -5.136   3.305  12.831  1.00  0.00    -0.302 OA
BRANCH  14  15
HETATM   15  C9  UNL     1      -4.447   2.380  12.003  1.00  0.00     0.208 C
BRANCH  15  16
HETATM   16  C10 UNL     1      -4.246   1.095  12.794  1.00  0.00     0.259 C
BRANCH  16  17
HETATM   17  N3  UNL     1      -3.749   1.398  14.124  1.00  0.00    -0.073 N
ATOM     18  H32 UNL     1      -2.740   1.257  14.167  1.00  0.00     0.277 HD
ATOM     19  H31 UNL     1      -3.793   2.402  14.299  1.00  0.00     0.277 HD
BRANCH  17  20
HETATM   20  C11 UNL     1      -4.391   0.685  15.173  1.00  0.00     0.232 C
BRANCH  20  21
HETATM   21  C12 UNL     1      -4.851   1.729  16.201  1.00  0.00     0.032 C
BRANCH  21  22
HETATM   22  C13 UNL     1      -5.794   1.035  17.160  1.00  0.00    -0.013 A
HETATM   23  C14 UNL     1      -7.245   1.380  17.139  1.00  0.00     0.005 A
HETATM   24  C15 UNL     1      -6.411   2.007  18.164  1.00  0.00     0.005 A
ENDBRANCH  21  22
ENDBRANCH  20  21
ENDBRANCH  17  20
ENDBRANCH  16  17
ENDBRANCH  15  16
ENDBRANCH  14  15
ENDBRANCH   2  14
TORSDOF 7
ENDMDL