MODEL 2
REMARK VINA RESULT: -5.934864472      1.354      2.098
REMARK  8 active torsions:
REMARK  status: ('A' for Active; 'I' for Inactive)
REMARK    1  A    between atoms: N1_2  and  C2_5
REMARK    2  A    between atoms: N4_11  and  N5_12
REMARK       I    between atoms: N5_12  and  C4_14
REMARK    3  A    between atoms: C4_14  and  C5_16
REMARK    4  A    between atoms: C5_16  and  C6_17
REMARK    5  A    between atoms: C7_21  and  C8_22
REMARK    6  A    between atoms: C8_22  and  O2_23
REMARK    7  A    between atoms: N8_25  and  O3_27
REMARK    8  A    between atoms: C10_32  and  O4_33
ROOT
HETATM    1  N5  UNL     1      23.162   2.507  18.446  1.00  0.00    -0.252 N
ATOM      2  H5  UNL     1      23.754   3.116  19.012  1.00  0.00     0.191 HD
HETATM    3  C4  UNL     1      22.317   3.116  17.495  1.00  0.00     0.244 C
HETATM    4  O1  UNL     1      21.578   2.436  16.778  1.00  0.00    -0.271 OA
ENDROOT
BRANCH   1   5
HETATM    5  N4  UNL     1      23.249   1.125  18.671  1.00  0.00    -0.216 N
HETATM    6  N3  UNL     1      23.866   0.382  17.675  1.00  0.00    -0.279 N
HETATM    7  C3  UNL     1      24.261  -0.795  17.880  1.00  0.00     0.198 C
ATOM      8  H3  UNL     1      24.003   0.801  16.755  1.00  0.00     0.189 HD
HETATM    9  N2  UNL     1      24.111  -1.437  19.105  1.00  0.00    -0.328 N
HETATM   10  C2  UNL     1      23.190  -0.913  20.036  1.00  0.00     0.333 C
ATOM     11  H2  UNL     1      24.657  -2.269  19.326  1.00  0.00     0.165 HD
HETATM   12  C9  UNL     1      22.737   0.478  19.835  1.00  0.00     0.243 C
HETATM   13  O5  UNL     1      22.044  -1.744  20.028  1.00  0.00    -0.334 OA
HETATM   14  C10 UNL     1      21.209   0.319  19.761  1.00  0.00     0.175 C
HETATM   15  C11 UNL     1      21.056  -0.937  20.593  1.00  0.00     0.207 C
BRANCH  10  16
HETATM   16  N1  UNL     1      23.727  -1.093  21.399  1.00  0.00    -0.025 N
HETATM   17  C1  UNL     1      24.631  -0.045  21.764  1.00  0.00     0.273 C
ATOM     18  H12 UNL     1      24.161  -2.010  21.508  1.00  0.00     0.282 HD
ATOM     19  H11 UNL     1      22.976  -1.189  22.083  1.00  0.00     0.282 HD
ENDBRANCH  10  16
BRANCH  14  20
HETATM   20  O4  UNL     1      20.793   0.063  18.475  1.00  0.00    -0.391 OA
ATOM     21  H4  UNL     1      20.368   0.820  18.091  1.00  0.00     0.210 HD
ENDBRANCH  14  20
ENDBRANCH   1   5
BRANCH   3  22
HETATM   22  C5  UNL     1      22.335   4.587  17.370  1.00  0.00     0.181 C
BRANCH  22  23
HETATM   23  C6  UNL     1      22.963   5.010  16.104  1.00  0.00     0.099 C
HETATM   24  N6  UNL     1      23.820   5.970  15.947  1.00  0.00    -0.290 N
HETATM   25  N7  UNL     1      24.187   6.073  14.607  1.00  0.00    -0.106 NA
ATOM     26  H6  UNL     1      24.174   6.565  16.697  1.00  0.00     0.183 HD
HETATM   27  C7  UNL     1      23.899   4.782  14.022  1.00  0.00     0.275 C
HETATM   28  N9  UNL     1      22.714   4.423  14.820  1.00  0.00    -0.352 N
ATOM     29  H9  UNL     1      21.903   3.880  14.526  1.00  0.00     0.163 HD
BRANCH  27  30
HETATM   30  C8  UNL     1      23.503   4.874  12.585  1.00  0.00     0.176 C
HETATM   31  N8  UNL     1      23.151   3.793  12.011  1.00  0.00    -0.248 N
ATOM     32  H8  UNL     1      22.881   3.852  11.029  1.00  0.00     0.196 HD
BRANCH  30  33
HETATM   33  O2  UNL     1      23.546   6.109  11.966  1.00  0.00    -0.345 OA
ATOM     34  H2  UNL     1      23.281   6.170  11.056  1.00  0.00     0.219 HD
ENDBRANCH  30  33
BRANCH  31  35
HETATM   35  O3  UNL     1      23.106   2.578  12.592  1.00  0.00    -0.288 OA
ATOM     36  H3  UNL     1      22.952   1.756  12.141  1.00  0.00     0.244 HD
ENDBRANCH  31  35
ENDBRANCH  27  30
ENDBRANCH  22  23
ENDBRANCH   3  22
TORSDOF 8
ENDMDL