MODEL 1
REMARK VINA RESULT: -6.077742737      0.000      0.000
REMARK  11 active torsions:
REMARK  status: ('A' for Active; 'I' for Inactive)
REMARK       I    between atoms: C2_2  and  N1_4
REMARK    1  A    between atoms: N1_4  and  C3_6
REMARK    2  A    between atoms: C5_8  and  N2_9
REMARK    3  A    between atoms: C6_11  and  O2_12
REMARK    4  A    between atoms: C6_11  and  C7_14
REMARK    5  A    between atoms: C7_14  and  O3_15
REMARK    6  A    between atoms: C8_17  and  O4_18
REMARK    7  A    between atoms: C9_20  and  O5_21
REMARK    8  A    between atoms: C10_23  and  C11_24
REMARK    9  A    between atoms: C11_24  and  O6_25
REMARK   10  A    between atoms: O6_25  and  N3_26
REMARK   11  A    between atoms: N4_29  and  N5_30
ROOT
HETATM    1  C7  UNL     1      23.522   4.260  16.548  1.00  0.00     0.226 C
HETATM    2  C8  UNL     1      24.222   5.577  16.186  1.00  0.00     0.208 C
HETATM    3  C9  UNL     1      23.174   6.181  15.275  1.00  0.00     0.173 C
HETATM    4  C10 UNL     1      22.738   4.988  14.462  1.00  0.00     0.140 C
HETATM    5  N4  UNL     1      22.904   3.848  15.289  1.00  0.00    -0.184 NA
ENDROOT
BRANCH   1   6
HETATM    6  C6  UNL     1      24.482   3.221  16.883  1.00  0.00     0.173 C
HETATM    7  N2  UNL     1      24.486   1.979  17.422  1.00  0.00    -0.323 N
ATOM      8  H2  UNL     1      25.411   1.558  17.505  1.00  0.00     0.169 HD
BRANCH   7   9
HETATM    9  C5  UNL     1      23.439   1.173  17.886  1.00  0.00     0.111 A
HETATM   10  C4  UNL     1      23.693  -0.170  18.244  1.00  0.00     0.097 A
HETATM   11  C3  UNL     1      22.661  -0.961  18.695  1.00  0.00     0.112 A
HETATM   12  N7  UNL     1      21.409  -0.473  18.802  1.00  0.00    -0.332 N
HETATM   13  C12 UNL     1      21.147   0.804  18.466  1.00  0.00     0.080 A
ATOM     14  H7  UNL     1      20.657  -1.074  19.140  1.00  0.00     0.168 HD
HETATM   15  N6  UNL     1      22.154   1.534  18.038  1.00  0.00    -0.332 N
HETATM   16  C13 UNL     1      19.751   1.356  18.583  1.00  0.00     0.089 C
ATOM     17  H6  UNL     1      21.930   2.498  17.790  1.00  0.00     0.168 HD
BRANCH  11  18
HETATM   18  N1  UNL     1      22.973  -2.307  19.042  1.00  0.00    -0.313 N
HETATM   19  C2  UNL     1      23.177  -2.683  20.383  1.00  0.00     0.219 C
HETATM   20  C1  UNL     1      23.108  -1.818  21.556  1.00  0.00     0.117 C
HETATM   21  O1  UNL     1      23.451  -3.923  20.571  1.00  0.00    -0.274 OA
ATOM     22  H1  UNL     1      23.049  -3.010  18.306  1.00  0.00     0.170 HD
ENDBRANCH  11  18
ENDBRANCH   7   9
BRANCH   6  23
HETATM   23  O2  UNL     1      25.713   3.653  16.547  1.00  0.00    -0.346 OA
ATOM     24  H2  UNL     1      25.697   4.414  15.980  1.00  0.00     0.219 HD
ENDBRANCH   6  23
ENDBRANCH   1   6
BRANCH   1  25
HETATM   25  O3  UNL     1      22.628   4.545  17.510  1.00  0.00    -0.365 OA
ATOM     26  H3  UNL     1      21.765   4.791  17.200  1.00  0.00     0.212 HD
ENDBRANCH   1  25
BRANCH   2  27
HETATM   27  O4  UNL     1      24.377   6.401  17.276  1.00  0.00    -0.388 OA
ATOM     28  H4  UNL     1      25.213   6.854  17.270  1.00  0.00     0.210 HD
ENDBRANCH   2  27
BRANCH   5  29
HETATM   29  N5  UNL     1      21.769   3.085  15.473  1.00  0.00    -0.360 NA
ATOM     30  H52 UNL     1      21.484   2.956  16.444  1.00  0.00     0.171 HD
ATOM     31  H51 UNL     1      21.827   2.172  15.021  1.00  0.00     0.171 HD
ENDBRANCH   5  29
BRANCH   3  32
HETATM   32  O5  UNL     1      22.100   6.697  15.994  1.00  0.00    -0.391 OA
ATOM     33  H5  UNL     1      21.274   6.551  15.548  1.00  0.00     0.210 HD
ENDBRANCH   3  32
BRANCH   4  34
HETATM   34  C11 UNL     1      23.736   4.864  13.305  1.00  0.00     0.224 C
BRANCH  34  35
HETATM   35  O6  UNL     1      22.983   4.490  12.194  1.00  0.00    -0.286 OA
BRANCH  35  36
HETATM   36  N3  UNL     1      23.211   3.204  11.924  1.00  0.00    -0.311 N
ATOM     37  H32 UNL     1      24.116   2.743  12.020  1.00  0.00     0.184 HD
ATOM     38  H31 UNL     1      22.343   2.769  11.610  1.00  0.00     0.184 HD
ENDBRANCH  35  36
ENDBRANCH  34  35
ENDBRANCH   4  34
TORSDOF 11
ENDMDL