MODEL 1
REMARK VINA RESULT: -6.155132590      0.000      0.000
REMARK  7 active torsions:
REMARK  status: ('A' for Active; 'I' for Inactive)
REMARK    1  A    between atoms: N1_1  and  C1_4
REMARK       I    between atoms: N3_8  and  C3_10
REMARK       I    between atoms: C3_10  and  N4_11
REMARK       I    between atoms: C3_10  and  N5_15
REMARK    2  A    between atoms: C6_24  and  N7_25
REMARK    3  A    between atoms: N7_25  and  C7_26
REMARK    4  A    between atoms: C7_26  and  O2_27
REMARK    5  A    between atoms: C7_26  and  C8_29
REMARK    6  A    between atoms: C8_29  and  N8_30
REMARK    7  A    between atoms: N9_35  and  C10_36
ROOT
HETATM    1  C1  UNL     1      24.673   6.231  15.515  1.00  0.00     0.143 C
HETATM    2  N2  UNL     1      24.516   6.198  14.180  1.00  0.00    -0.175 N
ATOM      3  H2  UNL     1      25.115   6.824  13.642  1.00  0.00     0.186 HD
HETATM    4  C2  UNL     1      23.649   5.423  13.455  1.00  0.00     0.685 C
HETATM    5  N3  UNL     1      23.326   5.805  12.278  1.00  0.00    -0.173 N
ATOM      6  H3  UNL     1      22.681   5.216  11.754  1.00  0.00     0.181 HD
HETATM    7  C3  UNL     1      23.799   6.994  11.640  1.00  0.00     0.494 C
HETATM    8  N4  UNL     1      22.887   7.444  10.589  1.00  0.00    -0.032 N
ATOM      9  H41 UNL     1      23.224   8.291  10.133  1.00  0.00     0.278 HD
ATOM     10  H42 UNL     1      21.940   7.565  10.946  1.00  0.00     0.278 HD
ATOM     11  H43 UNL     1      22.708   6.704   9.910  1.00  0.00     0.278 HD
HETATM   12  N5  UNL     1      25.067   6.708  11.002  1.00  0.00    -0.032 N
ATOM     13  H51 UNL     1      25.404   7.556  10.546  1.00  0.00     0.278 HD
ATOM     14  H52 UNL     1      25.012   5.917  10.361  1.00  0.00     0.278 HD
ATOM     15  H53 UNL     1      25.750   6.317  11.651  1.00  0.00     0.278 HD
HETATM   16  N6  UNL     1      23.064   4.253  13.850  1.00  0.00    -0.155 N
ATOM     17  H6  UNL     1      22.616   3.704  13.115  1.00  0.00     0.187 HD
HETATM   18  C4  UNL     1      23.006   3.733  15.103  1.00  0.00     0.275 C
HETATM   19  O1  UNL     1      22.835   2.530  15.231  1.00  0.00    -0.267 OA
HETATM   20  C5  UNL     1      23.122   4.426  16.265  1.00  0.00     0.106 A
HETATM   21  C6  UNL     1      22.484   4.080  17.468  1.00  0.00     0.144 A
HETATM   22  C9  UNL     1      22.918   5.061  18.339  1.00  0.00     0.161 A
HETATM   23  N9  UNL     1      23.751   5.931  17.715  1.00  0.00    -0.147 N
HETATM   24  C11 UNL     1      23.894   5.565  16.445  1.00  0.00     0.119 A
ENDROOT
BRANCH   1  25
HETATM   25  N1  UNL     1      25.630   6.929  15.992  1.00  0.00    -0.383 N
ATOM     26  H12 UNL     1      26.420   7.082  15.366  1.00  0.00     0.157 HD
ATOM     27  H11 UNL     1      25.538   7.284  16.943  1.00  0.00     0.157 HD
ENDBRANCH   1  25
BRANCH  23  28
HETATM   28  C10 UNL     1      24.382   7.061  18.326  1.00  0.00     0.720 A
HETATM   29  N10 UNL     1      25.521   7.108  19.034  1.00  0.00    -0.114 N
HETATM   30  N11 UNL     1      25.731   8.344  19.412  1.00  0.00    -0.213 N
ATOM     31  H10 UNL     1      26.125   6.312  19.242  1.00  0.00     0.207 HD
HETATM   32  N12 UNL     1      24.759   9.105  18.973  1.00  0.00    -0.213 N
ATOM     33  H11 UNL     1      26.528   8.664  19.964  1.00  0.00     0.210 HD
HETATM   34  N13 UNL     1      23.927   8.331  18.305  1.00  0.00    -0.114 N
ATOM     35  H12 UNL     1      24.664  10.110  19.119  1.00  0.00     0.210 HD
ATOM     36  H13 UNL     1      23.072   8.644  17.844  1.00  0.00     0.207 HD
ENDBRANCH  23  28
BRANCH  21  37
HETATM   37  N7  UNL     1      21.664   2.969  17.608  1.00  0.00    -0.381 NA
BRANCH  37  38
HETATM   38  C7  UNL     1      20.887   1.915  17.741  1.00  0.00     0.216 C
BRANCH  38  39
HETATM   39  O2  UNL     1      20.245   1.372  16.723  1.00  0.00    -0.338 OA
ATOM     40  H2  UNL     1      20.151   0.433  16.620  1.00  0.00     0.220 HD
ENDBRANCH  38  39
BRANCH  38  41
HETATM   41  C8  UNL     1      20.555   1.121  18.979  1.00  0.00     0.329 C
BRANCH  41  42
HETATM   42  N8  UNL     1      19.783  -0.012  18.611  1.00  0.00    -0.071 N
ATOM     43  H83 UNL     1      19.532  -0.007  17.622  1.00  0.00     0.274 HD
ATOM     44  H82 UNL     1      20.330  -0.872  18.616  1.00  0.00     0.274 HD
ATOM     45  H81 UNL     1      18.965  -0.069  19.217  1.00  0.00     0.274 HD
ENDBRANCH  41  42
ENDBRANCH  38  41
ENDBRANCH  37  38
ENDBRANCH  21  37
TORSDOF 7
ENDMDL