MODEL 1
REMARK VINA RESULT: -6.491756045      0.000      0.000
REMARK  10 active torsions:
REMARK  status: ('A' for Active; 'I' for Inactive)
REMARK    1  A    between atoms: C2_2  and  O1_3
REMARK    2  A    between atoms: C2_2  and  C3_5
REMARK    3  A    between atoms: C3_5  and  O2_6
REMARK    4  A    between atoms: C3_5  and  C4_8
REMARK    5  A    between atoms: C4_8  and  O3_9
REMARK    6  A    between atoms: C4_8  and  C5_11
REMARK    7  A    between atoms: C5_11  and  O4_12
REMARK    8  A    between atoms: C7_16  and  N1_17
REMARK    9  A    between atoms: C10_27  and  N5_28
REMARK   10  A    between atoms: C12_34  and  O7_35
ROOT
HETATM    1  C5  UNL     1      23.434   2.342  16.722  1.00  0.00     0.137 C
HETATM    2  C6  UNL     1      24.404   3.478  16.557  1.00  0.00     0.214 C
HETATM    3  O5  UNL     1      23.513   4.580  16.534  1.00  0.00    -0.359 OA
HETATM    4  C7  UNL     1      22.584   4.224  15.559  1.00  0.00     0.279 C
HETATM    5  C12 UNL     1      22.402   2.747  15.644  1.00  0.00     0.208 C
ENDROOT
BRANCH   4   6
HETATM    6  N1  UNL     1      23.124   4.668  14.279  1.00  0.00    -0.227 N
HETATM    7  N2  UNL     1      23.107   4.029  13.117  1.00  0.00    -0.236 N
HETATM    8  N3  UNL     1      23.680   4.712  12.171  1.00  0.00    -0.278 N
ATOM      9  H2  UNL     1      22.693   3.107  12.982  1.00  0.00     0.208 HD
HETATM   10  C8  UNL     1      24.110   5.869  12.693  1.00  0.00     0.164 A
ATOM     11  H3  UNL     1      23.784   4.420  11.199  1.00  0.00     0.189 HD
HETATM   12  C9  UNL     1      24.774   6.952  12.155  1.00  0.00     0.291 A
HETATM   13  C11 UNL     1      23.752   5.831  14.035  1.00  0.00     0.175 A
HETATM   14  O6  UNL     1      25.073   6.933  10.939  1.00  0.00    -0.265 OA
HETATM   15  N4  UNL     1      25.067   7.976  12.969  1.00  0.00    -0.154 N
HETATM   16  C10 UNL     1      24.728   7.958  14.268  1.00  0.00     0.680 A
ATOM     17  H4  UNL     1      25.558   8.788  12.594  1.00  0.00     0.187 HD
HETATM   18  N6  UNL     1      24.083   6.895  14.777  1.00  0.00    -0.173 N
ATOM     19  H6  UNL     1      23.835   6.900  15.766  1.00  0.00     0.186 HD
BRANCH  16  20
HETATM   20  N5  UNL     1      25.005   8.940  15.067  1.00  0.00    -0.234 N
ATOM     21  H52 UNL     1      25.811   8.841  15.684  1.00  0.00     0.174 HD
ATOM     22  H51 UNL     1      24.447   9.794  15.092  1.00  0.00     0.174 HD
ENDBRANCH  16  20
ENDBRANCH   4   6
BRANCH   5  23
HETATM   23  O7  UNL     1      21.143   2.357  16.076  1.00  0.00    -0.388 OA
ATOM     24  H7  UNL     1      20.497   2.715  15.479  1.00  0.00     0.210 HD
ENDBRANCH   5  23
BRANCH   1  25
HETATM   25  C4  UNL     1      22.816   2.420  18.084  1.00  0.00     0.188 C
BRANCH  25  26
HETATM   26  C3  UNL     1      22.728   1.177  18.867  1.00  0.00     0.178 C
BRANCH  26  27
HETATM   27  C2  UNL     1      21.456   0.423  18.865  1.00  0.00     0.145 C
HETATM   28  C1  UNL     1      20.224   1.264  18.937  1.00  0.00     0.042 C
BRANCH  27  29
HETATM   29  O1  UNL     1      21.404  -0.250  17.613  1.00  0.00    -0.393 OA
ATOM     30  H1  UNL     1      21.085  -1.125  17.797  1.00  0.00     0.210 HD
ENDBRANCH  27  29
ENDBRANCH  26  27
BRANCH  26  31
HETATM   31  O2  UNL     1      23.184   1.336  20.173  1.00  0.00    -0.390 OA
ATOM     32  H2  UNL     1      22.470   1.191  20.785  1.00  0.00     0.210 HD
ENDBRANCH  26  31
ENDBRANCH  25  26
BRANCH  25  33
HETATM   33  O3  UNL     1      23.266   3.495  18.841  1.00  0.00    -0.390 OA
ATOM     34  H3  UNL     1      23.433   4.268  18.313  1.00  0.00     0.210 HD
ENDBRANCH  25  33
ENDBRANCH   1  25
BRANCH   1  35
HETATM   35  O4  UNL     1      23.881   1.110  16.361  1.00  0.00    -0.382 OA
ATOM     36  H4  UNL     1      23.442   0.725  15.612  1.00  0.00     0.210 HD
ENDBRANCH   1  35
TORSDOF 10
ENDMDL