MODEL 1
REMARK VINA RESULT: -6.169550976      0.000      0.000
REMARK  6 active torsions:
REMARK  status: ('A' for Active; 'I' for Inactive)
REMARK    1  A    between atoms: N3_5  and  N4_6
REMARK       I    between atoms: N4_6  and  C2_8
REMARK    2  A    between atoms: C2_8  and  C3_10
REMARK    3  A    between atoms: C4_13  and  N6_14
REMARK    4  A    between atoms: C5_16  and  C6_17
REMARK    5  A    between atoms: C9_24  and  O2_25
REMARK    6  A    between atoms: C10_27  and  O3_28
ROOT
HETATM    1  C3  UNL     1      22.510   3.449  16.518  1.00  0.00     0.108 C
HETATM    2  N5  UNL     1      22.419   3.531  15.072  1.00  0.00    -0.363 N
ATOM      3  H5  UNL     1      21.786   3.035  14.445  1.00  0.00     0.161 HD
HETATM    4  C4  UNL     1      23.479   4.517  14.731  1.00  0.00     0.213 C
HETATM    5  C9  UNL     1      23.600   5.406  15.984  1.00  0.00     0.195 C
HETATM    6  C10 UNL     1      23.522   4.356  17.058  1.00  0.00     0.205 C
ENDROOT
BRANCH   1   7
HETATM    7  C2  UNL     1      22.150   2.244  17.186  1.00  0.00     0.286 C
HETATM    8  N4  UNL     1      23.049   1.412  17.893  1.00  0.00    -0.240 N
ATOM      9  H4  UNL     1      24.016   1.723  17.992  1.00  0.00     0.192 HD
HETATM   10  O1  UNL     1      20.913   1.867  17.108  1.00  0.00    -0.264 OA
BRANCH   8  11
HETATM   11  N3  UNL     1      22.692   0.199  18.458  1.00  0.00    -0.158 N
HETATM   12  N2  UNL     1      21.850   0.122  19.569  1.00  0.00    -0.248 N
HETATM   13  C1  UNL     1      21.523  -1.004  20.116  1.00  0.00     0.223 A
ATOM     14  H2  UNL     1      21.478   0.986  19.963  1.00  0.00     0.192 HD
HETATM   15  N1  UNL     1      20.663  -1.000  21.231  1.00  0.00    -0.061 NA
HETATM   16  N11 UNL     1      22.074  -2.195  19.514  1.00  0.00    -0.270 N
HETATM   17  N10 UNL     1      22.899  -2.162  18.422  1.00  0.00    -0.268 N
ATOM     18  H11 UNL     1      21.838  -3.100  19.921  1.00  0.00     0.189 HD
HETATM   19  C11 UNL     1      23.224  -0.986  17.875  1.00  0.00     0.245 A
ATOM     20  H10 UNL     1      23.264  -3.030  18.028  1.00  0.00     0.190 HD
HETATM   21  N9  UNL     1      24.046  -1.053  16.721  1.00  0.00    -0.059 NA
ENDBRANCH   8  11
ENDBRANCH   1   7
BRANCH   6  22
HETATM   22  O3  UNL     1      23.070   4.997  18.262  1.00  0.00    -0.387 OA
ATOM     23  H3  UNL     1      22.564   4.403  18.806  1.00  0.00     0.210 HD
ENDBRANCH   6  22
BRANCH   4  24
HETATM   24  N6  UNL     1      23.091   5.274  13.609  1.00  0.00    -0.374 N
HETATM   25  C5  UNL     1      23.729   5.557  12.569  1.00  0.00     0.116 C
ATOM     26  H6  UNL     1      22.144   5.649  13.649  1.00  0.00     0.161 HD
BRANCH  25  27
HETATM   27  C6  UNL     1      25.062   5.197  12.120  1.00  0.00     0.063 A
HETATM   28  C7  UNL     1      26.202   5.861  12.512  1.00  0.00     0.119 A
HETATM   29  N7  UNL     1      27.236   5.288  11.883  1.00  0.00    -0.360 N
HETATM   30  C8  UNL     1      26.787   4.308  11.121  1.00  0.00     0.180 A
ATOM     31  H7  UNL     1      28.214   5.564  11.978  1.00  0.00     0.166 HD
HETATM   32  N8  UNL     1      25.442   4.266  11.281  1.00  0.00    -0.350 N
ATOM     33  H8  UNL     1      24.818   3.606  10.815  1.00  0.00     0.166 HD
ENDBRANCH  25  27
ENDBRANCH   4  24
BRANCH   5  34
HETATM   34  O2  UNL     1      22.391   6.134  16.008  1.00  0.00    -0.389 OA
ATOM     35  H2  UNL     1      22.449   6.707  15.252  1.00  0.00     0.210 HD
ENDBRANCH   5  34
TORSDOF 6
ENDMDL