MODEL 3
REMARK VINA RESULT: -5.423000463      5.031      7.471
REMARK  11 active torsions:
REMARK  status: ('A' for Active; 'I' for Inactive)
REMARK    1  A    between atoms: N1_1  and  C1_5
REMARK    2  A    between atoms: C1_5  and  O1_6
REMARK    3  A    between atoms: C5_16  and  O5_17
REMARK    4  A    between atoms: O5_17  and  C6_18
REMARK    5  A    between atoms: C7_19  and  O6_20
REMARK    6  A    between atoms: C9_23  and  C10_24
REMARK    7  A    between atoms: C10_24  and  O7_25
REMARK    8  A    between atoms: C10_24  and  O8_27
REMARK    9  A    between atoms: C12_30  and  C13_31
REMARK   10  A    between atoms: C13_31  and  O9_32
REMARK   11  A    between atoms: C13_31  and  O10_34
ROOT
HETATM    1  C6  UNL     1      22.563   1.108  19.485  1.00  0.00     0.114 A
HETATM    2  C7  UNL     1      23.340   0.259  20.290  1.00  0.00     0.100 A
HETATM    3  C8  UNL     1      22.845  -0.871  20.892  1.00  0.00     0.051 A
HETATM    4  C9  UNL     1      21.542  -1.205  20.715  1.00  0.00    -0.001 A
HETATM    5  C11 UNL     1      20.750  -0.422  19.950  1.00  0.00     0.027 A
HETATM    6  C12 UNL     1      21.267   0.743  19.334  1.00  0.00     0.033 A
ENDROOT
BRANCH   1   7
HETATM    7  O5  UNL     1      23.110   2.210  18.907  1.00  0.00    -0.327 OA
BRANCH   7   8
HETATM    8  C5  UNL     1      23.792   2.227  17.665  1.00  0.00     0.292 C
HETATM    9  C1  UNL     1      23.503   3.398  16.771  1.00  0.00     0.328 C
HETATM   10  C2  UNL     1      23.441   4.591  17.655  1.00  0.00     0.282 C
HETATM   11  O2  UNL     1      22.487   5.395  17.631  1.00  0.00    -0.282 OA
HETATM   12  C3  UNL     1      24.575   4.774  18.567  1.00  0.00     0.299 C
HETATM   13  O3  UNL     1      24.747   5.854  19.177  1.00  0.00    -0.264 OA
HETATM   14  N2  UNL     1      25.482   3.691  18.745  1.00  0.00    -0.288 N
HETATM   15  C4  UNL     1      25.249   2.488  18.037  1.00  0.00     0.259 C
ATOM     16  H2  UNL     1      26.282   3.781  19.370  1.00  0.00     0.172 HD
HETATM   17  O4  UNL     1      26.130   1.668  17.713  1.00  0.00    -0.270 OA
BRANCH   9  18
HETATM   18  N1  UNL     1      22.453   3.259  15.840  1.00  0.00    -0.036 N
ATOM     19  H13 UNL     1      22.583   2.487  15.186  1.00  0.00     0.278 HD
ATOM     20  H12 UNL     1      21.582   2.924  16.249  1.00  0.00     0.278 HD
ATOM     21  H11 UNL     1      22.371   4.170  15.389  1.00  0.00     0.278 HD
ENDBRANCH   9  18
BRANCH   9  22
HETATM   22  O1  UNL     1      24.678   3.622  15.986  1.00  0.00    -0.357 OA
ATOM     23  H1  UNL     1      25.032   4.448  16.293  1.00  0.00     0.213 HD
ENDBRANCH   9  22
ENDBRANCH   7   8
ENDBRANCH   1   7
BRANCH   2  24
HETATM   24  O6  UNL     1      24.655   0.552  20.502  1.00  0.00    -0.358 OA
ATOM     25  H6  UNL     1      24.887   1.292  21.051  1.00  0.00     0.217 HD
ENDBRANCH   2  24
BRANCH   6  26
HETATM   26  C13 UNL     1      20.271   1.553  18.623  1.00  0.00     0.291 C
BRANCH  26  27
HETATM   27  O9  UNL     1      20.521   1.451  17.211  1.00  0.00    -0.367 OA
ATOM     28  H9  UNL     1      21.248   2.020  16.991  1.00  0.00     0.213 HD
ENDBRANCH  26  27
BRANCH  26  29
HETATM   29  O10 UNL     1      18.982   0.998  18.714  1.00  0.00    -0.367 OA
ATOM     30  H10 UNL     1      18.554   0.958  17.867  1.00  0.00     0.213 HD
ENDBRANCH  26  29
ENDBRANCH   6  26
BRANCH   4  31
HETATM   31  C10 UNL     1      21.010  -2.446  21.376  1.00  0.00     0.288 C
BRANCH  31  32
HETATM   32  O7  UNL     1      19.808  -2.056  21.991  1.00  0.00    -0.367 OA
ATOM     33  H7  UNL     1      19.138  -2.160  21.325  1.00  0.00     0.213 HD
ENDBRANCH  31  32
BRANCH  31  34
HETATM   34  O8  UNL     1      20.795  -3.443  20.436  1.00  0.00    -0.367 OA
ATOM     35  H8  UNL     1      20.678  -4.284  20.864  1.00  0.00     0.213 HD
ENDBRANCH  31  34
ENDBRANCH   4  31
TORSDOF 11
ENDMDL