MODEL 3
REMARK VINA RESULT: -5.494376714      1.842      2.741
REMARK  5 active torsions:
REMARK  status: ('A' for Active; 'I' for Inactive)
REMARK       I    between atoms: C1_2  and  N1_3
REMARK    1  A    between atoms: C1_2  and  C9_25
REMARK       I    between atoms: N1_3  and  C2_5
REMARK       I    between atoms: C2_5  and  N3_10
REMARK    2  A    between atoms: N2_6  and  O2_8
REMARK    3  A    between atoms: C4_12  and  C5_13
REMARK    4  A    between atoms: C5_13  and  O3_14
REMARK    5  A    between atoms: C7_21  and  C8_22
ROOT
HETATM    1  O1  UNL     1      24.918   7.870  15.196  1.00  0.00    -0.263 OA
HETATM    2  C1  UNL     1      23.776   7.468  14.948  1.00  0.00     0.306 C
HETATM    3  N1  UNL     1      23.530   6.472  13.993  1.00  0.00    -0.151 N
ATOM      4  H1  UNL     1      22.563   6.185  13.838  1.00  0.00     0.188 HD
HETATM    5  C2  UNL     1      24.523   5.852  13.246  1.00  0.00     0.704 C
HETATM    6  N2  UNL     1      24.117   4.909  12.366  1.00  0.00    -0.099 N
ATOM      7  H2  UNL     1      24.812   4.427  11.796  1.00  0.00     0.213 HD
HETATM    8  N3  UNL     1      25.911   6.036  13.244  1.00  0.00    -0.182 N
HETATM    9  C3  UNL     1      27.085   5.972  14.054  1.00  0.00     0.178 C
HETATM   10  C4  UNL     1      27.912   5.657  12.775  1.00  0.00     0.133 C
HETATM   11  N4  UNL     1      27.751   4.290  12.413  1.00  0.00    -0.120 NA
HETATM   12  N5  UNL     1      27.089   4.276  11.189  1.00  0.00    -0.270 N
ATOM     13  H5  UNL     1      27.058   3.482  10.549  1.00  0.00     0.185 HD
HETATM   14  C6  UNL     1      26.466   5.523  10.966  1.00  0.00     0.275 C
HETATM   15  O4  UNL     1      25.750   5.932  10.023  1.00  0.00    -0.269 OA
HETATM   16  C7  UNL     1      26.808   6.398  12.135  1.00  0.00     0.246 C
ENDROOT
BRANCH   6  17
HETATM   17  O2  UNL     1      22.814   4.590  12.223  1.00  0.00    -0.276 OA
ATOM     18  H2  UNL     1      22.450   4.349  11.379  1.00  0.00     0.245 HD
ENDBRANCH   6  17
BRANCH   2  19
HETATM   19  C9  UNL     1      22.693   8.095  15.714  1.00  0.00     0.201 A
HETATM   20  N6  UNL     1      22.175   9.308  15.559  1.00  0.00    -0.266 N
HETATM   21  N7  UNL     1      21.217   9.435  16.481  1.00  0.00    -0.007 NA
ATOM     22  H6  UNL     1      22.454  10.007  14.870  1.00  0.00     0.185 HD
HETATM   23  N8  UNL     1      21.139   8.324  17.196  1.00  0.00    -0.007 NA
HETATM   24  N9  UNL     1      22.055   7.491  16.721  1.00  0.00    -0.266 N
ATOM     25  H9  UNL     1      22.241   6.549  17.066  1.00  0.00     0.185 HD
ENDBRANCH   2  19
BRANCH  16  26
HETATM   26  C8  UNL     1      26.919   7.791  11.793  1.00  0.00     0.215 C
HETATM   27  O5  UNL     1      26.349   8.782  12.276  1.00  0.00    -0.646 OA
HETATM   28  O6  UNL     1      27.816   8.096  10.743  1.00  0.00    -0.646 OA
ENDBRANCH  16  26
BRANCH  10  29
HETATM   29  C5  UNL     1      29.266   6.228  12.827  1.00  0.00     0.198 C
BRANCH  29  30
HETATM   30  O3  UNL     1      29.970   5.945  11.659  1.00  0.00    -0.399 OA
ATOM     31  H3  UNL     1      30.209   6.745  11.205  1.00  0.00     0.209 HD
ENDBRANCH  29  30
ENDBRANCH  10  29
TORSDOF 5
ENDMDL