MODEL 5
REMARK VINA RESULT: -5.668330908      2.178      4.507
REMARK  7 active torsions:
REMARK  status: ('A' for Active; 'I' for Inactive)
REMARK    1  A    between atoms: N1_1  and  C1_5
REMARK    2  A    between atoms: C1_5  and  C2_6
REMARK       I    between atoms: C2_6  and  N2_8
REMARK    3  A    between atoms: N2_8  and  C3_10
REMARK    4  A    between atoms: C6_18  and  C7_19
REMARK    5  A    between atoms: N7_25  and  C9_26
REMARK    6  A    between atoms: C10_29  and  O4_30
REMARK    7  A    between atoms: C11_32  and  O5_33
ROOT
HETATM    1  C3  UNL     1      23.929   5.455  17.932  1.00  0.00     0.691 A
HETATM    2  N3  UNL     1      24.151   6.789  17.907  1.00  0.00    -0.182 N
ATOM      3  H3  UNL     1      24.314   7.368  18.730  1.00  0.00     0.184 HD
HETATM    4  C4  UNL     1      24.126   7.232  16.672  1.00  0.00     0.162 A
HETATM    5  C5  UNL     1      24.267   8.449  16.038  1.00  0.00     0.278 A
HETATM    6  O2  UNL     1      24.495   9.441  16.801  1.00  0.00    -0.265 OA
HETATM    7  N4  UNL     1      24.171   8.583  14.709  1.00  0.00    -0.303 N
ATOM      8  H4  UNL     1      24.284   9.502  14.278  1.00  0.00     0.171 HD
HETATM    9  C6  UNL     1      23.928   7.506  13.946  1.00  0.00     0.176 A
HETATM   10  N6  UNL     1      23.786   6.301  14.543  1.00  0.00    -0.322 N
ATOM     11  H6  UNL     1      23.601   5.490  13.953  1.00  0.00     0.169 HD
HETATM   12  C8  UNL     1      23.876   6.112  15.870  1.00  0.00     0.160 A
HETATM   13  N7  UNL     1      23.761   5.015  16.684  1.00  0.00    -0.142 N
ENDROOT
BRANCH   1  14
HETATM   14  N2  UNL     1      23.891   4.804  19.198  1.00  0.00    -0.158 N
HETATM   15  C2  UNL     1      25.014   4.349  19.895  1.00  0.00     0.261 C
HETATM   16  O1  UNL     1      24.785   3.812  21.051  1.00  0.00    -0.271 OA
ATOM     17  H2  UNL     1      22.977   4.658  19.627  1.00  0.00     0.187 HD
BRANCH  15  18
HETATM   18  C1  UNL     1      26.410   4.440  19.408  1.00  0.00     0.332 C
BRANCH  18  19
HETATM   19  N1  UNL     1      26.744   3.191  18.710  1.00  0.00    -0.071 N
ATOM     20  H13 UNL     1      26.320   3.135  17.784  1.00  0.00     0.274 HD
ATOM     21  H12 UNL     1      27.720   3.154  18.418  1.00  0.00     0.274 HD
ATOM     22  H11 UNL     1      26.485   2.405  19.307  1.00  0.00     0.274 HD
ENDBRANCH  18  19
ENDBRANCH  15  18
ENDBRANCH   1  14
BRANCH  13  23
HETATM   23  C9  UNL     1      23.534   3.668  16.274  1.00  0.00     0.252 C
HETATM   24  N8  UNL     1      24.488   2.708  16.782  1.00  0.00    -0.116 NA
HETATM   25  N9  UNL     1      23.793   1.476  16.654  1.00  0.00    -0.112 NA
HETATM   26  C10 UNL     1      22.673   1.819  17.568  1.00  0.00     0.259 C
HETATM   27  C11 UNL     1      22.237   3.112  16.816  1.00  0.00     0.205 C
BRANCH  26  28
HETATM   28  O4  UNL     1      21.696   0.859  17.537  1.00  0.00    -0.376 OA
ATOM     29  H4  UNL     1      21.214   0.833  18.355  1.00  0.00     0.211 HD
ENDBRANCH  26  28
BRANCH  27  30
HETATM   30  O5  UNL     1      21.426   2.568  15.792  1.00  0.00    -0.388 OA
ATOM     31  H5  UNL     1      21.456   1.619  15.782  1.00  0.00     0.210 HD
ENDBRANCH  27  30
ENDBRANCH  13  23
BRANCH   9  32
HETATM   32  C7  UNL     1      23.811   7.578  12.507  1.00  0.00     0.298 C
HETATM   33  N5  UNL     1      24.237   6.505  11.703  1.00  0.00    -0.054 NA
HETATM   34  O3  UNL     1      23.330   8.594  11.960  1.00  0.00    -0.268 OA
ENDBRANCH   9  32
TORSDOF 7
ENDMDL