MODEL 3
REMARK VINA RESULT: -5.006515270      3.410      4.973
REMARK  10 active torsions:
REMARK  status: ('A' for Active; 'I' for Inactive)
REMARK    1  A    between atoms: C2_2  and  N1_3
REMARK    2  A    between atoms: C9_14  and  O3_15
REMARK    3  A    between atoms: C10_17  and  C11_18
REMARK    4  A    between atoms: C11_18  and  O4_19
REMARK    5  A    between atoms: C11_18  and  C12_21
REMARK    6  A    between atoms: C12_21  and  O5_22
REMARK    7  A    between atoms: C12_21  and  C13_24
REMARK    8  A    between atoms: C13_24  and  O6_25
REMARK    9  A    between atoms: C13_24  and  N3_27
REMARK   10  A    between atoms: N3_27  and  O7_28
ROOT
HETATM    1  N1  UNL     1      21.318   0.837  19.010  1.00  0.00    -0.230 NA
HETATM    2  C3  UNL     1      21.869   2.003  18.261  1.00  0.00     0.133 C
HETATM    3  C4  UNL     1      23.333   1.805  17.930  1.00  0.00     0.139 C
HETATM    4  N2  UNL     1      24.032   1.990  19.182  1.00  0.00    -0.359 N
ATOM      5  H2  UNL     1      24.341   2.920  19.465  1.00  0.00     0.162 HD
HETATM    6  C5  UNL     1      24.280   0.885  20.005  1.00  0.00     0.234 C
HETATM    7  O1  UNL     1      24.097   0.999  21.242  1.00  0.00    -0.272 OA
HETATM    8  C6  UNL     1      24.741  -0.364  19.449  1.00  0.00     0.120 C
HETATM    9  C7  UNL     1      25.948  -0.230  18.488  1.00  0.00     0.034 C
HETATM   10  C8  UNL     1      25.256  -1.321  20.549  1.00  0.00     0.197 C
HETATM   11  O2  UNL     1      24.571  -2.294  19.874  1.00  0.00    -0.348 OA
HETATM   12  C9  UNL     1      23.841  -1.413  19.042  1.00  0.00     0.224 C
HETATM   13  C10 UNL     1      22.378  -1.378  19.211  1.00  0.00     0.093 C
HETATM   14  N4  UNL     1      21.757  -0.313  18.522  1.00  0.00    -0.319 N
ATOM     15  H4  UNL     1      21.629  -0.447  17.519  1.00  0.00     0.180 HD
ENDROOT
BRANCH  13  16
HETATM   16  C11 UNL     1      21.783  -1.763  20.533  1.00  0.00     0.203 C
BRANCH  16  17
HETATM   17  O4  UNL     1      20.367  -1.730  20.261  1.00  0.00    -0.387 OA
ATOM     18  H4  UNL     1      19.999  -2.145  21.032  1.00  0.00     0.210 HD
ENDBRANCH  16  17
BRANCH  16  19
HETATM   19  C12 UNL     1      21.847  -3.185  20.946  1.00  0.00     0.199 C
BRANCH  19  20
HETATM   20  O5  UNL     1      21.225  -4.031  19.999  1.00  0.00    -0.389 OA
ATOM     21  H5  UNL     1      20.685  -4.690  20.420  1.00  0.00     0.210 HD
ENDBRANCH  19  20
BRANCH  19  22
HETATM   22  C13 UNL     1      21.087  -3.365  22.248  1.00  0.00     0.269 C
BRANCH  22  23
HETATM   23  O6  UNL     1      20.724  -2.223  22.895  1.00  0.00    -0.375 OA
ATOM     24  H6  UNL     1      19.895  -2.249  23.357  1.00  0.00     0.211 HD
ENDBRANCH  22  23
BRANCH  22  25
HETATM   25  N3  UNL     1      19.923  -4.230  22.043  1.00  0.00    -0.069 NA
BRANCH  25  26
HETATM   26  O7  UNL     1      18.885  -3.366  21.836  1.00  0.00    -0.294 OA
ATOM     27  H7  UNL     1      18.207  -3.899  21.438  1.00  0.00     0.238 HD
ENDBRANCH  25  26
ENDBRANCH  22  25
ENDBRANCH  19  22
ENDBRANCH  16  19
ENDBRANCH  13  16
BRANCH  12  28
HETATM   28  O3  UNL     1      24.176  -1.914  17.736  1.00  0.00    -0.360 OA
ATOM     29  H3  UNL     1      24.541  -2.790  17.783  1.00  0.00     0.213 HD
ENDBRANCH  12  28
BRANCH   1  30
HETATM   30  C2  UNL     1      19.891   1.130  18.936  1.00  0.00     0.109 C
HETATM   31  C1  UNL     1      19.204   0.550  17.744  1.00  0.00     0.023 C
ENDBRANCH   1  30
TORSDOF 10
ENDMDL