MODEL 1
REMARK VINA RESULT: -6.377319675      0.000      0.000
REMARK  8 active torsions:
REMARK  status: ('A' for Active; 'I' for Inactive)
REMARK    1  A    between atoms: N1_4  and  C4_5
REMARK    2  A    between atoms: C4_5  and  C5_6
REMARK       I    between atoms: C5_6  and  N2_8
REMARK    3  A    between atoms: N2_8  and  C6_10
REMARK    4  A    between atoms: C8_12  and  N3_13
REMARK    5  A    between atoms: N3_13  and  N4_15
REMARK    6  A    between atoms: C10_24  and  N10_25
REMARK    7  A    between atoms: N10_25  and  O2_27
REMARK    8  A    between atoms: C11_31  and  N12_32
ROOT
HETATM    1  C6  UNL     1      23.306   4.868  15.245  1.00  0.00     0.127 A
HETATM    2  C7  UNL     1      23.639   6.220  14.967  1.00  0.00     0.099 A
HETATM    3  C8  UNL     1      23.806   6.693  13.699  1.00  0.00     0.140 A
HETATM    4  N9  UNL     1      23.644   5.827  12.685  1.00  0.00    -0.173 N
ATOM      5  H9  UNL     1      23.763   6.159  11.728  1.00  0.00     0.186 HD
HETATM    6  C10 UNL     1      23.329   4.537  12.892  1.00  0.00     0.705 A
HETATM    7  N11 UNL     1      23.167   4.086  14.165  1.00  0.00    -0.175 N
ATOM      8  H11 UNL     1      22.928   3.103  14.304  1.00  0.00     0.186 HD
ENDROOT
BRANCH   1   9
HETATM    9  N2  UNL     1      23.155   4.465  16.579  1.00  0.00    -0.311 N
HETATM   10  C5  UNL     1      23.492   3.225  17.122  1.00  0.00     0.242 C
HETATM   11  O1  UNL     1      23.984   2.275  16.475  1.00  0.00    -0.271 OA
ATOM     12  H2  UNL     1      22.757   5.151  17.221  1.00  0.00     0.170 HD
BRANCH  10  13
HETATM   13  C4  UNL     1      23.260   2.962  18.607  1.00  0.00     0.250 C
BRANCH  13  14
HETATM   14  N1  UNL     1      22.260   1.927  18.682  1.00  0.00    -0.183 N
HETATM   15  C3  UNL     1      21.023   1.963  18.120  1.00  0.00     0.134 A
HETATM   16  C2  UNL     1      20.352   0.805  18.404  1.00  0.00     0.038 A
HETATM   17  C1  UNL     1      18.984   0.435  17.987  1.00  0.00     0.070 C
HETATM   18  N13 UNL     1      21.168   0.057  19.137  1.00  0.00    -0.195 N
HETATM   19  C11 UNL     1      22.327   0.743  19.304  1.00  0.00     0.678 A
ATOM     20  H13 UNL     1      20.960  -0.870  19.509  1.00  0.00     0.184 HD
BRANCH  19  21
HETATM   21  N12 UNL     1      23.311   0.267  19.976  1.00  0.00    -0.234 N
ATOM     22 2H12 UNL     1      24.265   0.267  19.614  1.00  0.00     0.174 HD
ATOM     23 1H12 UNL     1      23.284  -0.152  20.905  1.00  0.00     0.174 HD
ENDBRANCH  19  21
ENDBRANCH  13  14
ENDBRANCH  10  13
ENDBRANCH   1   9
BRANCH   3  24
HETATM   24  N3  UNL     1      24.093   7.893  13.463  1.00  0.00    -0.263 N
ATOM     25  H3  UNL     1      23.424   8.557  13.852  1.00  0.00     0.190 HD
BRANCH  24  26
HETATM   26  N4  UNL     1      25.117   8.482  12.794  1.00  0.00    -0.148 N
HETATM   27  N5  UNL     1      26.244   9.228  13.184  1.00  0.00     0.017 NA
HETATM   28  N6  UNL     1      26.386  10.131  12.119  1.00  0.00    -0.004 NA
HETATM   29  N7  UNL     1      25.986   9.437  11.000  1.00  0.00    -0.257 N
HETATM   30  C9  UNL     1      25.221   8.437  11.354  1.00  0.00     0.240 C
ATOM     31  H7  UNL     1      26.245   9.668  10.040  1.00  0.00     0.186 HD
HETATM   32  N8  UNL     1      24.646   7.534  10.447  1.00  0.00    -0.059 NA
ENDBRANCH  24  26
ENDBRANCH   3  24
BRANCH   6  33
HETATM   33  N10 UNL     1      23.174   3.700  11.908  1.00  0.00    -0.098 N
ATOM     34  H10 UNL     1      23.137   4.028  10.943  1.00  0.00     0.213 HD
BRANCH  33  35
HETATM   35  O2  UNL     1      23.063   2.359  12.203  1.00  0.00    -0.276 OA
ATOM     36  H2  UNL     1      23.802   1.793  12.013  1.00  0.00     0.245 HD
ENDBRANCH  33  35
ENDBRANCH   6  33
TORSDOF 8
ENDMDL