MODEL 4
REMARK VINA RESULT: -9.557074995      2.190      3.461
REMARK  8 active torsions:
REMARK  status: ('A' for Active; 'I' for Inactive)
REMARK       I    between atoms: C1_4  and  N3_6
REMARK    1  A    between atoms: N3_6  and  C2_8
REMARK    2  A    between atoms: C2_8  and  C3_9
REMARK    3  A    between atoms: C2_8  and  C5_13
REMARK    4  A    between atoms: C3_9  and  C4_10
REMARK    5  A    between atoms: C5_13  and  C6_15
REMARK    6  A    between atoms: C6_15  and  N5_16
REMARK       I    between atoms: N5_16  and  C7_18
REMARK    7  A    between atoms: C7_18  and  C8_20
REMARK    8  A    between atoms: C13_25  and  N6_26
ROOT
HETATM    1  C6  UNL     1      61.051  32.635  76.014  1.00  0.00     0.203 C
ENDROOT
BRANCH   1   2
HETATM    2  C5  UNL     1      59.851  32.544  75.145  1.00  0.00     0.167 C
HETATM    3  O2  UNL     1      60.005  32.576  73.944  1.00  0.00    -0.294 OA
BRANCH   2   4
HETATM    4  C2  UNL     1      58.482  32.418  75.693  1.00  0.00     0.164 C
BRANCH   4   5
HETATM    5  N3  UNL     1      58.552  32.202  77.124  1.00  0.00    -0.353 N
HETATM    6  C1  UNL     1      57.751  31.229  77.779  1.00  0.00     0.182 C
HETATM    7  N1  UNL     1      58.241  30.525  78.768  1.00  0.00    -0.374 N
HETATM    8  N2  UNL     1      56.409  30.966  77.414  1.00  0.00    -0.064 NA
ATOM      9  H12 UNL     1      57.666  29.827  79.239  1.00  0.00     0.158 HD
ATOM     10  H11 UNL     1      59.208  30.715  79.031  1.00  0.00     0.158 HD
ATOM     11  H3  UNL     1      59.198  32.765  77.678  1.00  0.00     0.163 HD
ENDBRANCH   4   5
BRANCH   4  12
HETATM   12  C3  UNL     1      57.778  33.749  75.413  1.00  0.00     0.132 C
BRANCH  12  13
HETATM   13  C4  UNL     1      57.712  34.558  76.654  1.00  0.00     0.233 C
HETATM   14  N4  UNL     1      58.762  35.366  77.135  1.00  0.00    -0.062 NA
HETATM   15  O1  UNL     1      56.630  34.509  77.317  1.00  0.00    -0.277 OA
ENDBRANCH  12  13
ENDBRANCH   4  12
ENDBRANCH   2   4
ENDBRANCH   1   2
BRANCH   1  16
HETATM   16  N5  UNL     1      61.505  34.011  76.107  1.00  0.00    -0.354 N
HETATM   17  C7  UNL     1      62.120  34.489  77.280  1.00  0.00     0.224 C
HETATM   18  O3  UNL     1      62.277  33.693  78.266  1.00  0.00    -0.273 OA
ATOM     19  H5  UNL     1      61.378  34.639  75.314  1.00  0.00     0.162 HD
BRANCH  17  20
HETATM   20  C8  UNL     1      62.606  35.876  77.458  1.00  0.00     0.108 C
HETATM   21  C9  UNL     1      63.755  36.175  76.525  1.00  0.00     0.016 C
HETATM   22  C10 UNL     1      65.097  36.190  77.181  1.00  0.00     0.001 C
HETATM   23  C11 UNL     1      65.153  37.056  78.412  1.00  0.00     0.002 C
HETATM   24  C12 UNL     1      63.767  37.450  78.878  1.00  0.00     0.033 C
HETATM   25  C13 UNL     1      62.964  36.140  78.904  1.00  0.00     0.196 C
BRANCH  25  26
HETATM   26  N6  UNL     1      61.773  36.289  79.682  1.00  0.00    -0.074 N
ATOM     27  H63 UNL     1      61.068  35.594  79.439  1.00  0.00     0.274 HD
ATOM     28  H62 UNL     1      61.916  36.021  80.656  1.00  0.00     0.274 HD
ATOM     29  H61 UNL     1      61.418  37.242  79.597  1.00  0.00     0.274 HD
ENDBRANCH  25  26
ENDBRANCH  17  20
ENDBRANCH   1  16
TORSDOF 8
ENDMDL