MODEL 1
REMARK VINA RESULT: -8.844695185      0.000      0.000
REMARK  7 active torsions:
REMARK  status: ('A' for Active; 'I' for Inactive)
REMARK       I    between atoms: C1_4  and  N3_6
REMARK    1  A    between atoms: N3_6  and  C2_8
REMARK    2  A    between atoms: C4_10  and  C5_11
REMARK    3  A    between atoms: C6_15  and  C7_16
REMARK    4  A    between atoms: C7_16  and  N4_17
REMARK    5  A    between atoms: N4_17  and  C8_20
REMARK    6  A    between atoms: C8_20  and  C9_21
REMARK       I    between atoms: C9_21  and  N5_23
REMARK    7  A    between atoms: N5_23  and  C10_25
ROOT
HETATM    1  C2  UNL     1      63.218  36.053  72.947  1.00  0.00     0.117 C
HETATM    2  C3  UNL     1      63.962  36.458  74.227  1.00  0.00     0.071 C
HETATM    3  C4  UNL     1      62.811  36.506  75.208  1.00  0.00     0.224 C
HETATM    4  O3  UNL     1      61.645  36.530  74.499  1.00  0.00    -0.366 OA
HETATM    5  C6  UNL     1      61.909  36.743  73.174  1.00  0.00     0.171 C
ENDROOT
BRANCH   5   6
HETATM    6  C7  UNL     1      60.783  36.176  72.335  1.00  0.00     0.266 C
BRANCH   6   7
HETATM    7  N4  UNL     1      59.613  36.997  72.571  1.00  0.00    -0.064 N
ATOM      8  H42 UNL     1      59.765  37.650  73.340  1.00  0.00     0.277 HD
ATOM      9  H41 UNL     1      59.472  37.670  71.817  1.00  0.00     0.277 HD
BRANCH   7  10
HETATM   10  C8  UNL     1      58.427  36.189  72.788  1.00  0.00     0.334 C
BRANCH  10  11
HETATM   11  C9  UNL     1      58.361  35.695  74.186  1.00  0.00     0.243 C
HETATM   12  O4  UNL     1      58.006  36.483  75.092  1.00  0.00    -0.272 OA
HETATM   13  N5  UNL     1      58.687  34.367  74.520  1.00  0.00    -0.355 N
ATOM     14  H5  UNL     1      58.974  33.741  73.767  1.00  0.00     0.162 HD
BRANCH  13  15
HETATM   15  C10 UNL     1      58.641  33.841  75.856  1.00  0.00     0.084 C
HETATM   16  C11 UNL     1      57.313  33.248  76.231  1.00  0.00     0.025 C
HETATM   17  C12 UNL     1      57.843  31.889  75.825  1.00  0.00     0.004 C
HETATM   18  C13 UNL     1      59.242  32.444  75.997  1.00  0.00     0.025 C
ENDBRANCH  13  15
ENDBRANCH  10  11
ENDBRANCH   7  10
ENDBRANCH   6   7
ENDBRANCH   5   6
BRANCH   1  19
HETATM   19  N3  UNL     1      63.914  36.507  71.775  1.00  0.00    -0.358 N
HETATM   20  C1  UNL     1      65.151  35.886  71.454  1.00  0.00     0.182 C
HETATM   21  N1  UNL     1      65.226  34.610  71.330  1.00  0.00    -0.374 N
HETATM   22  N2  UNL     1      66.346  36.634  71.257  1.00  0.00    -0.064 NA
ATOM     23  H12 UNL     1      66.114  34.164  71.099  1.00  0.00     0.158 HD
ATOM     24  H11 UNL     1      64.369  34.075  71.471  1.00  0.00     0.158 HD
ATOM     25  H3  UNL     1      63.532  37.252  71.191  1.00  0.00     0.162 HD
ENDBRANCH   1  19
BRANCH   3  26
HETATM   26  C5  UNL     1      62.913  35.289  76.056  1.00  0.00     0.203 C
HETATM   27  O1  UNL     1      62.201  34.283  75.815  1.00  0.00    -0.646 OA
HETATM   28  O2  UNL     1      63.790  35.225  77.128  1.00  0.00    -0.646 OA
ENDBRANCH   3  26
TORSDOF 7
ENDMDL