MODEL 4
REMARK VINA RESULT: -7.863448503      2.824      4.563
REMARK  9 active torsions:
REMARK  status: ('A' for Active; 'I' for Inactive)
REMARK    1  A    between atoms: C2_2  and  N1_3
REMARK    2  A    between atoms: C2_2  and  C3_7
REMARK       I    between atoms: C3_7  and  N2_9
REMARK    3  A    between atoms: N2_9  and  C4_11
REMARK    4  A    between atoms: C4_11  and  C5_12
REMARK    5  A    between atoms: C4_11  and  C6_14
REMARK    6  A    between atoms: C6_14  and  N4_18
REMARK    7  A    between atoms: N4_18  and  C7_20
REMARK    8  A    between atoms: C7_20  and  C8_21
REMARK    9  A    between atoms: C10_25  and  C11_26
ROOT
HETATM    1  C6  UNL     1      61.615  36.094  75.304  1.00  0.00     0.095 C
HETATM    2  N3  UNL     1      61.222  36.799  76.352  1.00  0.00    -0.387 N
ATOM      3  H31 UNL     1      60.316  37.264  76.288  1.00  0.00     0.157 HD
ATOM      4  H32 UNL     1      61.864  36.814  77.145  1.00  0.00     0.157 HD
ENDROOT
BRANCH   1   5
HETATM    5  C4  UNL     1      62.910  35.429  75.395  1.00  0.00     0.161 C
BRANCH   5   6
HETATM    6  N2  UNL     1      63.993  36.062  74.684  1.00  0.00    -0.347 N
HETATM    7  C3  UNL     1      64.150  35.796  73.302  1.00  0.00     0.248 C
HETATM    8  O1  UNL     1      63.347  35.023  72.731  1.00  0.00    -0.271 OA
ATOM      9  H2  UNL     1      64.634  36.690  75.167  1.00  0.00     0.163 HD
BRANCH   7  10
HETATM   10  C2  UNL     1      65.234  36.394  72.483  1.00  0.00     0.270 C
HETATM   11  C1  UNL     1      64.713  37.093  71.246  1.00  0.00     0.050 C
BRANCH  10  12
HETATM   12  N1  UNL     1      66.188  35.399  72.048  1.00  0.00    -0.067 N
ATOM     13  H13 UNL     1      66.834  35.118  72.785  1.00  0.00     0.275 HD
ATOM     14  H12 UNL     1      65.764  34.485  71.887  1.00  0.00     0.275 HD
ATOM     15  H11 UNL     1      66.660  35.769  71.223  1.00  0.00     0.275 HD
ENDBRANCH  10  12
ENDBRANCH   7  10
ENDBRANCH   5   6
BRANCH   5  16
HETATM   16  C5  UNL     1      63.386  35.325  76.844  1.00  0.00     0.119 C
HETATM   17  S1  UNL     1      64.848  36.349  77.066  1.00  0.00    -0.095 SA
ENDBRANCH   5  16
ENDBRANCH   1   5
BRANCH   1  18
HETATM   18  N4  UNL     1      60.727  36.072  74.205  1.00  0.00    -0.360 N
ATOM     19  H4  UNL     1      60.970  36.587  73.359  1.00  0.00     0.162 HD
BRANCH  18  20
HETATM   20  C7  UNL     1      59.486  35.341  74.251  1.00  0.00     0.124 A
HETATM   21  C9  UNL     1      58.894  34.998  72.877  1.00  0.00     0.060 A
HETATM   22  C10 UNL     1      59.354  33.940  73.862  1.00  0.00     0.127 A
BRANCH  20  23
HETATM   23  C8  UNL     1      58.409  35.956  75.109  1.00  0.00     0.260 C
HETATM   24  N5  UNL     1      58.189  35.407  76.379  1.00  0.00    -0.060 NA
HETATM   25  O2  UNL     1      57.756  36.928  74.656  1.00  0.00    -0.274 OA
ENDBRANCH  20  23
BRANCH  22  26
HETATM   26  C11 UNL     1      60.487  33.154  73.342  1.00  0.00     0.180 C
HETATM   27  O3  UNL     1      60.722  33.103  72.120  1.00  0.00    -0.648 OA
HETATM   28  O4  UNL     1      61.299  32.465  74.214  1.00  0.00    -0.648 OA
ENDBRANCH  22  26
ENDBRANCH  18  20
ENDBRANCH   1  18
TORSDOF 9
ENDMDL