MODEL 4
REMARK VINA RESULT: -8.035851966      1.671      2.036
REMARK  9 active torsions:
REMARK  status: ('A' for Active; 'I' for Inactive)
REMARK    1  A    between atoms: C2_2  and  N1_3
REMARK    2  A    between atoms: N1_3  and  C3_5
REMARK    3  A    between atoms: C3_5  and  N2_7
REMARK    4  A    between atoms: N2_7  and  C4_9
REMARK    5  A    between atoms: C4_9  and  C5_10
REMARK    6  A    between atoms: C8_13  and  O1_14
REMARK    7  A    between atoms: O1_14  and  C9_15
REMARK    8  A    between atoms: C9_15  and  C10_16
REMARK       I    between atoms: C10_16  and  N3_18
REMARK    9  A    between atoms: N3_18  and  N4_20
REMARK       I    between atoms: N4_20  and  C11_22
ROOT
HETATM    1  C5  UNL     1      62.438  35.239  73.966  1.00  0.00     0.142 C
HETATM    2  C6  UNL     1      62.255  36.246  72.864  1.00  0.00     0.038 C
HETATM    3  C7  UNL     1      60.861  36.791  73.110  1.00  0.00     0.063 C
HETATM    4  C8  UNL     1      60.488  36.208  74.415  1.00  0.00     0.260 C
HETATM    5  O3  UNL     1      61.170  34.985  74.498  1.00  0.00    -0.354 OA
ENDROOT
BRANCH   4   6
HETATM    6  O1  UNL     1      59.109  35.988  74.494  1.00  0.00    -0.352 OA
BRANCH   6   7
HETATM    7  C9  UNL     1      58.814  35.924  75.835  1.00  0.00     0.275 C
BRANCH   7   8
HETATM    8  C10 UNL     1      58.173  34.678  76.313  1.00  0.00     0.259 C
HETATM    9  O2  UNL     1      57.582  34.612  77.401  1.00  0.00    -0.269 OA
HETATM   10  N3  UNL     1      58.274  33.564  75.442  1.00  0.00    -0.266 N
ATOM     11  H3  UNL     1      58.795  33.708  74.578  1.00  0.00     0.190 HD
BRANCH  10  12
HETATM   12  N4  UNL     1      57.755  32.336  75.633  1.00  0.00    -0.271 N
HETATM   13  C11 UNL     1      57.939  31.343  76.607  1.00  0.00     0.200 C
HETATM   14  N5  UNL     1      59.087  30.913  76.926  1.00  0.00    -0.372 N
HETATM   15  N6  UNL     1      56.761  30.805  77.252  1.00  0.00    -0.062 NA
ATOM     16  H52 UNL     1      59.917  31.292  76.471  1.00  0.00     0.158 HD
ATOM     17  H51 UNL     1      59.220  30.191  77.634  1.00  0.00     0.158 HD
ATOM     18  H4  UNL     1      57.083  32.070  74.913  1.00  0.00     0.189 HD
ENDBRANCH  10  12
ENDBRANCH   7   8
ENDBRANCH   6   7
ENDBRANCH   4   6
BRANCH   1  19
HETATM   19  C4  UNL     1      63.340  35.867  75.010  1.00  0.00     0.154 C
BRANCH  19  20
HETATM   20  N2  UNL     1      63.293  35.229  76.295  1.00  0.00    -0.365 N
ATOM     21  H2  UNL     1      63.314  34.209  76.289  1.00  0.00     0.161 HD
BRANCH  20  22
HETATM   22  C3  UNL     1      63.222  35.833  77.556  1.00  0.00     0.167 C
HETATM   23  S1  UNL     1      61.759  35.914  78.295  1.00  0.00    -0.041 SA
BRANCH  22  24
HETATM   24  N1  UNL     1      64.318  36.370  78.219  1.00  0.00    -0.368 N
ATOM     25  H1  UNL     1      65.234  35.971  78.012  1.00  0.00     0.161 HD
BRANCH  24  26
HETATM   26  C2  UNL     1      64.265  37.450  79.180  1.00  0.00     0.117 C
HETATM   27  C1  UNL     1      65.632  37.903  79.624  1.00  0.00     0.026 C
ENDBRANCH  24  26
ENDBRANCH  22  24
ENDBRANCH  20  22
ENDBRANCH  19  20
ENDBRANCH   1  19
TORSDOF 9
ENDMDL