MODEL 3
REMARK VINA RESULT: -8.634665410      2.577      5.657
REMARK  9 active torsions:
REMARK  status: ('A' for Active; 'I' for Inactive)
REMARK       I    between atoms: C2_2  and  N1_4
REMARK    1  A    between atoms: N1_4  and  C3_6
REMARK    2  A    between atoms: C4_7  and  O2_8
REMARK    3  A    between atoms: C6_11  and  C7_12
REMARK    4  A    between atoms: C7_12  and  N3_14
REMARK    5  A    between atoms: N3_14  and  C8_16
REMARK    6  A    between atoms: C8_16  and  C9_17
REMARK    7  A    between atoms: C8_16  and  C10_20
REMARK    8  A    between atoms: C10_20  and  O4_22
REMARK    9  A    between atoms: C12_24  and  C13_25
ROOT
HETATM    1  C3  UNL     1      59.228  33.536  74.551  1.00  0.00     0.122 C
HETATM    2  C4  UNL     1      60.448  33.095  73.812  1.00  0.00     0.142 C
HETATM    3  C5  UNL     1      61.426  34.261  73.801  1.00  0.00     0.046 C
HETATM    4  C6  UNL     1      60.670  35.466  74.220  1.00  0.00     0.064 C
HETATM    5  C12 UNL     1      59.450  34.968  74.990  1.00  0.00     0.060 C
ENDROOT
BRANCH   4   6
HETATM    6  C7  UNL     1      61.459  36.462  75.064  1.00  0.00     0.094 C
HETATM    7  N2  UNL     1      61.818  37.537  74.236  1.00  0.00    -0.087 NA
BRANCH   6   8
HETATM    8  N3  UNL     1      61.001  36.651  76.367  1.00  0.00    -0.366 N
ATOM      9  H3  UNL     1      60.029  36.928  76.501  1.00  0.00     0.161 HD
BRANCH   8  10
HETATM   10  C8  UNL     1      61.800  36.483  77.500  1.00  0.00     0.200 C
BRANCH  10  11
HETATM   11  C9  UNL     1      62.409  35.135  77.546  1.00  0.00     0.256 C
HETATM   12  N4  UNL     1      61.705  33.928  77.356  1.00  0.00    -0.060 NA
HETATM   13  O3  UNL     1      63.646  35.037  77.774  1.00  0.00    -0.274 OA
ENDBRANCH  10  11
BRANCH  10  14
HETATM   14  C10 UNL     1      60.912  36.557  78.767  1.00  0.00     0.145 C
HETATM   15  C11 UNL     1      59.452  36.512  78.423  1.00  0.00     0.042 C
BRANCH  14  16
HETATM   16  O4  UNL     1      61.211  35.505  79.622  1.00  0.00    -0.393 OA
ATOM     17  H4  UNL     1      60.504  34.870  79.619  1.00  0.00     0.210 HD
ENDBRANCH  14  16
ENDBRANCH  10  14
ENDBRANCH   8  10
ENDBRANCH   6   8
ENDBRANCH   4   6
BRANCH   5  18
HETATM   18  C13 UNL     1      58.248  35.785  74.759  1.00  0.00     0.060 C
HETATM   19  N5  UNL     1      57.430  35.482  73.838  1.00  0.00    -0.411 N
ATOM     20  H52 UNL     1      57.621  34.663  73.261  1.00  0.00     0.155 HD
ATOM     21  H51 UNL     1      56.596  36.048  73.679  1.00  0.00     0.155 HD
ENDBRANCH   5  18
BRANCH   2  22
HETATM   22  O2  UNL     1      61.084  32.008  74.395  1.00  0.00    -0.393 OA
ATOM     23  H2  UNL     1      62.031  32.054  74.345  1.00  0.00     0.210 HD
ENDBRANCH   2  22
BRANCH   1  24
HETATM   24  N1  UNL     1      58.965  32.770  75.753  1.00  0.00    -0.354 N
HETATM   25  C2  UNL     1      57.645  32.555  76.223  1.00  0.00     0.214 C
HETATM   26  C1  UNL     1      57.436  31.768  77.453  1.00  0.00     0.117 C
HETATM   27  O1  UNL     1      56.668  33.043  75.578  1.00  0.00    -0.274 OA
ATOM     28  H1  UNL     1      59.749  32.377  76.274  1.00  0.00     0.163 HD
ENDBRANCH   1  24
TORSDOF 9
ENDMDL