MODEL 2
REMARK VINA RESULT: -9.037931915      1.041      1.548
REMARK  9 active torsions:
REMARK  status: ('A' for Active; 'I' for Inactive)
REMARK       I    between atoms: C1_4  and  N3_6
REMARK    1  A    between atoms: N3_6  and  N4_8
REMARK    2  A    between atoms: N4_8  and  C2_9
REMARK    3  A    between atoms: C2_9  and  C3_10
REMARK    4  A    between atoms: C2_9  and  C6_18
REMARK    5  A    between atoms: C3_10  and  N5_11
REMARK    6  A    between atoms: N5_11  and  C4_13
REMARK    7  A    between atoms: C4_13  and  O1_14
REMARK    8  A    between atoms: C4_13  and  C5_16
REMARK       I    between atoms: C6_18  and  N6_20
REMARK    9  A    between atoms: N6_20  and  C7_22
ROOT
HETATM    1  C2  UNL     1      59.320  35.041  74.890  1.00  0.00     0.208 C
ENDROOT
BRANCH   1   2
HETATM    2  N4  UNL     1      59.748  34.098  73.829  1.00  0.00    -0.123 NA
BRANCH   2   3
HETATM    3  N3  UNL     1      59.519  34.586  72.570  1.00  0.00    -0.277 N
HETATM    4  C1  UNL     1      59.800  35.979  72.337  1.00  0.00     0.197 C
HETATM    5  N1  UNL     1      60.972  36.392  72.036  1.00  0.00    -0.373 N
HETATM    6  N2  UNL     1      58.752  36.939  72.437  1.00  0.00    -0.063 NA
ATOM      7  H12 UNL     1      61.171  37.379  71.871  1.00  0.00     0.158 HD
ATOM      8  H11 UNL     1      61.723  35.705  71.964  1.00  0.00     0.158 HD
ATOM      9  H3  UNL     1      59.164  33.987  71.826  1.00  0.00     0.185 HD
ENDBRANCH   2   3
ENDBRANCH   1   2
BRANCH   1  10
HETATM   10  C3  UNL     1      57.923  34.768  75.273  1.00  0.00     0.149 C
BRANCH  10  11
HETATM   11  N5  UNL     1      57.536  33.412  75.420  1.00  0.00    -0.389 N
ATOM     12  H5  UNL     1      57.622  32.759  74.642  1.00  0.00     0.156 HD
BRANCH  11  13
HETATM   13  C4  UNL     1      57.027  32.985  76.673  1.00  0.00     0.276 C
BRANCH  13  14
HETATM   14  O1  UNL     1      57.600  33.846  77.647  1.00  0.00    -0.371 OA
ATOM     15  H1  UNL     1      57.117  34.662  77.595  1.00  0.00     0.212 HD
ENDBRANCH  13  14
BRANCH  13  16
HETATM   16  C5  UNL     1      57.453  31.612  77.014  1.00  0.00     0.283 C
HETATM   17  O2  UNL     1      56.647  30.724  77.295  1.00  0.00    -0.302 OA
ENDBRANCH  13  16
ENDBRANCH  11  13
ENDBRANCH  10  11
ENDBRANCH   1  10
BRANCH   1  18
HETATM   18  C6  UNL     1      60.345  35.036  75.927  1.00  0.00     0.240 C
HETATM   19  O3  UNL     1      60.477  33.982  76.671  1.00  0.00    -0.272 OA
HETATM   20  N6  UNL     1      61.212  36.098  76.195  1.00  0.00    -0.355 N
ATOM     21  H6  UNL     1      61.158  36.958  75.648  1.00  0.00     0.162 HD
BRANCH  20  22
HETATM   22  C7  UNL     1      62.215  35.963  77.284  1.00  0.00     0.084 C
HETATM   23  C8  UNL     1      61.974  37.140  78.205  1.00  0.00     0.025 C
HETATM   24  C9  UNL     1      62.581  36.762  79.541  1.00  0.00     0.002 C
HETATM   25  C10 UNL     1      63.976  37.278  79.707  1.00  0.00     0.000 C
HETATM   26  C11 UNL     1      64.742  37.303  78.402  1.00  0.00     0.000 C
HETATM   27  C12 UNL     1      64.678  36.004  77.653  1.00  0.00     0.002 C
HETATM   28  C13 UNL     1      63.555  35.936  76.649  1.00  0.00     0.025 C
ENDBRANCH  20  22
ENDBRANCH   1  18
TORSDOF 9
ENDMDL