MODEL 4
REMARK VINA RESULT: -9.789637887      1.903      2.214
REMARK  10 active torsions:
REMARK  status: ('A' for Active; 'I' for Inactive)
REMARK       I    between atoms: C1_4  and  N3_6
REMARK       I    between atoms: N3_6  and  C2_8
REMARK    1  A    between atoms: C2_8  and  C3_10
REMARK    2  A    between atoms: C3_10  and  N4_11
REMARK    3  A    between atoms: C3_10  and  C4_15
REMARK    4  A    between atoms: C4_15  and  N5_16
REMARK    5  A    between atoms: C4_15  and  C13_31
REMARK       I    between atoms: N5_16  and  C5_18
REMARK    6  A    between atoms: C5_18  and  C6_20
REMARK    7  A    between atoms: C6_20  and  N6_21
REMARK    8  A    between atoms: C6_20  and  C7_25
REMARK    9  A    between atoms: C13_31  and  N7_32
REMARK   10  A    between atoms: C13_31  and  O3_36
ROOT
HETATM    1  C4  UNL     1      61.538  35.020  73.292  1.00  0.00     0.085 C
ENDROOT
BRANCH   1   2
HETATM    2  C3  UNL     1      60.243  34.291  73.243  1.00  0.00     0.324 C
BRANCH   2   3
HETATM    3  C2  UNL     1      60.076  33.135  74.122  1.00  0.00     0.260 C
HETATM    4  N3  UNL     1      58.991  32.904  74.950  1.00  0.00    -0.299 N
HETATM    5  C1  UNL     1      58.921  31.732  75.789  1.00  0.00     0.188 C
ATOM      6  H3  UNL     1      58.224  33.577  74.968  1.00  0.00     0.171 HD
HETATM    7  N1  UNL     1      57.914  31.508  76.565  1.00  0.00    -0.373 N
HETATM    8  N2  UNL     1      59.978  30.801  75.767  1.00  0.00    -0.064 NA
ATOM      9  H12 UNL     1      57.865  30.679  77.159  1.00  0.00     0.158 HD
ATOM     10  H11 UNL     1      57.149  32.182  76.582  1.00  0.00     0.158 HD
HETATM   11  O1  UNL     1      61.011  32.260  74.119  1.00  0.00    -0.270 OA
ENDBRANCH   2   3
BRANCH   2  12
HETATM   12  N4  UNL     1      59.266  35.286  73.855  1.00  0.00    -0.061 N
ATOM     13  H43 UNL     1      58.363  34.896  74.130  1.00  0.00     0.275 HD
ATOM     14  H42 UNL     1      59.511  35.619  74.788  1.00  0.00     0.275 HD
ATOM     15  H41 UNL     1      59.226  36.006  73.134  1.00  0.00     0.275 HD
ENDBRANCH   2  12
ENDBRANCH   1   2
BRANCH   1  16
HETATM   16  N5  UNL     1      62.211  34.874  74.550  1.00  0.00    -0.326 N
HETATM   17  C5  UNL     1      62.029  35.443  75.805  1.00  0.00     0.253 C
HETATM   18  O2  UNL     1      61.194  36.295  76.181  1.00  0.00    -0.271 OA
ATOM     19  H5  UNL     1      62.987  34.213  74.518  1.00  0.00     0.168 HD
BRANCH  17  20
HETATM   20  C6  UNL     1      62.951  35.016  76.960  1.00  0.00     0.279 C
BRANCH  20  21
HETATM   21  N6  UNL     1      62.234  34.207  77.905  1.00  0.00    -0.066 N
ATOM     22  H63 UNL     1      61.225  34.301  77.796  1.00  0.00     0.275 HD
ATOM     23  H62 UNL     1      62.319  33.212  77.694  1.00  0.00     0.275 HD
ATOM     24  H61 UNL     1      62.533  34.418  78.857  1.00  0.00     0.275 HD
ENDBRANCH  20  21
BRANCH  20  25
HETATM   25  C7  UNL     1      63.441  36.277  77.659  1.00  0.00     0.025 C
HETATM   26  C8  UNL     1      62.839  36.367  79.043  1.00  0.00     0.007 C
HETATM   27  C9  UNL     1      63.730  37.143  79.977  1.00  0.00     0.000 C
HETATM   28  C10 UNL     1      64.633  38.113  79.246  1.00  0.00     0.000 C
HETATM   29  C11 UNL     1      65.581  37.404  78.312  1.00  0.00     0.000 C
HETATM   30  C12 UNL     1      64.937  36.129  77.812  1.00  0.00     0.007 C
ENDBRANCH  20  25
ENDBRANCH  17  20
ENDBRANCH   1  16
BRANCH   1  31
HETATM   31  C13 UNL     1      61.604  36.388  72.737  1.00  0.00     0.365 C
BRANCH  31  32
HETATM   32  N7  UNL     1      62.838  36.795  72.165  1.00  0.00    -0.048 N
ATOM     33  H73 UNL     1      63.110  36.133  71.438  1.00  0.00     0.277 HD
ATOM     34  H72 UNL     1      62.694  37.638  71.609  1.00  0.00     0.277 HD
ATOM     35  H71 UNL     1      63.621  36.939  72.803  1.00  0.00     0.277 HD
ENDBRANCH  31  32
BRANCH  31  36
HETATM   36  O3  UNL     1      60.602  36.546  71.728  1.00  0.00    -0.365 OA
ATOM     37  H3  UNL     1      59.841  36.976  72.099  1.00  0.00     0.212 HD
ENDBRANCH  31  36
ENDBRANCH   1  31
TORSDOF 10
ENDMDL