MODEL 4
REMARK VINA RESULT: -7.666316490      2.170      3.680
REMARK  15 active torsions:
REMARK  status: ('A' for Active; 'I' for Inactive)
REMARK    1  A    between atoms: S1_2  and  N1_5
REMARK    2  A    between atoms: N1_5  and  C2_7
REMARK    3  A    between atoms: C2_7  and  C3_8
REMARK    4  A    between atoms: C2_7  and  N4_17
REMARK    5  A    between atoms: C3_8  and  C4_9
REMARK    6  A    between atoms: C5_10  and  C6_11
REMARK    7  A    between atoms: C6_11  and  N2_12
REMARK    8  A    between atoms: N4_17  and  C7_19
REMARK    9  A    between atoms: C7_19  and  C8_20
REMARK   10  A    between atoms: C8_20  and  N5_21
REMARK   11  A    between atoms: N5_21  and  C9_23
REMARK   12  A    between atoms: C9_23  and  C10_25
REMARK   13  A    between atoms: C10_25  and  N7_26
REMARK   14  A    between atoms: C10_25  and  N8_29
REMARK   15  A    between atoms: N8_29  and  N9_31
ROOT
HETATM    1  N4  UNL     1      61.197  33.239  75.431  1.00  0.00    -0.364 N
ATOM      2  H4  UNL     1      61.426  33.007  74.464  1.00  0.00     0.162 HD
ENDROOT
BRANCH   1   3
HETATM    3  C2  UNL     1      61.834  34.316  76.031  1.00  0.00     0.159 C
BRANCH   3   4
HETATM    4  N1  UNL     1      62.264  35.376  75.096  1.00  0.00    -0.264 N
ATOM      5  H1  UNL     1      62.832  36.143  75.456  1.00  0.00     0.180 HD
BRANCH   4   6
HETATM    6  S1  UNL     1      61.848  35.374  73.423  1.00  0.00     0.228 S
HETATM    7  C1  UNL     1      63.023  36.519  72.628  1.00  0.00     0.186 C
HETATM    8  O1  UNL     1      62.015  34.040  72.775  1.00  0.00    -0.206 OA
HETATM    9  O2  UNL     1      60.469  35.885  73.177  1.00  0.00    -0.206 OA
ENDBRANCH   4   6
ENDBRANCH   3   4
BRANCH   3  10
HETATM   10  C3  UNL     1      62.160  34.571  77.208  1.00  0.00    -0.080 C
BRANCH  10  11
HETATM   11  C4  UNL     1      62.520  34.848  78.557  1.00  0.00     0.061 C
HETATM   12  C5  UNL     1      62.363  36.086  78.878  1.00  0.00     0.027 C
BRANCH  12  13
HETATM   13  C6  UNL     1      62.634  36.758  80.145  1.00  0.00     0.107 C
BRANCH  13  14
HETATM   14  N2  UNL     1      63.715  37.571  79.942  1.00  0.00    -0.318 N
HETATM   15  N3  UNL     1      64.981  37.597  80.069  1.00  0.00    -0.345 N
ATOM     16  H32 UNL     1      65.270  36.699  80.455  1.00  0.00     0.176 HD
ATOM     17  H31 UNL     1      65.787  38.204  79.916  1.00  0.00     0.176 HD
ATOM     18  H2  UNL     1      63.398  38.460  79.557  1.00  0.00     0.185 HD
ENDBRANCH  13  14
ENDBRANCH  12  13
ENDBRANCH  10  11
ENDBRANCH   3  10
ENDBRANCH   1   3
BRANCH   1  19
HETATM   19  C7  UNL     1      60.195  32.414  76.148  1.00  0.00     0.166 C
BRANCH  19  20
HETATM   20  C8  UNL     1      58.992  32.208  75.289  1.00  0.00     0.082 C
BRANCH  20  21
HETATM   21  N5  UNL     1      57.811  32.913  75.583  1.00  0.00    -0.354 N
ATOM     22  H5  UNL     1      56.985  32.364  75.823  1.00  0.00     0.166 HD
BRANCH  21  23
HETATM   23  C9  UNL     1      57.681  34.284  75.572  1.00  0.00     0.161 C
HETATM   24  N6  UNL     1      57.054  34.588  76.929  1.00  0.00    -0.079 NA
BRANCH  23  25
HETATM   25  C10 UNL     1      57.957  35.636  75.211  1.00  0.00     0.155 C
BRANCH  25  26
HETATM   26  N7  UNL     1      58.884  36.179  75.946  1.00  0.00    -0.382 N
ATOM     27  H72 UNL     1      59.820  36.418  75.620  1.00  0.00     0.157 HD
ATOM     28  H71 UNL     1      58.605  36.290  76.921  1.00  0.00     0.157 HD
ENDBRANCH  25  26
BRANCH  25  29
HETATM   29  N8  UNL     1      57.321  36.272  74.091  1.00  0.00    -0.290 N
ATOM     30  H8  UNL     1      56.854  37.172  74.203  1.00  0.00     0.188 HD
BRANCH  29  31
HETATM   31  N9  UNL     1      57.351  35.624  72.813  1.00  0.00    -0.344 N
ATOM     32  H92 UNL     1      57.385  34.605  72.768  1.00  0.00     0.176 HD
ATOM     33  H91 UNL     1      57.337  36.194  71.968  1.00  0.00     0.176 HD
ENDBRANCH  29  31
ENDBRANCH  25  29
ENDBRANCH  23  25
ENDBRANCH  21  23
ENDBRANCH  20  21
ENDBRANCH  19  20
ENDBRANCH   1  19
TORSDOF 15
ENDMDL