MODEL 5
REMARK VINA RESULT: -8.568879799      1.101      2.032
REMARK  8 active torsions:
REMARK  status: ('A' for Active; 'I' for Inactive)
REMARK    1  A    between atoms: C2_4  and  N2_5
REMARK    2  A    between atoms: C2_4  and  C7_11
REMARK    3  A    between atoms: N2_5  and  C3_7
REMARK    4  A    between atoms: C7_11  and  N3_12
REMARK    5  A    between atoms: C7_11  and  C9_23
REMARK       I    between atoms: N3_12  and  C8_14
REMARK       I    between atoms: C8_14  and  N4_15
REMARK       I    between atoms: C8_14  and  N5_19
REMARK       I    between atoms: C9_23  and  N6_25
REMARK    6  A    between atoms: N6_25  and  C10_27
REMARK    7  A    between atoms: C10_27  and  C11_28
REMARK    8  A    between atoms: C10_27  and  C12_30
ROOT
HETATM    1  C7  UNL     1      60.679  36.228  75.068  1.00  0.00     0.143 C
ENDROOT
BRANCH   1   2
HETATM    2  C2  UNL     1      62.151  36.028  75.089  1.00  0.00     0.130 C
HETATM    3  N1  UNL     1      62.879  36.537  74.142  1.00  0.00    -0.379 N
HETATM    4  C1  UNL     1      64.292  36.424  74.085  1.00  0.00     0.147 C
ATOM      5  H1  UNL     1      62.407  37.047  73.396  1.00  0.00     0.160 HD
BRANCH   2   6
HETATM    6  N2  UNL     1      62.795  35.328  76.112  1.00  0.00    -0.366 N
ATOM      7  H2  UNL     1      63.037  34.363  75.886  1.00  0.00     0.162 HD
BRANCH   6   8
HETATM    8  C3  UNL     1      63.165  35.745  77.415  1.00  0.00     0.021 C
HETATM    9  C4  UNL     1      62.440  36.965  77.938  1.00  0.00     0.037 C
HETATM   10  C5  UNL     1      64.650  35.961  77.523  1.00  0.00     0.037 C
HETATM   11  C6  UNL     1      62.821  34.615  78.422  1.00  0.00     0.037 C
ENDBRANCH   6   8
ENDBRANCH   2   6
ENDBRANCH   1   2
BRANCH   1  12
HETATM   12  N3  UNL     1      60.151  36.587  73.805  1.00  0.00    -0.334 N
HETATM   13  C8  UNL     1      58.767  36.474  73.570  1.00  0.00     0.481 C
HETATM   14  N4  UNL     1      57.871  37.228  74.378  1.00  0.00    -0.033 N
HETATM   15  N5  UNL     1      58.538  36.952  72.189  1.00  0.00    -0.033 N
ATOM     16  H43 UNL     1      58.058  37.019  75.359  1.00  0.00     0.278 HD
ATOM     17  H42 UNL     1      58.134  38.212  74.333  1.00  0.00     0.278 HD
ATOM     18  H41 UNL     1      56.869  37.146  74.208  1.00  0.00     0.278 HD
ATOM     19  H53 UNL     1      58.902  37.890  72.020  1.00  0.00     0.278 HD
ATOM     20  H52 UNL     1      59.108  36.470  71.494  1.00  0.00     0.278 HD
ATOM     21  H51 UNL     1      57.536  36.870  72.019  1.00  0.00     0.278 HD
ATOM     22  H3  UNL     1      60.770  36.926  73.069  1.00  0.00     0.163 HD
ENDBRANCH   1  12
BRANCH   1  23
HETATM   23  C9  UNL     1      59.914  35.266  75.872  1.00  0.00     0.272 C
HETATM   24  O1  UNL     1      59.677  35.479  77.085  1.00  0.00    -0.266 OA
HETATM   25  N6  UNL     1      59.398  34.052  75.354  1.00  0.00    -0.335 N
ATOM     26  H6  UNL     1      59.568  33.836  74.372  1.00  0.00     0.164 HD
BRANCH  25  27
HETATM   27  C10 UNL     1      58.645  33.104  76.141  1.00  0.00     0.247 C
BRANCH  27  28
HETATM   28  C11 UNL     1      58.805  31.713  75.642  1.00  0.00     0.267 C
HETATM   29  O2  UNL     1      59.878  31.193  75.441  1.00  0.00    -0.304 OA
ENDBRANCH  27  28
BRANCH  27  30
HETATM   30  C12 UNL     1      57.214  33.435  76.229  1.00  0.00     0.203 C
HETATM   31  O3  UNL     1      56.806  34.495  75.701  1.00  0.00    -0.646 OA
HETATM   32  O4  UNL     1      56.374  32.570  76.886  1.00  0.00    -0.646 OA
ENDBRANCH  27  30
ENDBRANCH  25  27
ENDBRANCH   1  23
TORSDOF 8
ENDMDL