MODEL 3
REMARK VINA RESULT: -8.154442308      2.813      5.743
REMARK  7 active torsions:
REMARK  status: ('A' for Active; 'I' for Inactive)
REMARK    1  A    between atoms: C2_2  and  N1_3
REMARK    2  A    between atoms: C2_2  and  C3_7
REMARK    3  A    between atoms: N1_3  and  N2_4
REMARK    4  A    between atoms: C3_7  and  N3_8
REMARK    5  A    between atoms: C3_7  and  C10_26
REMARK       I    between atoms: N3_8  and  C4_10
REMARK    6  A    between atoms: C4_10  and  C5_12
REMARK       I    between atoms: N4_16  and  C9_17
REMARK       I    between atoms: C9_17  and  N6_21
REMARK    7  A    between atoms: N6_21  and  N7_23
ROOT
HETATM    1  C5  UNL     1      61.099  34.349  75.081  1.00  0.00     0.194 C
HETATM    2  C6  UNL     1      62.318  34.261  75.991  1.00  0.00     0.037 C
HETATM    3  C7  UNL     1      61.858  35.009  77.201  1.00  0.00     0.023 C
HETATM    4  C8  UNL     1      60.799  35.960  76.754  1.00  0.00     0.142 C
HETATM    5  N4  UNL     1      60.481  35.620  75.365  1.00  0.00    -0.203 N
HETATM    6  C9  UNL     1      59.702  36.457  74.544  1.00  0.00     0.694 C
HETATM    7  N5  UNL     1      58.469  36.656  74.800  1.00  0.00    -0.233 N
ATOM      8  H51 UNL     1      57.904  37.263  74.205  1.00  0.00     0.174 HD
ATOM      9  H52 UNL     1      58.038  36.207  75.608  1.00  0.00     0.174 HD
HETATM   10  N6  UNL     1      60.298  37.077  73.428  1.00  0.00    -0.072 N
ATOM     11  H6  UNL     1      60.180  38.084  73.316  1.00  0.00     0.212 HD
ENDROOT
BRANCH   1  12
HETATM   12  C4  UNL     1      60.171  33.217  75.325  1.00  0.00     0.242 C
HETATM   13  N3  UNL     1      59.048  33.397  76.157  1.00  0.00    -0.343 N
ATOM     14  H3  UNL     1      58.875  34.304  76.590  1.00  0.00     0.163 HD
HETATM   15  O1  UNL     1      60.430  32.120  74.769  1.00  0.00    -0.271 OA
BRANCH  13  16
HETATM   16  C3  UNL     1      58.142  32.297  76.397  1.00  0.00     0.206 C
BRANCH  16  17
HETATM   17  C2  UNL     1      58.818  31.396  77.409  1.00  0.00     0.128 C
HETATM   18  C1  UNL     1      59.195  30.071  76.811  1.00  0.00     0.032 C
BRANCH  17  19
HETATM   19  N1  UNL     1      58.031  31.270  78.620  1.00  0.00    -0.141 NA
BRANCH  19  20
HETATM   20  N2  UNL     1      58.348  30.155  79.374  1.00  0.00    -0.348 N
ATOM     21  H22 UNL     1      58.103  29.210  79.078  1.00  0.00     0.172 HD
ATOM     22  H21 UNL     1      58.841  30.372  80.239  1.00  0.00     0.172 HD
ENDBRANCH  19  20
ENDBRANCH  17  19
ENDBRANCH  16  17
BRANCH  16  23
HETATM   23  C10 UNL     1      56.863  32.833  76.882  1.00  0.00     0.198 C
HETATM   24  O4  UNL     1      55.886  32.098  77.094  1.00  0.00    -0.646 OA
HETATM   25  O5  UNL     1      56.745  34.184  77.106  1.00  0.00    -0.646 OA
ENDBRANCH  16  23
ENDBRANCH  13  16
ENDBRANCH   1  12
BRANCH  10  26
HETATM   26  N7  UNL     1      61.041  36.387  72.467  1.00  0.00    -0.024 N
HETATM   27  O2  UNL     1      60.488  35.598  71.703  1.00  0.00    -0.516 OA
HETATM   28  O3  UNL     1      62.402  36.626  72.412  1.00  0.00    -0.516 OA
ENDBRANCH  10  26
TORSDOF 7
ENDMDL