MODEL 5
REMARK VINA RESULT: -8.165013501      0.968      1.603
REMARK  1 active torsions:
REMARK  status: ('A' for Active; 'I' for Inactive)
REMARK    1  A    between atoms: C7_9  and  N2_10
ROOT
HETATM    1  C1  UNL     1      18.657  12.436  16.762  1.00  0.00     0.070 C
HETATM    2  C2  UNL     1      17.307  13.094  16.802  1.00  0.00     0.025 A
HETATM    3  C3  UNL     1      16.417  13.171  15.748  1.00  0.00     0.059 A
HETATM    4  C4  UNL     1      15.303  13.844  16.189  1.00  0.00     0.085 A
HETATM    5  C5  UNL     1      14.091  14.209  15.568  1.00  0.00    -0.005 A
HETATM    6  C6  UNL     1      13.172  14.879  16.306  1.00  0.00     0.035 A
HETATM    7  N1  UNL     1      13.445  15.177  17.608  1.00  0.00    -0.193 N
ATOM      8  H1  UNL     1      12.742  15.682  18.147  1.00  0.00     0.184 HD
HETATM    9  C7  UNL     1      14.590  14.840  18.216  1.00  0.00     0.702 A
HETATM   10  N4  UNL     1      15.512  14.170  17.486  1.00  0.00    -0.086 N
HETATM   11  N5  UNL     1      16.717  13.713  17.832  1.00  0.00    -0.284 N
ATOM     12  H5  UNL     1      17.133  13.820  18.757  1.00  0.00     0.188 HD
HETATM   13  C13 UNL     1      11.846  15.377  15.946  1.00  0.00     0.058 C
HETATM   14  C14 UNL     1      11.569  15.546  14.505  1.00  0.00     0.006 C
HETATM   15  C15 UNL     1      12.833  15.770  13.697  1.00  0.00     0.001 C
HETATM   16  C16 UNL     1      13.247  14.417  13.206  1.00  0.00     0.005 C
HETATM   17  C17 UNL     1      14.129  13.747  14.198  1.00  0.00     0.043 C
ENDROOT
BRANCH   9  18
HETATM   18  N2  UNL     1      14.879  15.135  19.566  1.00  0.00    -0.213 N
HETATM   19  C8  UNL     1      15.259  16.467  19.981  1.00  0.00     0.160 C
HETATM   20  C9  UNL     1      14.961  16.646  21.451  1.00  0.00     0.136 C
HETATM   21  N3  UNL     1      13.857  15.920  21.953  1.00  0.00    -0.414 N
HETATM   22  C10 UNL     1      12.640  16.637  22.146  1.00  0.00     0.143 C
HETATM   23  C11 UNL     1      13.705  14.570  21.543  1.00  0.00     0.136 C
HETATM   24  C12 UNL     1      14.829  14.133  20.625  1.00  0.00     0.160 C
ENDBRANCH   9  18
TORSDOF 1
ENDMDL