MODEL 3
REMARK VINA RESULT: -7.511649756      1.472      3.907
REMARK  5 active torsions:
REMARK  status: ('A' for Active; 'I' for Inactive)
REMARK    1  A    between atoms: C5_6  and  C6_7
REMARK    2  A    between atoms: N5_14  and  C7_15
REMARK    3  A    between atoms: C7_15  and  C10_18
REMARK    4  A    between atoms: C11_19  and  C12_20
REMARK    5  A    between atoms: C13_21  and  C14_22
ROOT
HETATM    1  C6  UNL     1      16.388  13.139  20.479  1.00  0.00     0.152 A
HETATM    2  N2  UNL     1      16.397  12.032  21.331  1.00  0.00    -0.268 N
ATOM      3  H2  UNL     1      15.878  11.937  22.203  1.00  0.00     0.190 HD
HETATM    4  N3  UNL     1      17.181  11.156  20.811  1.00  0.00    -0.226 N
ATOM      5  H3  UNL     1      17.386  10.239  21.210  1.00  0.00     0.210 HD
HETATM    6  N4  UNL     1      17.663  11.610  19.717  1.00  0.00    -0.223 N
ATOM      7  H4  UNL     1      18.312  11.103  19.116  1.00  0.00     0.210 HD
HETATM    8  N5  UNL     1      17.194  12.860  19.465  1.00  0.00    -0.237 N
ENDROOT
BRANCH   8   9
HETATM    9  C7  UNL     1      17.662  13.558  18.308  1.00  0.00     0.113 C
HETATM   10  C8  UNL     1      18.540  12.809  17.375  1.00  0.00     0.055 C
HETATM   11  C9  UNL     1      18.253  14.917  18.610  1.00  0.00     0.055 C
BRANCH   9  12
HETATM   12  C10 UNL     1      16.437  13.871  17.464  1.00  0.00    -0.059 C
HETATM   13  C11 UNL     1      15.454  14.107  16.813  1.00  0.00    -0.012 C
BRANCH  13  14
HETATM   14  C12 UNL     1      14.295  14.397  16.066  1.00  0.00    -0.014 C
HETATM   15  C13 UNL     1      13.315  14.657  15.414  1.00  0.00    -0.084 C
BRANCH  15  16
HETATM   16  C14 UNL     1      12.141  14.975  14.602  1.00  0.00     0.013 C
HETATM   17  C15 UNL     1      11.908  16.449  14.638  1.00  0.00     0.028 C
HETATM   18  C16 UNL     1      10.905  14.262  15.103  1.00  0.00     0.028 C
HETATM   19  C17 UNL     1      12.431  14.560  13.182  1.00  0.00     0.028 C
ENDBRANCH  15  16
ENDBRANCH  13  14
ENDBRANCH   9  12
ENDBRANCH   8   9
BRANCH   1  20
HETATM   20  C5  UNL     1      15.650  14.316  20.817  1.00  0.00     0.026 A
HETATM   21  C4  UNL     1      16.130  15.556  21.048  1.00  0.00     0.018 A
HETATM   22  C3  UNL     1      15.300  16.606  21.464  1.00  0.00     0.018 A
HETATM   23  C2  UNL     1      13.964  16.382  21.644  1.00  0.00     0.090 A
HETATM   24  N1  UNL     1      13.475  15.158  21.416  1.00  0.00    -0.370 N
HETATM   25  C1  UNL     1      12.050  14.971  21.622  1.00  0.00     0.154 C
HETATM   26  C18 UNL     1      14.262  14.147  21.018  1.00  0.00     0.105 A
ENDBRANCH   1  20
TORSDOF 5
ENDMDL