MODEL 3
REMARK VINA RESULT: -9.500714314      1.595      3.120
REMARK  3 active torsions:
REMARK  status: ('A' for Active; 'I' for Inactive)
REMARK    1  A    between atoms: C1_1  and  C8_10
REMARK    2  A    between atoms: C2_2  and  C3_3
REMARK    3  A    between atoms: C8_10  and  N2_11
ROOT
HETATM    1  N2  UNL     1      14.703  14.611  16.942  1.00  0.00     0.110 N
HETATM    2  C9  UNL     1      15.208  13.281  17.010  1.00  0.00     0.315 C
HETATM    3  C10 UNL     1      15.933  12.978  18.246  1.00  0.00    -0.003 A
HETATM    4  C11 UNL     1      16.519  11.715  18.157  1.00  0.00     0.011 A
HETATM    5  C12 UNL     1      17.250  11.201  19.202  1.00  0.00     0.001 A
HETATM    6  C13 UNL     1      17.404  11.963  20.365  1.00  0.00     0.002 A
HETATM    7  C14 UNL     1      16.837  13.213  20.480  1.00  0.00     0.031 A
HETATM    8  C15 UNL     1      16.116  13.702  19.432  1.00  0.00     0.049 A
HETATM    9  N3  UNL     1      15.576  15.007  19.655  1.00  0.00    -0.293 N
HETATM   10  C16 UNL     1      16.074  15.856  20.560  1.00  0.00     0.206 A
HETATM   11  N4  UNL     1      15.300  16.968  20.476  1.00  0.00    -0.294 N
ATOM     12  H4  UNL     1      15.426  17.806  21.043  1.00  0.00     0.187 HD
HETATM   13  N5  UNL     1      14.361  16.816  19.559  1.00  0.00    -0.286 N
ATOM     14  H5  UNL     1      13.651  17.500  19.300  1.00  0.00     0.188 HD
HETATM   15  C17 UNL     1      14.515  15.614  19.040  1.00  0.00     0.132 A
HETATM   16  C18 UNL     1      13.720  14.948  17.950  1.00  0.00     0.352 C
ENDROOT
BRANCH   1  17
HETATM   17  C8  UNL     1      14.161  14.911  15.640  1.00  0.00     0.367 C
BRANCH  17  18
HETATM   18  C1  UNL     1      12.734  14.615  15.552  1.00  0.00    -0.069 C
HETATM   19  C2  UNL     1      11.554  14.379  15.500  1.00  0.00    -0.047 C
BRANCH  19  20
HETATM   20  C3  UNL     1      10.135  14.119  15.448  1.00  0.00     0.086 A
HETATM   21  C4  UNL     1       9.580  13.113  16.204  1.00  0.00     0.039 A
HETATM   22  C5  UNL     1       8.212  12.891  16.130  1.00  0.00     0.004 A
HETATM   23  C6  UNL     1       7.400  13.653  15.321  1.00  0.00     0.017 A
HETATM   24  C7  UNL     1       7.991  14.657  14.574  1.00  0.00     0.089 A
HETATM   25  N1  UNL     1       9.319  14.856  14.660  1.00  0.00    -0.359 N
ATOM     26  H1  UNL     1       9.732  15.602  14.101  1.00  0.00     0.166 HD
ENDBRANCH  19  20
ENDBRANCH  17  18
ENDBRANCH   1  17
TORSDOF 3
ENDMDL