MODEL 4
REMARK VINA RESULT: -4.035760898      1.471      1.599
REMARK  3 active torsions:
REMARK  status: ('A' for Active; 'I' for Inactive)
REMARK    1  A    between atoms: C5_5  and  N1_6
REMARK    2  A    between atoms: N2_9  and  C8_10
REMARK    3  A    between atoms: C9_11  and  C10_12
ROOT
HETATM    1  C1  UNL     1      17.227  15.026  22.863  1.00  0.00     0.019 C
HETATM    2  C2  UNL     1      17.039  14.782  21.693  1.00  0.00    -0.059 C
HETATM    3  C3  UNL     1      16.837  14.493  20.289  1.00  0.00     0.091 A
HETATM    4  C4  UNL     1      15.603  14.694  19.733  1.00  0.00     0.087 A
HETATM    5  C5  UNL     1      15.410  14.422  18.411  1.00  0.00     0.108 A
HETATM    6  N3  UNL     1      16.442  13.953  17.649  1.00  0.00    -0.320 N
ATOM      7  H3  UNL     1      16.310  13.746  16.658  1.00  0.00     0.169 HD
HETATM    8  C17 UNL     1      17.624  13.772  18.232  1.00  0.00     0.190 A
HETATM    9  C18 UNL     1      18.774  13.278  17.497  1.00  0.00     0.137 C
HETATM   10  N4  UNL     1      19.683  12.886  16.894  1.00  0.00    -0.188 NA
HETATM   11  N5  UNL     1      17.855  14.028  19.533  1.00  0.00    -0.326 N
ATOM     12  H5  UNL     1      18.778  13.875  19.939  1.00  0.00     0.169 HD
ENDROOT
BRANCH   5  13
HETATM   13  N1  UNL     1      14.137  14.621  17.786  1.00  0.00    -0.364 N
HETATM   14  C6  UNL     1      13.272  13.466  17.665  1.00  0.00     0.145 C
HETATM   15  C7  UNL     1      12.962  13.299  16.192  1.00  0.00     0.152 C
HETATM   16  N2  UNL     1      12.247  14.486  15.798  1.00  0.00    -0.339 N
HETATM   17  C15 UNL     1      12.917  15.749  15.951  1.00  0.00     0.152 C
HETATM   18  C16 UNL     1      13.661  15.871  17.277  1.00  0.00     0.145 C
BRANCH  16  19
HETATM   19  C8  UNL     1      10.960  14.380  15.294  1.00  0.00     0.008 C
HETATM   20  C9  UNL     1       9.834  14.277  14.872  1.00  0.00    -0.079 C
BRANCH  20  21
HETATM   21  C10 UNL     1       8.455  14.146  14.382  1.00  0.00     0.067 C
HETATM   22  C11 UNL     1       7.732  13.223  15.305  1.00  0.00     0.017 C
HETATM   23  C12 UNL     1       6.292  13.711  15.213  1.00  0.00     0.001 C
HETATM   24  C13 UNL     1       6.341  15.148  14.808  1.00  0.00     0.001 C
HETATM   25  C14 UNL     1       7.775  15.487  14.485  1.00  0.00     0.017 C
ENDBRANCH  20  21
ENDBRANCH  16  19
ENDBRANCH   5  13
TORSDOF 3
ENDMDL