MODEL 5
REMARK VINA RESULT: -7.582065308      1.413      3.626
REMARK  3 active torsions:
REMARK  status: ('A' for Active; 'I' for Inactive)
REMARK    1  A    between atoms: C5_6  and  C6_7
REMARK    2  A    between atoms: C7_8  and  C8_9
REMARK    3  A    between atoms: C8_9  and  N2_10
ROOT
HETATM    1  C1  UNL     1      14.976  17.078  21.745  1.00  0.00     0.310 C
HETATM    2  N1  UNL     1      14.632  16.192  20.650  1.00  0.00     0.088 N
HETATM    3  C2  UNL     1      14.058  16.919  19.549  1.00  0.00     0.277 C
HETATM    4  C3  UNL     1      13.814  16.095  18.338  1.00  0.00     0.072 C
HETATM    5  C4  UNL     1      14.599  14.862  18.269  1.00  0.00    -0.012 A
HETATM    6  C5  UNL     1      14.307  14.005  17.201  1.00  0.00     0.094 A
HETATM    7  N5  UNL     1      15.017  12.878  17.119  1.00  0.00    -0.348 N
ATOM      8  H5  UNL     1      14.807  12.252  16.342  1.00  0.00     0.167 HD
HETATM    9  C11 UNL     1      15.985  12.495  17.972  1.00  0.00     0.043 A
HETATM   10  C12 UNL     1      16.666  11.313  17.806  1.00  0.00     0.030 A
HETATM   11  C13 UNL     1      17.649  10.959  18.696  1.00  0.00     0.002 A
HETATM   12  C14 UNL     1      17.936  11.796  19.742  1.00  0.00     0.001 A
HETATM   13  C15 UNL     1      17.249  12.985  19.907  1.00  0.00     0.014 A
HETATM   14  C16 UNL     1      16.257  13.361  19.026  1.00  0.00    -0.001 A
HETATM   15  C17 UNL     1      15.569  14.551  19.187  1.00  0.00    -0.008 A
HETATM   16  C18 UNL     1      15.839  15.476  20.293  1.00  0.00     0.312 C
ENDROOT
BRANCH   6  17
HETATM   17  C6  UNL     1      13.282  14.339  16.237  1.00  0.00    -0.046 C
HETATM   18  C7  UNL     1      12.411  14.612  15.445  1.00  0.00    -0.078 C
BRANCH  18  19
HETATM   19  C8  UNL     1      11.335  14.926  14.489  1.00  0.00     0.244 C
BRANCH  19  20
HETATM   20  N2  UNL     1      10.098  14.310  14.854  1.00  0.00    -0.276 N
HETATM   21  C9  UNL     1       8.866  14.642  14.440  1.00  0.00     0.202 A
HETATM   22  N3  UNL     1       7.949  13.831  15.001  1.00  0.00    -0.346 N
HETATM   23  C10 UNL     1       8.658  12.986  15.777  1.00  0.00     0.198 A
ATOM     24  H3  UNL     1       6.938  13.852  14.868  1.00  0.00     0.167 HD
HETATM   25  N4  UNL     1       9.958  13.288  15.677  1.00  0.00    -0.292 N
ATOM     26  H4  UNL     1      10.718  12.807  16.158  1.00  0.00     0.188 HD
ENDBRANCH  19  20
ENDBRANCH  18  19
ENDBRANCH   6  17
TORSDOF 3
ENDMDL