MODEL 1
REMARK VINA RESULT: -9.355261179      0.000      0.000
REMARK  3 active torsions:
REMARK  status: ('A' for Active; 'I' for Inactive)
REMARK    1  A    between atoms: C1_1  and  C12_16
REMARK    2  A    between atoms: C2_2  and  C3_3
REMARK    3  A    between atoms: C7_9  and  N2_10
ROOT
HETATM    1  C3  UNL     1      14.593  13.905  16.437  1.00  0.00     0.062 A
HETATM    2  C4  UNL     1      15.094  13.690  17.727  1.00  0.00     0.026 A
HETATM    3  C5  UNL     1      16.453  13.645  17.897  1.00  0.00     0.019 A
HETATM    4  C6  UNL     1      17.327  13.803  16.849  1.00  0.00     0.090 A
HETATM    5  N1  UNL     1      16.804  14.007  15.636  1.00  0.00    -0.351 N
ATOM      6  H1  UNL     1      17.444  14.127  14.851  1.00  0.00     0.166 HD
HETATM    7  C7  UNL     1      15.466  14.064  15.386  1.00  0.00     0.122 A
ENDROOT
BRANCH   1   8
HETATM    8  C2  UNL     1      13.165  13.953  16.255  1.00  0.00    -0.058 C
HETATM    9  C1  UNL     1      11.951  13.987  16.122  1.00  0.00    -0.061 C
BRANCH   9  10
HETATM   10  C12 UNL     1      10.525  14.025  15.942  1.00  0.00     0.021 A
HETATM   11  C13 UNL     1       9.679  13.300  16.785  1.00  0.00     0.023 A
HETATM   12  C14 UNL     1       8.311  13.327  16.627  1.00  0.00     0.041 A
HETATM   13  C15 UNL     1       7.739  14.074  15.626  1.00  0.00     0.105 A
HETATM   14  C16 UNL     1       8.546  14.807  14.768  1.00  0.00     0.106 A
HETATM   15  O3  UNL     1       6.395  14.255  15.272  1.00  0.00    -0.323 OA
HETATM   16  C17 UNL     1       9.919  14.764  14.948  1.00  0.00     0.060 A
HETATM   17  O2  UNL     1       7.721  15.444  13.882  1.00  0.00    -0.323 OA
HETATM   18  C18 UNL     1       6.373  15.189  14.231  1.00  0.00     0.352 A
ENDBRANCH   9  10
ENDBRANCH   1   8
BRANCH   7  19
HETATM   19  N2  UNL     1      14.949  14.278  14.094  1.00  0.00    -0.362 N
HETATM   20  C8  UNL     1      14.875  15.617  13.577  1.00  0.00     0.150 C
HETATM   21  C9  UNL     1      13.413  15.909  13.226  1.00  0.00     0.187 C
HETATM   22  O1  UNL     1      12.669  14.765  13.071  1.00  0.00    -0.388 OA
HETATM   23  C10 UNL     1      13.332  13.728  12.427  1.00  0.00     0.187 C
HETATM   24  C11 UNL     1      14.486  13.200  13.265  1.00  0.00     0.150 C
ENDBRANCH   7  19
TORSDOF 3
ENDMDL