MODEL 2
REMARK VINA RESULT: -7.230547500      2.443      3.331
REMARK  1 active torsions:
REMARK  status: ('A' for Active; 'I' for Inactive)
REMARK    1  A    between atoms: C2_3  and  C3_4
REMARK       I    between atoms: C3_4  and  N2_6
ROOT
HETATM    1  N1  UNL     1      15.997  16.508  21.630  1.00  0.00    -0.196 NA
HETATM    2  C1  UNL     1      15.956  15.657  20.828  1.00  0.00     0.079 C
HETATM    3  C2  UNL     1      15.906  14.556  19.828  1.00  0.00     0.131 C
HETATM    4  C11 UNL     1      15.767  13.295  20.654  1.00  0.00     0.045 C
HETATM    5  C12 UNL     1      16.058  12.039  19.866  1.00  0.00     0.076 C
HETATM    6  S1  UNL     1      17.875  12.054  19.589  1.00  0.00    -0.169 SA
HETATM    7  C13 UNL     1      18.327  13.825  19.759  1.00  0.00     0.076 C
HETATM    8  C14 UNL     1      17.218  14.616  19.098  1.00  0.00     0.045 C
ENDROOT
BRANCH   3   9
HETATM    9  C3  UNL     1      14.737  14.701  18.948  1.00  0.00     0.242 C
HETATM   10  O1  UNL     1      13.641  15.085  19.494  1.00  0.00    -0.271 OA
HETATM   11  N2  UNL     1      14.670  14.473  17.567  1.00  0.00    -0.350 N
HETATM   12  C4  UNL     1      13.446  14.666  16.802  1.00  0.00     0.131 C
HETATM   13  C8  UNL     1      15.821  14.024  16.832  1.00  0.00     0.131 C
HETATM   14  C5  UNL     1      13.217  13.495  15.851  1.00  0.00     0.088 C
HETATM   15  C6  UNL     1      14.386  13.337  14.900  1.00  0.00     0.167 C
HETATM   16  C7  UNL     1      15.534  14.236  15.353  1.00  0.00     0.088 C
HETATM   17  O2  UNL     1      14.737  12.011  14.876  1.00  0.00    -0.353 OA
HETATM   18  O3  UNL     1      14.063  13.727  13.610  1.00  0.00    -0.353 OA
HETATM   19  C9  UNL     1      14.541  11.535  13.585  1.00  0.00     0.197 C
HETATM   20  C10 UNL     1      14.734  12.828  12.781  1.00  0.00     0.197 C
ENDBRANCH   3   9
TORSDOF 1
ENDMDL