MODEL 2
REMARK VINA RESULT: -8.142936705      1.478      3.947
REMARK  2 active torsions:
REMARK  status: ('A' for Active; 'I' for Inactive)
REMARK    1  A    between atoms: C4_6  and  N2_7
REMARK    2  A    between atoms: C12_18  and  N5_19
ROOT
HETATM    1  N2  UNL     1      14.152  15.266  18.193  1.00  0.00    -0.087 N
HETATM    2  N3  UNL     1      13.730  16.081  17.095  1.00  0.00    -0.086 NA
HETATM    3  C5  UNL     1      13.747  15.110  15.984  1.00  0.00     0.139 C
HETATM    4  C6  UNL     1      12.411  14.455  15.944  1.00  0.00     0.051 C
HETATM    5  C7  UNL     1      11.540  14.912  14.808  1.00  0.00     0.004 C
HETATM    6  C8  UNL     1      11.851  14.083  13.591  1.00  0.00     0.000 C
HETATM    7  C9  UNL     1      12.963  14.699  12.772  1.00  0.00     0.000 C
HETATM    8  C10 UNL     1      14.217  14.772  13.615  1.00  0.00     0.004 C
HETATM    9  C11 UNL     1      14.135  15.793  14.697  1.00  0.00     0.051 C
HETATM   10  N4  UNL     1      14.830  14.215  16.326  1.00  0.00    -0.199 N
ATOM     11  H4  UNL     1      15.338  13.606  15.685  1.00  0.00     0.180 HD
HETATM   12  C12 UNL     1      15.039  14.335  17.627  1.00  0.00     0.697 C
ENDROOT
BRANCH   1  13
HETATM   13  C4  UNL     1      13.676  15.434  19.542  1.00  0.00     0.086 A
HETATM   14  C3  UNL     1      14.120  16.522  20.281  1.00  0.00     0.119 A
HETATM   15  N1  UNL     1      13.722  16.698  21.543  1.00  0.00    -0.373 N
HETATM   16  C2  UNL     1      12.891  15.867  22.170  1.00  0.00     0.088 A
ATOM     17  H1  UNL     1      14.072  17.510  22.052  1.00  0.00     0.164 HD
HETATM   18  C1  UNL     1      12.428  14.779  21.473  1.00  0.00     0.019 A
HETATM   19  C17 UNL     1      12.817  14.559  20.164  1.00  0.00     0.034 A
ENDBRANCH   1  13
BRANCH  12  20
HETATM   20  N5  UNL     1      16.044  13.592  18.331  1.00  0.00    -0.212 N
HETATM   21  C13 UNL     1      16.987  14.251  19.204  1.00  0.00     0.167 C
HETATM   22  C14 UNL     1      17.062  13.570  20.557  1.00  0.00     0.188 C
HETATM   23  O1  UNL     1      16.625  12.246  20.479  1.00  0.00    -0.388 OA
HETATM   24  C15 UNL     1      16.999  11.629  19.309  1.00  0.00     0.188 C
HETATM   25  C16 UNL     1      16.106  12.159  18.199  1.00  0.00     0.167 C
ENDBRANCH  12  20
TORSDOF 2
ENDMDL