MODEL 5
REMARK VINA RESULT: -6.620137622      2.303      3.826
REMARK  1 active torsions:
REMARK  status: ('A' for Active; 'I' for Inactive)
REMARK    1  A    between atoms: N2_6  and  C5_7
ROOT
HETATM    1  C5  UNL     1      16.199  14.330  17.008  1.00  0.00     0.139 A
HETATM    2  C6  UNL     1      15.199  14.272  15.857  1.00  0.00     0.014 A
HETATM    3  N3  UNL     1      14.394  14.236  14.842  1.00  0.00    -0.365 N
ATOM      4  H3  UNL     1      14.811  14.406  13.927  1.00  0.00     0.161 HD
HETATM    5  C7  UNL     1      12.981  13.984  14.861  1.00  0.00     0.321 C
HETATM    6  C8  UNL     1      12.388  14.472  13.582  1.00  0.00     0.059 C
HETATM    7  C9  UNL     1      10.980  13.935  13.472  1.00  0.00     0.025 C
HETATM    8  C10 UNL     1      10.245  14.126  14.774  1.00  0.00     0.121 C
HETATM    9  C11 UNL     1       8.960  14.776  14.516  1.00  0.00     0.065 C
HETATM   10  N4  UNL     1       7.933  15.273  14.303  1.00  0.00    -0.197 NA
HETATM   11  C12 UNL     1      10.992  14.987  15.759  1.00  0.00     0.294 C
HETATM   12  N5  UNL     1      12.330  14.517  16.035  1.00  0.00     0.112 N
HETATM   13  C13 UNL     1      13.037  15.617  16.647  1.00  0.00     0.276 C
HETATM   14  C14 UNL     1      13.885  15.115  17.785  1.00  0.00     0.043 C
HETATM   15  C15 UNL     1      14.793  14.039  17.259  1.00  0.00     0.063 A
ENDROOT
BRANCH   1  16
HETATM   16  N2  UNL     1      17.182  13.311  17.005  1.00  0.00    -0.381 N
HETATM   17  C4  UNL     1      16.763  12.005  16.646  1.00  0.00     0.124 C
HETATM   18  C3  UNL     1      16.178  11.332  17.885  1.00  0.00     0.050 C
HETATM   19  C2  UNL     1      17.355  10.854  18.703  1.00  0.00     0.274 C
HETATM   20  N1  UNL     1      17.725  11.740  19.757  1.00  0.00     0.088 N
HETATM   21  C1  UNL     1      16.951  11.588  20.957  1.00  0.00     0.310 C
HETATM   22  C17 UNL     1      17.831  13.115  19.389  1.00  0.00     0.316 C
HETATM   23  C16 UNL     1      18.205  13.360  17.971  1.00  0.00     0.089 C
ENDBRANCH   1  16
TORSDOF 1
ENDMDL