MODEL 5
REMARK VINA RESULT: -7.234962639      1.136      1.550
REMARK  3 active torsions:
REMARK  status: ('A' for Active; 'I' for Inactive)
REMARK    1  A    between atoms: N3_7  and  C3_8
REMARK    2  A    between atoms: N4_11  and  C6_12
REMARK    3  A    between atoms: C6_12  and  N5_14
ROOT
HETATM    1  C3  UNL     1      11.278  14.380  16.080  1.00  0.00     0.131 C
HETATM    2  C4  UNL     1      12.161  15.449  15.428  1.00  0.00     0.049 C
HETATM    3  C5  UNL     1      13.383  15.539  16.380  1.00  0.00     0.127 C
HETATM    4  N4  UNL     1      14.074  14.299  16.267  1.00  0.00    -0.358 N
HETATM    5  C13 UNL     1      13.416  13.180  15.610  1.00  0.00     0.127 C
HETATM    6  C14 UNL     1      11.974  13.038  16.003  1.00  0.00     0.049 C
ENDROOT
BRANCH   1   7
HETATM    7  N3  UNL     1       9.968  14.318  15.473  1.00  0.00    -0.213 N
HETATM    8  N2  UNL     1       9.261  13.193  15.328  1.00  0.00    -0.224 N
HETATM    9  N1  UNL     1       8.108  13.442  14.744  1.00  0.00    -0.272 N
ATOM     10  H2  UNL     1       9.573  12.270  15.629  1.00  0.00     0.210 HD
HETATM   11  C2  UNL     1       8.058  14.764  14.501  1.00  0.00     0.109 A
ATOM     12  H1  UNL     1       7.385  12.759  14.518  1.00  0.00     0.190 HD
HETATM   13  C1  UNL     1       6.906  15.448  13.845  1.00  0.00     0.092 C
HETATM   14  N6  UNL     1       9.210  15.269  14.958  1.00  0.00    -0.270 N
ATOM     15  H6  UNL     1       9.468  16.254  14.915  1.00  0.00     0.190 HD
ENDBRANCH   1   7
BRANCH   4  16
HETATM   16  C6  UNL     1      15.376  14.105  16.784  1.00  0.00     0.172 C
HETATM   17  S1  UNL     1      16.564  13.984  15.593  1.00  0.00    -0.041 SA
BRANCH  16  18
HETATM   18  N5  UNL     1      15.839  14.001  18.084  1.00  0.00    -0.358 N
HETATM   19  C7  UNL     1      17.304  14.144  18.241  1.00  0.00     0.125 C
HETATM   20  C8  UNL     1      17.925  12.862  18.719  1.00  0.00     0.020 C
HETATM   21  C9  UNL     1      16.948  11.744  18.889  1.00  0.00     0.002 C
HETATM   22  C10 UNL     1      16.209  11.875  20.204  1.00  0.00     0.002 C
HETATM   23  C11 UNL     1      15.828  13.304  20.452  1.00  0.00     0.020 C
HETATM   24  C12 UNL     1      15.001  13.756  19.223  1.00  0.00     0.125 C
ENDBRANCH  16  18
ENDBRANCH   4  16
TORSDOF 3
ENDMDL