MODEL 1
REMARK VINA RESULT: -8.479059962      0.000      0.000
REMARK  6 active torsions:
REMARK  status: ('A' for Active; 'I' for Inactive)
REMARK    1  A    between atoms: C2_2  and  N1_3
REMARK    2  A    between atoms: N2_6  and  C5_7
REMARK    3  A    between atoms: C6_10  and  O1_11
REMARK    4  A    between atoms: C7_13  and  C8_14
REMARK    5  A    between atoms: C9_23  and  N8_24
REMARK    6  A    between atoms: N8_24  and  C10_26
ROOT
HETATM    1  C5  UNL     1      33.837 -59.122  42.582  1.00  0.00     0.133 A
HETATM    2  N3  UNL     1      33.826 -60.360  42.061  1.00  0.00    -0.321 N
ATOM      3  H3  UNL     1      34.421 -60.587  41.264  1.00  0.00     0.169 HD
HETATM    4  C6  UNL     1      33.039 -61.281  42.590  1.00  0.00     0.158 A
HETATM    5  C7  UNL     1      32.232 -60.959  43.680  1.00  0.00     0.090 A
HETATM    6  C9  UNL     1      32.210 -59.705  44.248  1.00  0.00     0.075 A
HETATM    7  C13 UNL     1      33.077 -58.738  43.643  1.00  0.00     0.117 A
HETATM    8  N10 UNL     1      33.100 -57.416  44.175  1.00  0.00    -0.096 NA
ENDROOT
BRANCH   5   9
HETATM    9  C8  UNL     1      31.375 -62.036  44.201  1.00  0.00     0.154 A
HETATM   10  N4  UNL     1      31.405 -62.653  45.381  1.00  0.00    -0.268 N
HETATM   11  N5  UNL     1      30.478 -63.562  45.393  1.00  0.00    -0.227 N
ATOM     12  H4  UNL     1      32.048 -62.446  46.145  1.00  0.00     0.190 HD
HETATM   13  N6  UNL     1      29.832 -63.558  44.245  1.00  0.00    -0.227 N
ATOM     14  H5  UNL     1      30.279 -64.186  46.174  1.00  0.00     0.210 HD
HETATM   15  N7  UNL     1      30.370 -62.628  43.502  1.00  0.00    -0.268 N
ATOM     16  H6  UNL     1      29.056 -64.167  43.985  1.00  0.00     0.210 HD
ATOM     17  H7  UNL     1      30.083 -62.385  42.554  1.00  0.00     0.190 HD
ENDBRANCH   5   9
BRANCH   4  18
HETATM   18  O1  UNL     1      32.977 -62.576  42.106  1.00  0.00    -0.345 OA
ATOM     19  H1  UNL     1      33.730 -63.020  41.733  1.00  0.00     0.219 HD
ENDBRANCH   4  18
BRANCH   6  20
HETATM   20  N8  UNL     1      31.557 -59.292  45.227  1.00  0.00    -0.380 N
ATOM     21  H8  UNL     1      30.883 -58.596  44.904  1.00  0.00     0.160 HD
BRANCH  20  22
HETATM   22  C10 UNL     1      31.422 -59.444  46.594  1.00  0.00     0.133 C
HETATM   23  C11 UNL     1      30.807 -58.244  47.327  1.00  0.00     0.259 C
HETATM   24  N9  UNL     1      31.987 -58.114  48.144  1.00  0.00    -0.071 N
HETATM   25  C12 UNL     1      32.676 -59.112  47.388  1.00  0.00     0.259 C
ATOM     26  H92 UNL     1      32.414 -57.195  48.261  1.00  0.00     0.277 HD
ATOM     27  H91 UNL     1      31.908 -58.222  49.155  1.00  0.00     0.277 HD
ENDBRANCH  20  22
ENDBRANCH   6  20
BRANCH   1  28
HETATM   28  N2  UNL     1      34.725 -58.181  41.947  1.00  0.00    -0.356 N
HETATM   29  C4  UNL     1      34.273 -57.317  40.892  1.00  0.00     0.169 C
HETATM   30  C3  UNL     1      35.112 -57.595  39.688  1.00  0.00     0.083 C
HETATM   31  N1  UNL     1      36.430 -58.012  39.878  1.00  0.00    -0.371 N
HETATM   32  C15 UNL     1      37.029 -57.978  41.147  1.00  0.00     0.083 C
HETATM   33  C14 UNL     1      36.111 -58.041  42.324  1.00  0.00     0.169 C
BRANCH  31  34
HETATM   34  C2  UNL     1      37.322 -57.490  38.856  1.00  0.00     0.122 C
HETATM   35  C1  UNL     1      37.941 -56.188  39.248  1.00  0.00     0.027 C
ENDBRANCH  31  34
ENDBRANCH   1  28
TORSDOF 6
ENDMDL