MODEL 1
REMARK VINA RESULT: -8.530433760      0.000      0.000
REMARK  7 active torsions:
REMARK  status: ('A' for Active; 'I' for Inactive)
REMARK    1  A    between atoms: N2_5  and  C3_6
REMARK    2  A    between atoms: C5_10  and  N4_11
REMARK    3  A    between atoms: N4_11  and  C6_13
REMARK    4  A    between atoms: C11_20  and  N6_21
REMARK    5  A    between atoms: N9_31  and  C14_32
REMARK    6  A    between atoms: C14_32  and  C15_33
REMARK    7  A    between atoms: C15_33  and  N10_34
ROOT
HETATM    1  C3  UNL     1      33.429 -58.182  42.690  1.00  0.00     0.710 A
HETATM    2  N3  UNL     1      32.829 -59.402  42.803  1.00  0.00    -0.182 N
ATOM      3  H3  UNL     1      32.761 -60.096  42.058  1.00  0.00     0.184 HD
HETATM    4  C4  UNL     1      32.346 -59.549  44.034  1.00  0.00     0.138 A
HETATM    5  C5  UNL     1      31.649 -60.589  44.675  1.00  0.00     0.148 A
HETATM    6  N5  UNL     1      31.293 -60.418  45.958  1.00  0.00    -0.175 N
ATOM      7  H5  UNL     1      30.786 -61.167  46.431  1.00  0.00     0.186 HD
HETATM    8  C11 UNL     1      31.582 -59.285  46.653  1.00  0.00     0.679 A
HETATM    9  N7  UNL     1      32.244 -58.302  46.039  1.00  0.00    -0.174 N
ATOM     10  H7  UNL     1      32.464 -57.449  46.553  1.00  0.00     0.186 HD
HETATM   11  C12 UNL     1      32.624 -58.418  44.754  1.00  0.00     0.167 A
HETATM   12  N8  UNL     1      33.290 -57.605  43.894  1.00  0.00    -0.172 N
ATOM     13  H8  UNL     1      33.638 -56.676  44.131  1.00  0.00     0.186 HD
ENDROOT
BRANCH   1  14
HETATM   14  N2  UNL     1      34.051 -57.690  41.510  1.00  0.00    -0.029 N
HETATM   15  N1  UNL     1      33.553 -56.819  40.635  1.00  0.00    -0.263 N
HETATM   16  C2  UNL     1      34.424 -56.589  39.641  1.00  0.00     0.103 A
ATOM     17  H1  UNL     1      32.632 -56.385  40.709  1.00  0.00     0.189 HD
HETATM   18  C1  UNL     1      34.350 -55.724  38.451  1.00  0.00     0.091 C
HETATM   19  N9  UNL     1      35.506 -57.350  39.910  1.00  0.00    -0.263 N
HETATM   20  C13 UNL     1      35.258 -58.015  41.056  1.00  0.00     0.368 A
HETATM   21  O1  UNL     1      36.012 -58.838  41.666  1.00  0.00    -0.243 OA
BRANCH  19  22
HETATM   22  C14 UNL     1      36.711 -57.503  39.202  1.00  0.00     0.103 C
BRANCH  22  23
HETATM   23  C15 UNL     1      37.853 -56.640  39.503  1.00  0.00     0.274 C
BRANCH  23  24
HETATM   24  N10 UNL     1      38.030 -55.629  38.476  1.00  0.00    -0.075 N
ATOM     25 3H10 UNL     1      38.762 -55.890  37.814  1.00  0.00     0.274 HD
ATOM     26 2H10 UNL     1      37.239 -55.606  37.832  1.00  0.00     0.274 HD
ATOM     27 1H10 UNL     1      38.206 -54.713  38.889  1.00  0.00     0.274 HD
ENDBRANCH  23  24
ENDBRANCH  22  23
ENDBRANCH  19  22
ENDBRANCH   1  14
BRANCH   5  28
HETATM   28  N4  UNL     1      31.409 -61.614  43.993  1.00  0.00    -0.369 N
ATOM     29  H4  UNL     1      31.285 -61.419  42.999  1.00  0.00     0.161 HD
BRANCH  28  30
HETATM   30  C6  UNL     1      31.275 -62.994  44.318  1.00  0.00     0.083 C
HETATM   31  C7  UNL     1      29.950 -63.571  43.951  1.00  0.00     0.025 C
HETATM   32  C8  UNL     1      30.176 -64.950  43.429  1.00  0.00     0.002 C
HETATM   33  C9  UNL     1      31.655 -65.200  43.454  1.00  0.00     0.002 C
HETATM   34  C10 UNL     1      32.288 -63.873  43.656  1.00  0.00     0.025 C
ENDBRANCH  28  30
ENDBRANCH   5  28
BRANCH   8  35
HETATM   35  N6  UNL     1      31.204 -59.193  47.894  1.00  0.00    -0.234 N
ATOM     36  H62 UNL     1      31.789 -59.518  48.664  1.00  0.00     0.174 HD
ATOM     37  H61 UNL     1      30.295 -58.782  48.104  1.00  0.00     0.174 HD
ENDBRANCH   8  35
TORSDOF 7
ENDMDL