MODEL 4
REMARK VINA RESULT: -9.411807953      2.170      3.428
REMARK  6 active torsions:
REMARK  status: ('A' for Active; 'I' for Inactive)
REMARK    1  A    between atoms: C2_5  and  O2_6
REMARK    2  A    between atoms: C3_8  and  C4_9
REMARK    3  A    between atoms: C5_12  and  C6_13
REMARK    4  A    between atoms: C6_13  and  C7_14
REMARK    5  A    between atoms: C7_14  and  N3_15
REMARK    6  A    between atoms: C11_19  and  O3_20
ROOT
HETATM    1  C4  UNL     1      33.747 -60.432  42.440  1.00  0.00     0.097 A
HETATM    2  N2  UNL     1      32.684 -61.112  42.948  1.00  0.00    -0.342 N
ATOM      3  H2  UNL     1      31.845 -60.574  43.166  1.00  0.00     0.167 HD
HETATM    4  C5  UNL     1      32.649 -62.410  43.180  1.00  0.00     0.085 A
HETATM    5  N4  UNL     1      33.738 -63.147  42.902  1.00  0.00    -0.329 N
ATOM      6  H4  UNL     1      33.718 -64.152  43.079  1.00  0.00     0.168 HD
HETATM    7  C13 UNL     1      34.851 -62.594  42.398  1.00  0.00     0.153 A
HETATM    8  N5  UNL     1      36.057 -63.069  42.032  1.00  0.00    -0.269 N
ATOM      9  H5  UNL     1      36.355 -64.043  42.085  1.00  0.00     0.190 HD
HETATM   10  N6  UNL     1      36.787 -62.059  41.593  1.00  0.00    -0.240 N
ATOM     11  H6  UNL     1      37.746 -62.117  41.249  1.00  0.00     0.208 HD
HETATM   12  N7  UNL     1      36.062 -60.968  41.676  1.00  0.00    -0.280 N
ATOM     13  H7  UNL     1      36.391 -60.043  41.399  1.00  0.00     0.188 HD
HETATM   14  C14 UNL     1      34.846 -61.208  42.166  1.00  0.00     0.124 A
ENDROOT
BRANCH   1  15
HETATM   15  C3  UNL     1      33.665 -59.001  42.229  1.00  0.00     0.117 A
HETATM   16  C2  UNL     1      33.644 -57.947  43.090  1.00  0.00     0.174 A
HETATM   17  N1  UNL     1      33.555 -56.825  42.310  1.00  0.00    -0.287 N
HETATM   18  C1  UNL     1      33.520 -57.147  41.014  1.00  0.00     0.326 A
ATOM     19  H1  UNL     1      33.521 -55.872  42.671  1.00  0.00     0.172 HD
HETATM   20  O1  UNL     1      33.440 -56.360  40.014  1.00  0.00    -0.247 OA
HETATM   21  N8  UNL     1      33.588 -58.482  40.976  1.00  0.00    -0.303 N
ATOM     22  H8  UNL     1      33.583 -59.037  40.120  1.00  0.00     0.171 HD
BRANCH  16  23
HETATM   23  O2  UNL     1      33.700 -57.955  44.475  1.00  0.00    -0.344 OA
ATOM     24  H2  UNL     1      33.309 -58.615  45.036  1.00  0.00     0.219 HD
ENDBRANCH  16  23
ENDBRANCH   1  15
BRANCH   4  25
HETATM   25  C6  UNL     1      31.420 -63.077  43.746  1.00  0.00     0.106 C
BRANCH  25  26
HETATM   26  C7  UNL     1      31.855 -64.367  44.353  1.00  0.00     0.280 C
BRANCH  26  27
HETATM   27  N3  UNL     1      31.479 -64.500  45.740  1.00  0.00     0.091 N
HETATM   28  C8  UNL     1      31.685 -65.885  46.096  1.00  0.00     0.272 C
HETATM   29  C9  UNL     1      30.945 -66.366  47.280  1.00  0.00     0.033 C
HETATM   30  C10 UNL     1      30.416 -65.321  48.193  1.00  0.00     0.035 C
HETATM   31  C11 UNL     1      29.923 -64.083  47.492  1.00  0.00     0.146 C
HETATM   32  C12 UNL     1      30.116 -64.160  45.994  1.00  0.00     0.303 C
BRANCH  31  33
HETATM   33  O3  UNL     1      28.587 -63.804  47.742  1.00  0.00    -0.394 OA
ATOM     34  H3  UNL     1      28.457 -63.015  48.255  1.00  0.00     0.210 HD
ENDBRANCH  31  33
ENDBRANCH  26  27
ENDBRANCH  25  26
ENDBRANCH   4  25
TORSDOF 6
ENDMDL