MODEL 2
REMARK VINA RESULT: -7.828268963      2.166      2.563
REMARK  9 active torsions:
REMARK  status: ('A' for Active; 'I' for Inactive)
REMARK    1  A    between atoms: C2_2  and  C3_3
REMARK    2  A    between atoms: C3_3  and  N1_4
REMARK    3  A    between atoms: N1_4  and  C4_6
REMARK    4  A    between atoms: C8_14  and  C9_15
REMARK    5  A    between atoms: C10_16  and  C11_17
REMARK    6  A    between atoms: C11_17  and  C12_18
REMARK    7  A    between atoms: C12_18  and  O1_19
REMARK    8  A    between atoms: N4_22  and  C14_23
REMARK    9  A    between atoms: C17_31  and  N8_32
ROOT
HETATM    1  C14 UNL     1      35.248 -59.467  41.399  1.00  0.00     0.707 A
HETATM    2  N5  UNL     1      36.277 -58.850  40.803  1.00  0.00    -0.165 N
ATOM      3  H5  UNL     1      37.144 -59.363  40.637  1.00  0.00     0.186 HD
HETATM    4  C15 UNL     1      36.184 -57.564  40.418  1.00  0.00     0.217 A
HETATM    5  C16 UNL     1      37.251 -56.853  39.775  1.00  0.00     0.138 C
HETATM    6  N6  UNL     1      38.121 -56.274  39.272  1.00  0.00    -0.188 NA
HETATM    7  N7  UNL     1      35.036 -56.899  40.641  1.00  0.00    -0.166 N
ATOM      8  H7  UNL     1      34.953 -55.924  40.353  1.00  0.00     0.186 HD
HETATM    9  C17 UNL     1      34.000 -57.505  41.239  1.00  0.00     0.692 A
HETATM   10  N9  UNL     1      34.125 -58.776  41.606  1.00  0.00    -0.022 N
ATOM     11  H9  UNL     1      33.337 -59.239  42.061  1.00  0.00     0.203 HD
ENDROOT
BRANCH   1  12
HETATM   12  N4  UNL     1      35.354 -60.854  41.812  1.00  0.00    -0.140 N
HETATM   13  C6  UNL     1      34.348 -61.620  42.254  1.00  0.00     0.144 A
HETATM   14  N3  UNL     1      33.032 -61.374  42.443  1.00  0.00    -0.337 N
HETATM   15  C7  UNL     1      34.777 -62.892  42.566  1.00  0.00     0.073 A
HETATM   16  C5  UNL     1      32.194 -62.310  42.905  1.00  0.00     0.183 A
ATOM     17  H3  UNL     1      32.667 -60.446  42.227  1.00  0.00     0.168 HD
HETATM   18  N2  UNL     1      32.628 -63.548  43.204  1.00  0.00    -0.338 N
HETATM   19  C4  UNL     1      33.916 -63.852  43.040  1.00  0.00     0.117 A
ATOM     20  H2  UNL     1      31.976 -64.248  43.555  1.00  0.00     0.168 HD
HETATM   21  C8  UNL     1      36.150 -62.890  42.288  1.00  0.00     0.052 A
HETATM   22  C13 UNL     1      36.453 -61.625  41.832  1.00  0.00     0.138 A
BRANCH  19  23
HETATM   23  N1  UNL     1      34.327 -65.028  43.324  1.00  0.00    -0.372 N
ATOM     24  H1  UNL     1      35.100 -65.089  43.987  1.00  0.00     0.161 HD
BRANCH  23  25
HETATM   25  C3  UNL     1      33.830 -66.264  42.823  1.00  0.00     0.147 C
BRANCH  25  26
HETATM   26  C2  UNL     1      33.859 -66.367  41.337  1.00  0.00    -0.018 C
HETATM   27  C1  UNL     1      34.996 -66.678  40.743  1.00  0.00     0.008 C
ENDBRANCH  25  26
ENDBRANCH  23  25
ENDBRANCH  19  23
BRANCH  21  28
HETATM   28  C9  UNL     1      37.006 -64.030  42.473  1.00  0.00    -0.064 C
HETATM   29  C10 UNL     1      37.717 -64.991  42.634  1.00  0.00    -0.099 C
BRANCH  29  30
HETATM   30  C11 UNL     1      38.569 -66.169  42.843  1.00  0.00     0.120 C
BRANCH  30  31
HETATM   31  C12 UNL     1      37.690 -67.268  43.364  1.00  0.00     0.176 C
BRANCH  31  32
HETATM   32  O1  UNL     1      36.887 -66.790  44.389  1.00  0.00    -0.400 OA
ATOM     33  H1  UNL     1      36.038 -67.217  44.365  1.00  0.00     0.209 HD
ENDBRANCH  31  32
ENDBRANCH  30  31
ENDBRANCH  29  30
ENDBRANCH  21  28
ENDBRANCH   1  12
BRANCH   9  34
HETATM   34  N8  UNL     1      32.891 -56.828  41.443  1.00  0.00    -0.234 N
ATOM     35  H82 UNL     1      32.725 -55.920  41.009  1.00  0.00     0.174 HD
ATOM     36  H81 UNL     1      32.174 -57.219  42.055  1.00  0.00     0.174 HD
ENDBRANCH   9  34
TORSDOF 9
ENDMDL