MODEL 2
REMARK VINA RESULT: -7.964192294      1.346      2.456
REMARK  6 active torsions:
REMARK  status: ('A' for Active; 'I' for Inactive)
REMARK    1  A    between atoms: N1_2  and  C2_4
REMARK    2  A    between atoms: C3_7  and  N3_8
REMARK    3  A    between atoms: N3_8  and  C4_10
REMARK    4  A    between atoms: C8_20  and  C9_21
REMARK    5  A    between atoms: C10_26  and  C11_27
REMARK    6  A    between atoms: C11_27  and  C12_28
ROOT
HETATM    1  C2  UNL     1      33.354 -61.337  42.581  1.00  0.00     0.133 A
HETATM    2  N2  UNL     1      34.188 -60.340  42.190  1.00  0.00    -0.176 N
ATOM      3  H2  UNL     1      33.851 -59.385  42.072  1.00  0.00     0.186 HD
HETATM    4  C3  UNL     1      35.473 -60.658  41.963  1.00  0.00     0.681 A
HETATM    5  N5  UNL     1      35.922 -61.902  42.113  1.00  0.00    -0.178 N
ATOM      6  H5  UNL     1      36.907 -62.096  41.930  1.00  0.00     0.185 HD
HETATM    7  C7  UNL     1      35.111 -62.927  42.505  1.00  0.00     0.148 A
HETATM    8  N6  UNL     1      35.643 -64.230  42.647  1.00  0.00    -0.081 NA
HETATM    9  C8  UNL     1      33.811 -62.624  42.738  1.00  0.00     0.085 A
ENDROOT
BRANCH   9  10
HETATM   10  C9  UNL     1      32.900 -63.697  43.162  1.00  0.00     0.108 A
HETATM   11  N7  UNL     1      32.468 -64.728  42.445  1.00  0.00    -0.292 N
HETATM   12  N8  UNL     1      31.683 -65.566  42.962  1.00  0.00    -0.297 N
ATOM     13  H7  UNL     1      32.770 -64.841  41.478  1.00  0.00     0.187 HD
HETATM   14  C10 UNL     1      31.286 -65.423  44.222  1.00  0.00     0.074 A
ATOM     15  H8  UNL     1      31.350 -66.358  42.412  1.00  0.00     0.187 HD
HETATM   16  S1  UNL     1      32.114 -63.981  44.654  1.00  0.00    -0.055 SA
BRANCH  14  17
HETATM   17  C11 UNL     1      30.366 -66.293  45.025  1.00  0.00     0.124 C
BRANCH  17  18
HETATM   18  C12 UNL     1      30.725 -66.241  46.449  1.00  0.00     0.031 A
HETATM   19  C13 UNL     1      30.067 -65.619  47.489  1.00  0.00     0.114 A
HETATM   20  N9  UNL     1      30.779 -65.852  48.606  1.00  0.00    -0.360 N
HETATM   21  C14 UNL     1      31.852 -66.592  48.312  1.00  0.00     0.180 A
ATOM     22  H9  UNL     1      30.537 -65.515  49.538  1.00  0.00     0.166 HD
HETATM   23  N10 UNL     1      31.809 -66.824  46.984  1.00  0.00    -0.354 N
ATOM     24  H10 UNL     1      32.499 -67.364  46.462  1.00  0.00     0.166 HD
ENDBRANCH  17  18
ENDBRANCH  14  17
ENDBRANCH   9  10
BRANCH   1  25
HETATM   25  N1  UNL     1      32.115 -61.114  42.816  1.00  0.00    -0.379 N
HETATM   26  C1  UNL     1      31.725 -60.228  43.900  1.00  0.00     0.147 C
ATOM     27  H1  UNL     1      31.400 -61.559  42.240  1.00  0.00     0.160 HD
ENDBRANCH   1  25
BRANCH   4  28
HETATM   28  N3  UNL     1      36.260 -59.709  41.593  1.00  0.00    -0.218 N
ATOM     29  H3  UNL     1      37.251 -59.771  41.824  1.00  0.00     0.178 HD
BRANCH  28  30
HETATM   30  C4  UNL     1      35.783 -58.566  40.866  1.00  0.00     0.150 C
HETATM   31  C5  UNL     1      35.930 -57.292  41.649  1.00  0.00     0.259 C
HETATM   32  N4  UNL     1      37.005 -56.892  40.764  1.00  0.00    -0.071 N
HETATM   33  C6  UNL     1      36.785 -58.002  39.888  1.00  0.00     0.259 C
ATOM     34  H42 UNL     1      36.997 -55.949  40.375  1.00  0.00     0.277 HD
ATOM     35  H41 UNL     1      37.937 -56.749  41.153  1.00  0.00     0.277 HD
ENDBRANCH  28  30
ENDBRANCH   4  28
TORSDOF 6
ENDMDL