MODEL 2
REMARK VINA RESULT: -7.699115861      1.099      2.358
REMARK  9 active torsions:
REMARK  status: ('A' for Active; 'I' for Inactive)
REMARK    1  A    between atoms: O1_2  and  C2_3
REMARK    2  A    between atoms: C3_6  and  C4_7
REMARK    3  A    between atoms: C4_7  and  C5_8
REMARK    4  A    between atoms: C5_8  and  N2_9
REMARK    5  A    between atoms: C6_15  and  C7_16
REMARK    6  A    between atoms: C7_16  and  C8_17
REMARK    7  A    between atoms: C9_18  and  C10_19
REMARK    8  A    between atoms: C13_24  and  N5_25
REMARK    9  A    between atoms: C14_30  and  N7_31
ROOT
HETATM    1  C10 UNL     1      30.893 -64.797  44.586  1.00  0.00     0.103 A
HETATM    2  C11 UNL     1      30.849 -65.931  43.779  1.00  0.00     0.127 A
HETATM    3  N4  UNL     1      30.560 -67.157  44.249  1.00  0.00    -0.357 N
ATOM      4  H4  UNL     1      30.537 -67.966  43.627  1.00  0.00     0.165 HD
HETATM    5  C12 UNL     1      30.299 -67.287  45.577  1.00  0.00     0.122 A
HETATM    6  C13 UNL     1      29.997 -68.552  46.081  1.00  0.00     0.145 A
HETATM    7  N6  UNL     1      29.745 -68.632  47.408  1.00  0.00    -0.175 N
ATOM      8  H6  UNL     1      29.520 -69.538  47.819  1.00  0.00     0.186 HD
HETATM    9  C14 UNL     1      29.784 -67.543  48.195  1.00  0.00     0.681 A
HETATM   10  N8  UNL     1      30.077 -66.329  47.699  1.00  0.00    -0.170 N
HETATM   11  C15 UNL     1      30.117 -65.166  48.553  1.00  0.00     0.177 C
HETATM   12  C16 UNL     1      30.342 -66.163  46.376  1.00  0.00     0.154 A
HETATM   13  N9  UNL     1      30.633 -64.936  45.898  1.00  0.00    -0.332 N
ATOM     14  H9  UNL     1      30.655 -64.128  46.521  1.00  0.00     0.168 HD
ENDROOT
BRANCH   1  15
HETATM   15  C9  UNL     1      31.212 -63.499  44.015  1.00  0.00    -0.047 C
HETATM   16  C8  UNL     1      31.491 -62.413  43.557  1.00  0.00    -0.093 C
BRANCH  16  17
HETATM   17  C7  UNL     1      31.839 -61.101  43.026  1.00  0.00     0.155 C
BRANCH  17  18
HETATM   18  C6  UNL     1      31.986 -60.112  44.126  1.00  0.00     0.073 A
HETATM   19  C2  UNL     1      32.723 -58.958  44.047  1.00  0.00     0.167 A
HETATM   20  N1  UNL     1      32.608 -58.340  45.231  1.00  0.00    -0.325 N
HETATM   21  C3  UNL     1      31.819 -59.080  46.043  1.00  0.00     0.085 A
ATOM     22  H1  UNL     1      33.045 -57.453  45.481  1.00  0.00     0.169 HD
HETATM   23  N3  UNL     1      31.437 -60.170  45.360  1.00  0.00    -0.345 N
ATOM     24  H3  UNL     1      30.836 -60.915  45.712  1.00  0.00     0.167 HD
BRANCH  19  25
HETATM   25  O1  UNL     1      33.450 -58.518  42.942  1.00  0.00    -0.339 OA
HETATM   26  C1  UNL     1      34.531 -57.634  43.026  1.00  0.00     0.211 C
ENDBRANCH  19  25
BRANCH  21  27
HETATM   27  C4  UNL     1      31.486 -58.680  47.440  1.00  0.00     0.104 C
BRANCH  27  28
HETATM   28  C5  UNL     1      30.310 -57.726  47.471  1.00  0.00     0.237 C
BRANCH  28  29
HETATM   29  N2  UNL     1      30.787 -56.354  47.452  1.00  0.00    -0.079 N
ATOM     30  H23 UNL     1      31.535 -56.217  46.773  1.00  0.00     0.274 HD
ATOM     31  H22 UNL     1      30.101 -55.716  47.048  1.00  0.00     0.274 HD
ATOM     32  H21 UNL     1      31.066 -56.070  48.391  1.00  0.00     0.274 HD
ENDBRANCH  28  29
ENDBRANCH  27  28
ENDBRANCH  21  27
ENDBRANCH  17  18
ENDBRANCH  16  17
ENDBRANCH   1  15
BRANCH   6  33
HETATM   33  N5  UNL     1      29.962 -69.589  45.315  1.00  0.00    -0.383 N
ATOM     34  H52 UNL     1      30.811 -70.068  45.016  1.00  0.00     0.157 HD
ATOM     35  H51 UNL     1      29.079 -69.968  44.975  1.00  0.00     0.157 HD
ENDBRANCH   6  33
BRANCH   9  36
HETATM   36  N7  UNL     1      29.528 -67.699  49.468  1.00  0.00    -0.234 N
ATOM     37  H72 UNL     1      29.698 -66.941  50.129  1.00  0.00     0.174 HD
ATOM     38  H71 UNL     1      29.157 -68.598  49.773  1.00  0.00     0.174 HD
ENDBRANCH   9  36
TORSDOF 9
ENDMDL