MODEL 1
REMARK VINA RESULT: -7.799504530      0.000      0.000
REMARK  7 active torsions:
REMARK  status: ('A' for Active; 'I' for Inactive)
REMARK    1  A    between atoms: O1_2  and  C2_3
REMARK    2  A    between atoms: C3_6  and  N2_7
REMARK    3  A    between atoms: N2_7  and  N3_9
REMARK    4  A    between atoms: N3_9  and  C4_10
REMARK    5  A    between atoms: C5_13  and  N5_14
REMARK    6  A    between atoms: C6_19  and  S1_20
REMARK    7  A    between atoms: C11_29  and  O3_30
ROOT
HETATM    1  C4  UNL     1      31.312 -63.700  43.764  1.00  0.00     0.242 A
HETATM    2  N4  UNL     1      31.293 -64.715  42.841  1.00  0.00    -0.161 N
ATOM      3  H4  UNL     1      31.422 -64.473  41.859  1.00  0.00     0.187 HD
HETATM    4  C5  UNL     1      31.117 -66.001  43.154  1.00  0.00     0.679 A
HETATM    5  N6  UNL     1      30.948 -66.318  44.442  1.00  0.00    -0.184 N
ATOM      6  H6  UNL     1      30.811 -67.295  44.701  1.00  0.00     0.185 HD
HETATM    7  C6  UNL     1      30.955 -65.375  45.409  1.00  0.00     0.111 A
HETATM    8  C8  UNL     1      31.133 -64.053  45.108  1.00  0.00     0.139 A
HETATM    9  C9  UNL     1      31.144 -63.023  46.115  1.00  0.00     0.107 C
HETATM   10  N7  UNL     1      31.156 -62.203  46.934  1.00  0.00    -0.191 NA
ENDROOT
BRANCH   1  11
HETATM   11  N3  UNL     1      31.497 -62.564  43.396  1.00  0.00    -0.290 NA
BRANCH  11  12
HETATM   12  N2  UNL     1      31.693 -61.394  43.014  1.00  0.00    -0.063 N
ATOM     13  H2  UNL     1      30.821 -60.981  42.684  1.00  0.00     0.221 HD
BRANCH  12  14
HETATM   14  C3  UNL     1      32.635 -60.561  42.909  1.00  0.00     0.712 A
HETATM   15  N1  UNL     1      33.800 -60.983  42.308  1.00  0.00    -0.165 N
HETATM   16  C2  UNL     1      34.853 -60.181  42.149  1.00  0.00     0.196 A
ATOM     17  H1  UNL     1      33.860 -61.944  41.972  1.00  0.00     0.186 HD
HETATM   18  C11 UNL     1      34.753 -58.883  42.614  1.00  0.00     0.189 A
HETATM   19  C10 UNL     1      33.569 -58.473  43.219  1.00  0.00     0.297 A
HETATM   20  N8  UNL     1      32.526 -59.306  43.362  1.00  0.00    -0.151 N
HETATM   21  O2  UNL     1      33.476 -57.291  43.641  1.00  0.00    -0.264 OA
ATOM     22  H8  UNL     1      31.666 -58.987  43.808  1.00  0.00     0.188 HD
BRANCH  16  23
HETATM   23  O1  UNL     1      36.028 -60.589  41.547  1.00  0.00    -0.338 OA
HETATM   24  C1  UNL     1      36.551 -61.885  41.837  1.00  0.00     0.211 C
ENDBRANCH  16  23
BRANCH  18  25
HETATM   25  O3  UNL     1      35.837 -58.033  42.462  1.00  0.00    -0.347 OA
HETATM   26  C12 UNL     1      35.830 -57.238  41.264  1.00  0.00     0.210 C
ENDBRANCH  18  25
ENDBRANCH  12  14
ENDBRANCH  11  12
ENDBRANCH   1  11
BRANCH   7  27
HETATM   27  S1  UNL     1      30.720 -65.842  47.126  1.00  0.00    -0.115 SA
HETATM   28  C7  UNL     1      29.858 -67.426  47.276  1.00  0.00     0.097 C
ENDBRANCH   7  27
BRANCH   4  29
HETATM   29  N5  UNL     1      31.119 -66.919  42.213  1.00  0.00    -0.234 N
ATOM     30  H52 UNL     1      30.381 -66.966  41.511  1.00  0.00     0.174 HD
ATOM     31  H51 UNL     1      31.864 -67.614  42.174  1.00  0.00     0.174 HD
ENDBRANCH   4  29
TORSDOF 7
ENDMDL