MODEL 2
REMARK VINA RESULT: -7.275199079      1.747      6.105
REMARK  6 active torsions:
REMARK  status: ('A' for Active; 'I' for Inactive)
REMARK    1  A    between atoms: C3_7  and  N3_8
REMARK    2  A    between atoms: N3_8  and  C4_10
REMARK    3  A    between atoms: C8_16  and  N5_17
REMARK    4  A    between atoms: C12_23  and  N7_24
REMARK    5  A    between atoms: N7_24  and  N8_26
REMARK    6  A    between atoms: N9_29  and  C13_30
ROOT
HETATM    1  C1  UNL     1      33.789 -66.455  43.925  1.00  0.00     0.165 C
HETATM    2  N1  UNL     1      35.072 -65.971  43.510  1.00  0.00    -0.230 N
ATOM      3  H1  UNL     1      35.856 -66.623  43.553  1.00  0.00     0.177 HD
HETATM    4  C2  UNL     1      35.319 -64.777  43.086  1.00  0.00     0.681 A
HETATM    5  N2  UNL     1      36.611 -64.489  42.729  1.00  0.00    -0.175 N
ATOM      6  H2  UNL     1      37.334 -65.204  42.810  1.00  0.00     0.186 HD
HETATM    7  C3  UNL     1      36.923 -63.271  42.276  1.00  0.00     0.148 A
HETATM    8  C7  UNL     1      35.949 -62.276  42.157  1.00  0.00     0.138 A
HETATM    9  N4  UNL     1      35.986 -61.010  41.740  1.00  0.00    -0.184 N
ATOM     10  H4  UNL     1      36.821 -60.525  41.411  1.00  0.00     0.184 HD
HETATM   11  C8  UNL     1      34.733 -60.459  41.819  1.00  0.00     0.687 A
HETATM   12  N9  UNL     1      33.933 -61.439  42.299  1.00  0.00    -0.160 N
HETATM   13  C16 UNL     1      34.655 -62.565  42.515  1.00  0.00     0.170 A
HETATM   14  N10 UNL     1      34.401 -63.805  42.964  1.00  0.00    -0.173 N
ATOM     15  H10 UNL     1      33.442 -64.024  43.231  1.00  0.00     0.186 HD
ENDROOT
BRANCH  11  16
HETATM   16  N5  UNL     1      34.326 -59.155  41.460  1.00  0.00    -0.192 N
HETATM   17  C9  UNL     1      34.076 -58.928  40.023  1.00  0.00     0.163 C
HETATM   18  C10 UNL     1      35.193 -57.952  39.627  1.00  0.00     0.134 C
HETATM   19  N6  UNL     1      35.034 -56.773  40.413  1.00  0.00    -0.416 N
HETATM   20  C11 UNL     1      35.108 -56.931  41.827  1.00  0.00     0.162 C
ATOM     21  H6  UNL     1      34.874 -55.861  39.984  1.00  0.00     0.153 HD
HETATM   22  C12 UNL     1      34.137 -58.019  42.290  1.00  0.00     0.233 C
BRANCH  22  23
HETATM   23  N7  UNL     1      34.122 -58.206  43.689  1.00  0.00    -0.317 N
ATOM     24  H7  UNL     1      34.879 -58.702  44.160  1.00  0.00     0.182 HD
BRANCH  23  25
HETATM   25  N8  UNL     1      33.065 -57.703  44.396  1.00  0.00    -0.347 N
ATOM     26  H82 UNL     1      32.910 -56.695  44.432  1.00  0.00     0.176 HD
ATOM     27  H81 UNL     1      32.451 -58.360  44.877  1.00  0.00     0.176 HD
ENDBRANCH  23  25
ENDBRANCH  22  23
ENDBRANCH  11  16
BRANCH  12  28
HETATM   28  C13 UNL     1      32.509 -61.323  42.535  1.00  0.00     0.110 A
HETATM   29  C14 UNL     1      31.934 -60.938  43.820  1.00  0.00     0.028 A
HETATM   30  C15 UNL     1      31.764 -62.338  43.290  1.00  0.00     0.028 A
ENDBRANCH  12  28
BRANCH   7  31
HETATM   31  N3  UNL     1      38.113 -62.961  41.947  1.00  0.00    -0.370 N
ATOM     32  H3  UNL     1      38.316 -61.966  41.851  1.00  0.00     0.161 HD
BRANCH  31  33
HETATM   33  C4  UNL     1      39.198 -63.866  41.698  1.00  0.00     0.075 C
HETATM   34  C5  UNL     1      40.506 -63.338  42.290  1.00  0.00     0.031 C
HETATM   35  C6  UNL     1      39.456 -64.069  40.219  1.00  0.00     0.031 C
ENDBRANCH  31  33
ENDBRANCH   7  31
TORSDOF 6
ENDMDL