MODEL 5
REMARK VINA RESULT: -8.979327485      1.780      2.573
REMARK  6 active torsions:
REMARK  status: ('A' for Active; 'I' for Inactive)
REMARK    1  A    between atoms: C3_3  and  N1_4
REMARK    2  A    between atoms: N3_10  and  C7_12
REMARK    3  A    between atoms: C7_12  and  C8_13
REMARK    4  A    between atoms: C8_13  and  C9_14
REMARK    5  A    between atoms: C14_24  and  N7_25
REMARK    6  A    between atoms: C15_32  and  N10_33
ROOT
HETATM    1  C1  UNL     1      37.282 -57.289  40.015  1.00  0.00     0.014 C
HETATM    2  C2  UNL     1      36.507 -57.274  40.940  1.00  0.00    -0.097 C
HETATM    3  C3  UNL     1      35.558 -57.280  42.072  1.00  0.00     0.224 C
ENDROOT
BRANCH   3   4
HETATM    4  N1  UNL     1      34.754 -58.481  41.987  1.00  0.00    -0.316 N
HETATM    5  C4  UNL     1      34.778 -59.425  41.022  1.00  0.00     0.186 A
HETATM    6  N2  UNL     1      33.864 -60.353  41.358  1.00  0.00    -0.346 N
HETATM    7  C5  UNL     1      33.282 -59.989  42.513  1.00  0.00     0.123 A
ATOM      8  H2  UNL     1      33.648 -61.194  40.824  1.00  0.00     0.167 HD
HETATM    9  C6  UNL     1      32.296 -60.550  43.310  1.00  0.00     0.147 A
HETATM   10  C16 UNL     1      33.835 -58.799  42.932  1.00  0.00     0.155 A
HETATM   11  N3  UNL     1      31.806 -61.662  42.883  1.00  0.00    -0.373 N
HETATM   12  N9  UNL     1      31.895 -59.953  44.448  1.00  0.00    -0.175 N
ATOM     13  H3  UNL     1      32.173 -62.038  42.009  1.00  0.00     0.161 HD
HETATM   14  C15 UNL     1      32.453 -58.782  44.840  1.00  0.00     0.679 A
ATOM     15  H9  UNL     1      31.168 -60.385  45.019  1.00  0.00     0.186 HD
HETATM   16  N11 UNL     1      33.410 -58.236  44.070  1.00  0.00    -0.174 N
ATOM     17  H11 UNL     1      33.829 -57.354  44.364  1.00  0.00     0.186 HD
BRANCH  11  18
HETATM   18  C7  UNL     1      30.769 -62.416  43.560  1.00  0.00     0.129 C
BRANCH  18  19
HETATM   19  C8  UNL     1      31.408 -63.253  44.618  1.00  0.00     0.096 C
BRANCH  19  20
HETATM   20  C9  UNL     1      31.220 -64.691  44.322  1.00  0.00     0.085 A
HETATM   21  N4  UNL     1      30.793 -65.512  45.347  1.00  0.00    -0.330 N
HETATM   22  C10 UNL     1      30.562 -66.813  45.220  1.00  0.00     0.140 A
ATOM     23  H4  UNL     1      30.645 -65.090  46.263  1.00  0.00     0.168 HD
HETATM   24  C11 UNL     1      30.770 -67.359  43.972  1.00  0.00     0.122 A
HETATM   25  N6  UNL     1      30.152 -67.816  46.033  1.00  0.00    -0.332 N
HETATM   26  N5  UNL     1      30.480 -68.680  44.065  1.00  0.00    -0.346 N
HETATM   27  C14 UNL     1      31.195 -66.559  42.946  1.00  0.00     0.131 A
HETATM   28  C12 UNL     1      30.101 -68.960  45.328  1.00  0.00     0.184 A
ATOM     29  H5  UNL     1      30.539 -69.354  43.302  1.00  0.00     0.167 HD
HETATM   30  N8  UNL     1      31.417 -65.220  43.134  1.00  0.00    -0.330 N
ATOM     31  H8  UNL     1      31.732 -64.638  42.358  1.00  0.00     0.168 HD
HETATM   32  C13 UNL     1      29.836 -67.605  47.434  1.00  0.00     0.158 C
BRANCH  27  33
HETATM   33  N7  UNL     1      31.386 -67.096  41.777  1.00  0.00    -0.383 N
ATOM     34  H72 UNL     1      32.326 -67.157  41.387  1.00  0.00     0.157 HD
ATOM     35  H71 UNL     1      30.578 -67.448  41.265  1.00  0.00     0.157 HD
ENDBRANCH  27  33
ENDBRANCH  19  20
ENDBRANCH  18  19
ENDBRANCH  11  18
BRANCH  14  36
HETATM   36  N10 UNL     1      32.056 -58.219  45.939  1.00  0.00    -0.234 N
ATOM     37 2H10 UNL     1      31.998 -58.735  46.817  1.00  0.00     0.174 HD
ATOM     38 1H10 UNL     1      31.794 -57.233  45.935  1.00  0.00     0.174 HD
ENDBRANCH  14  36
ENDBRANCH   3   4
TORSDOF 6
ENDMDL