MODEL 3
REMARK VINA RESULT: -7.188912055      2.132      8.741
REMARK  7 active torsions:
REMARK  status: ('A' for Active; 'I' for Inactive)
REMARK    1  A    between atoms: C2_2  and  C3_3
REMARK    2  A    between atoms: N1_7  and  N2_9
REMARK    3  A    between atoms: N2_9  and  C7_10
REMARK    4  A    between atoms: C9_15  and  N5_16
REMARK    5  A    between atoms: C10_19  and  N6_20
REMARK    6  A    between atoms: C11_27  and  N9_28
REMARK    7  A    between atoms: N10_31  and  O3_32
ROOT
HETATM    1  C3  UNL     1      35.454 -61.924  41.921  1.00  0.00     0.090 A
HETATM    2  C4  UNL     1      34.566 -62.659  42.625  1.00  0.00     0.015 A
HETATM    3  C5  UNL     1      34.872 -64.057  43.059  1.00  0.00     0.055 C
HETATM    4  C6  UNL     1      33.359 -62.084  43.014  1.00  0.00     0.155 A
HETATM    5  N1  UNL     1      32.457 -62.667  43.617  1.00  0.00    -0.214 N
ATOM      6  H1  UNL     1      31.732 -61.959  43.744  1.00  0.00     0.203 HD
HETATM    7  N8  UNL     1      33.137 -60.775  42.656  1.00  0.00    -0.172 N
ATOM      8  H8  UNL     1      32.256 -60.343  42.937  1.00  0.00     0.186 HD
HETATM    9  C11 UNL     1      34.004 -60.039  41.965  1.00  0.00     0.709 A
HETATM   10  N10 UNL     1      35.156 -60.633  41.608  1.00  0.00    -0.052 N
ENDROOT
BRANCH   5  11
HETATM   11  N2  UNL     1      31.998 -63.680  44.142  1.00  0.00    -0.286 NA
BRANCH  11  12
HETATM   12  C7  UNL     1      31.545 -64.682  44.662  1.00  0.00     0.284 A
HETATM   13  N3  UNL     1      31.179 -65.770  43.901  1.00  0.00    -0.301 N
HETATM   14  C8  UNL     1      30.691 -66.896  44.410  1.00  0.00     0.157 A
ATOM     15  H3  UNL     1      31.287 -65.709  42.888  1.00  0.00     0.171 HD
HETATM   16  N4  UNL     1      30.312 -68.029  43.628  1.00  0.00    -0.080 NA
HETATM   17  C9  UNL     1      30.537 -67.003  45.777  1.00  0.00     0.187 A
HETATM   18  C10 UNL     1      30.888 -65.944  46.577  1.00  0.00     0.139 A
HETATM   19  N7  UNL     1      31.365 -64.857  45.994  1.00  0.00    -0.299 N
ATOM     20  H7  UNL     1      31.622 -64.079  46.603  1.00  0.00     0.171 HD
BRANCH  17  21
HETATM   21  N5  UNL     1      30.032 -68.174  46.392  1.00  0.00    -0.108 N
HETATM   22  O1  UNL     1      28.819 -68.290  46.570  1.00  0.00    -0.532 OA
HETATM   23  O2  UNL     1      30.889 -69.156  46.780  1.00  0.00    -0.532 OA
ENDBRANCH  17  21
BRANCH  18  24
HETATM   24  N6  UNL     1      30.739 -66.038  47.863  1.00  0.00    -0.383 N
ATOM     25  H62 UNL     1      30.796 -66.927  48.358  1.00  0.00     0.157 HD
ATOM     26  H61 UNL     1      30.560 -65.196  48.410  1.00  0.00     0.157 HD
ENDBRANCH  18  24
ENDBRANCH  11  12
ENDBRANCH   5  11
BRANCH   1  27
HETATM   27  C2  UNL     1      36.715 -62.417  41.388  1.00  0.00     0.023 C
HETATM   28  C1  UNL     1      37.740 -62.859  42.066  1.00  0.00     0.013 C
ENDBRANCH   1  27
BRANCH   9  29
HETATM   29  N9  UNL     1      33.774 -58.690  41.588  1.00  0.00    -0.209 N
HETATM   30  C12 UNL     1      33.807 -57.674  42.330  1.00  0.00     0.137 C
ATOM     31  H9  UNL     1      33.557 -58.525  40.605  1.00  0.00     0.182 HD
ENDBRANCH   9  29
BRANCH  10  32
HETATM   32  O3  UNL     1      36.087 -59.896  40.890  1.00  0.00    -0.269 OA
ATOM     33  H3  UNL     1      35.831 -59.043  40.563  1.00  0.00     0.245 HD
ENDBRANCH  10  32
TORSDOF 7
ENDMDL