MODEL 1
REMARK VINA RESULT: -8.607099207      0.000      0.000
REMARK  9 active torsions:
REMARK  status: ('A' for Active; 'I' for Inactive)
REMARK    1  A    between atoms: C2_2  and  N1_3
REMARK    2  A    between atoms: N1_3  and  C3_5
REMARK    3  A    between atoms: C5_11  and  N4_12
REMARK    4  A    between atoms: N4_12  and  N5_14
REMARK    5  A    between atoms: C6_16  and  C8_18
REMARK    6  A    between atoms: C12_25  and  N8_26
REMARK    7  A    between atoms: N8_26  and  C13_27
REMARK    8  A    between atoms: C13_27  and  C14_28
REMARK    9  A    between atoms: C14_28  and  O1_29
ROOT
HETATM    1  C3  UNL     1     -21.658  27.043  11.068  1.00  0.00     0.682 A
HETATM    2  N2  UNL     1     -20.815  27.232  12.124  1.00  0.00    -0.175 N
ATOM      3  H2  UNL     1     -20.764  26.627  12.943  1.00  0.00     0.186 HD
HETATM    4  C4  UNL     1     -20.052  28.345  11.929  1.00  0.00     0.155 A
HETATM    5  N3  UNL     1     -19.139  28.700  12.859  1.00  0.00    -0.173 N
ATOM      6  H3  UNL     1     -19.033  28.144  13.707  1.00  0.00     0.186 HD
HETATM    7  C5  UNL     1     -18.361  29.800  12.665  1.00  0.00     0.699 A
HETATM    8  N6  UNL     1     -18.526  30.510  11.543  1.00  0.00    -0.176 N
ATOM      9  H6  UNL     1     -17.936  31.332  11.412  1.00  0.00     0.185 HD
HETATM   10  C10 UNL     1     -19.374  30.232  10.618  1.00  0.00     0.150 A
HETATM   11  N7  UNL     1     -19.583  30.954   9.422  1.00  0.00    -0.081 NA
HETATM   12  C11 UNL     1     -20.272  29.038  10.745  1.00  0.00     0.109 A
HETATM   13  C12 UNL     1     -20.968  29.079   9.633  1.00  0.00     0.209 A
HETATM   14  N9  UNL     1     -21.812  27.696  10.034  1.00  0.00    -0.163 N
ATOM     15  H9  UNL     1     -22.513  27.365   9.371  1.00  0.00     0.187 HD
ENDROOT
BRANCH   7  16
HETATM   16  N4  UNL     1     -17.512  30.101  13.551  1.00  0.00    -0.132 N
ATOM     17  H4  UNL     1     -17.770  30.920  14.101  1.00  0.00     0.205 HD
BRANCH  16  18
HETATM   18  N5  UNL     1     -16.335  29.558  13.914  1.00  0.00    -0.295 N
HETATM   19  C6  UNL     1     -15.207  29.877  13.425  1.00  0.00    -0.000 C
HETATM   20  C7  UNL     1     -14.000  29.171  13.945  1.00  0.00     0.065 C
ATOM     21  H5  UNL     1     -16.351  28.838  14.636  1.00  0.00     0.186 HD
BRANCH  19  22
HETATM   22  C8  UNL     1     -15.126  30.911  12.378  1.00  0.00     0.049 C
HETATM   23  C9  UNL     1     -13.696  31.285  12.061  1.00  0.00     0.011 C
ENDBRANCH  19  22
ENDBRANCH  16  18
ENDBRANCH   7  16
BRANCH   1  24
HETATM   24  N1  UNL     1     -22.414  25.939  11.262  1.00  0.00    -0.226 N
ATOM     25  H1  UNL     1     -23.187  25.719  10.634  1.00  0.00     0.177 HD
BRANCH  24  26
HETATM   26  C2  UNL     1     -22.104  25.088  12.367  1.00  0.00     0.133 C
HETATM   27  C1  UNL     1     -23.143  24.028  12.619  1.00  0.00     0.027 C
ENDBRANCH  24  26
ENDBRANCH   1  24
BRANCH  13  28
HETATM   28  N8  UNL     1     -21.557  29.113   8.693  1.00  0.00    -0.400 NA
BRANCH  28  29
HETATM   29  C13 UNL     1     -22.257  29.167   7.562  1.00  0.00     0.183 C
BRANCH  29  30
HETATM   30  C14 UNL     1     -23.131  27.971   7.172  1.00  0.00     0.223 C
BRANCH  30  31
HETATM   31  O1  UNL     1     -22.405  26.792   7.461  1.00  0.00    -0.395 OA
ATOM     32  H1  UNL     1     -22.450  26.228   6.698  1.00  0.00     0.209 HD
ENDBRANCH  30  31
ENDBRANCH  29  30
ENDBRANCH  28  29
ENDBRANCH  13  28
TORSDOF 9
ENDMDL