MODEL 4
REMARK VINA RESULT: -7.038068724      1.947      2.574
REMARK  9 active torsions:
REMARK  status: ('A' for Active; 'I' for Inactive)
REMARK    1  A    between atoms: O1_2  and  C2_3
REMARK    2  A    between atoms: C3_4  and  C4_5
REMARK    3  A    between atoms: N1_6  and  N2_8
REMARK    4  A    between atoms: N2_8  and  C5_10
REMARK    5  A    between atoms: C6_13  and  N4_14
REMARK    6  A    between atoms: C7_19  and  N6_20
REMARK    7  A    between atoms: N6_20  and  N7_22
REMARK    8  A    between atoms: C11_30  and  O2_31
REMARK    9  A    between atoms: O2_31  and  C12_32
ROOT
HETATM    1  C5  UNL     1     -20.499  28.023  11.483  1.00  0.00     0.726 A
HETATM    2  N3  UNL     1     -20.906  28.349  10.240  1.00  0.00    -0.020 N
ATOM      3  H3  UNL     1     -20.519  29.183   9.798  1.00  0.00     0.203 HD
HETATM    4  C6  UNL     1     -21.804  27.613   9.562  1.00  0.00     0.705 A
HETATM    5  N5  UNL     1     -22.338  26.506  10.110  1.00  0.00    -0.020 N
ATOM      6  H5  UNL     1     -23.020  25.939   9.608  1.00  0.00     0.203 HD
HETATM    7  C7  UNL     1     -21.930  26.182  11.351  1.00  0.00     0.725 A
HETATM    8  N8  UNL     1     -21.032  26.917  12.032  1.00  0.00    -0.018 N
ATOM      9  H8  UNL     1     -20.753  26.633  12.971  1.00  0.00     0.203 HD
ENDROOT
BRANCH   1  10
HETATM   10  N2  UNL     1     -19.635  28.729  12.137  1.00  0.00    -0.131 N
ATOM     11  H2  UNL     1     -19.621  28.645  13.153  1.00  0.00     0.205 HD
BRANCH  10  12
HETATM   12  N1  UNL     1     -18.761  29.563  11.566  1.00  0.00    -0.297 N
HETATM   13  C4  UNL     1     -18.640  30.792  11.571  1.00  0.00     0.122 C
ATOM     14  H1  UNL     1     -18.047  29.086  11.014  1.00  0.00     0.186 HD
BRANCH  13  15
HETATM   15  C3  UNL     1     -19.494  31.743  12.264  1.00  0.00     0.017 A
HETATM   16  C2  UNL     1     -20.798  31.922  11.777  1.00  0.00     0.113 A
HETATM   17  C11 UNL     1     -21.691  32.794  12.356  1.00  0.00     0.103 A
HETATM   18  C10 UNL     1     -21.292  33.522  13.458  1.00  0.00     0.040 A
HETATM   19  C9  UNL     1     -20.019  33.375  13.968  1.00  0.00     0.004 A
HETATM   20  C8  UNL     1     -19.143  32.478  13.350  1.00  0.00     0.016 A
BRANCH  16  21
HETATM   21  O1  UNL     1     -21.253  31.207  10.661  1.00  0.00    -0.352 OA
HETATM   22  C1  UNL     1     -21.112  31.824   9.376  1.00  0.00     0.210 C
ENDBRANCH  16  21
BRANCH  17  23
HETATM   23  O2  UNL     1     -22.968  32.910  11.806  1.00  0.00    -0.344 OA
BRANCH  23  24
HETATM   24  C12 UNL     1     -23.953  33.820  12.101  1.00  0.00     0.121 C
HETATM   25  C13 UNL     1     -25.130  33.151  12.805  1.00  0.00     0.040 C
HETATM   26  C14 UNL     1     -24.434  34.434  10.776  1.00  0.00     0.040 C
ENDBRANCH  23  24
ENDBRANCH  17  23
ENDBRANCH  13  15
ENDBRANCH  10  12
ENDBRANCH   1  10
BRANCH   4  27
HETATM   27  N4  UNL     1     -22.193  27.930   8.366  1.00  0.00    -0.234 N
ATOM     28  H42 UNL     1     -22.360  28.917   8.176  1.00  0.00     0.174 HD
ATOM     29  H41 UNL     1     -22.330  27.230   7.637  1.00  0.00     0.174 HD
ENDBRANCH   4  27
BRANCH   7  30
HETATM   30  N6  UNL     1     -22.418  25.125  11.916  1.00  0.00    -0.138 N
ATOM     31  H6  UNL     1     -23.404  24.906  11.776  1.00  0.00     0.205 HD
BRANCH  30  32
HETATM   32  N7  UNL     1     -21.653  24.281  12.704  1.00  0.00    -0.331 N
ATOM     33  H72 UNL     1     -21.845  23.281  12.651  1.00  0.00     0.177 HD
ATOM     34  H71 UNL     1     -20.918  24.623  13.322  1.00  0.00     0.177 HD
ENDBRANCH  30  32
ENDBRANCH   7  30
TORSDOF 9
ENDMDL