MODEL 4
REMARK VINA RESULT: -7.566265057      4.069      5.358
REMARK  7 active torsions:
REMARK  status: ('A' for Active; 'I' for Inactive)
REMARK    1  A    between atoms: N5_15  and  C6_16
REMARK    2  A    between atoms: C6_16  and  C7_17
REMARK    3  A    between atoms: C7_17  and  O1_18
REMARK    4  A    between atoms: O1_18  and  C8_19
REMARK    5  A    between atoms: C8_19  and  C9_20
REMARK    6  A    between atoms: C13_30  and  N9_31
REMARK    7  A    between atoms: N9_31  and  N10_33
ROOT
HETATM    1  O1  UNL     1     -21.666  31.362   6.748  1.00  0.00    -0.385 OA
ENDROOT
BRANCH   1   2
HETATM    2  C7  UNL     1     -20.818  31.732   7.746  1.00  0.00     0.188 C
BRANCH   2   3
HETATM    3  C6  UNL     1     -20.319  30.539   8.505  1.00  0.00     0.157 C
BRANCH   3   4
HETATM    4  N5  UNL     1     -20.547  30.842   9.933  1.00  0.00    -0.325 N
HETATM    5  C3  UNL     1     -20.336  30.046  10.988  1.00  0.00     0.140 A
HETATM    6  N3  UNL     1     -19.879  28.798  11.094  1.00  0.00    -0.336 N
HETATM    7  C4  UNL     1     -20.680  30.715  12.158  1.00  0.00     0.122 A
HETATM    8  C2  UNL     1     -19.744  28.181  12.275  1.00  0.00     0.183 A
ATOM      9  H3  UNL     1     -19.624  28.295  10.245  1.00  0.00     0.168 HD
HETATM   10  N2  UNL     1     -20.084  28.849  13.390  1.00  0.00    -0.337 N
HETATM   11  C1  UNL     1     -20.554  30.111  13.392  1.00  0.00     0.131 A
ATOM     12  H2  UNL     1     -19.980  28.372  14.286  1.00  0.00     0.168 HD
HETATM   13  N1  UNL     1     -20.868  30.717  14.488  1.00  0.00    -0.383 N
ATOM     14  H12 UNL     1     -20.774  30.270  15.400  1.00  0.00     0.157 HD
ATOM     15  H11 UNL     1     -21.224  31.672  14.489  1.00  0.00     0.157 HD
HETATM   16  N4  UNL     1     -21.099  31.926  11.763  1.00  0.00    -0.346 N
HETATM   17  C5  UNL     1     -21.018  31.999  10.426  1.00  0.00     0.185 A
ATOM     18  H4  UNL     1     -21.426  32.670  12.379  1.00  0.00     0.167 HD
ENDBRANCH   3   4
ENDBRANCH   2   3
ENDBRANCH   1   2
BRANCH   1  19
HETATM   19  C8  UNL     1     -22.410  30.216   6.943  1.00  0.00     0.208 C
BRANCH  19  20
HETATM   20  C9  UNL     1     -23.641  30.267   6.178  1.00  0.00    -0.001 A
HETATM   21  C10 UNL     1     -24.226  31.404   5.679  1.00  0.00     0.100 A
HETATM   22  N6  UNL     1     -25.363  31.077   5.019  1.00  0.00    -0.351 N
HETATM   23  C11 UNL     1     -25.518  29.722   5.089  1.00  0.00     0.120 A
ATOM     24  H6  UNL     1     -25.993  31.728   4.551  1.00  0.00     0.166 HD
HETATM   25  N7  UNL     1     -26.429  28.848   4.635  1.00  0.00    -0.338 N
HETATM   26  C14 UNL     1     -24.443  29.230   5.812  1.00  0.00     0.063 A
HETATM   27  C12 UNL     1     -26.277  27.528   4.891  1.00  0.00     0.183 A
ATOM     28  H7  UNL     1     -27.233  29.177   4.100  1.00  0.00     0.168 HD
HETATM   29  N8  UNL     1     -25.236  27.047   5.590  1.00  0.00    -0.337 N
HETATM   30  C13 UNL     1     -24.299  27.881   6.065  1.00  0.00     0.135 A
ATOM     31  H8  UNL     1     -25.158  26.045   5.761  1.00  0.00     0.168 HD
BRANCH  30  32
HETATM   32  N9  UNL     1     -23.275  27.468   6.746  1.00  0.00    -0.291 N
ATOM     33  H9  UNL     1     -22.322  27.595   6.407  1.00  0.00     0.188 HD
BRANCH  32  34
HETATM   34  N10 UNL     1     -23.540  26.841   7.967  1.00  0.00    -0.344 N
ATOM     35 2H10 UNL     1     -24.370  26.259   8.083  1.00  0.00     0.176 HD
ATOM     36 1H10 UNL     1     -22.869  26.995   8.719  1.00  0.00     0.176 HD
ENDBRANCH  32  34
ENDBRANCH  30  32
ENDBRANCH  19  20
ENDBRANCH   1  19
TORSDOF 7
ENDMDL