MODEL 5
REMARK VINA RESULT: -7.394793083      3.858      8.829
REMARK  7 active torsions:
REMARK  status: ('A' for Active; 'I' for Inactive)
REMARK    1  A    between atoms: O1_2  and  N1_3
REMARK    2  A    between atoms: C2_5  and  N2_6
REMARK    3  A    between atoms: C2_5  and  C3_9
REMARK    4  A    between atoms: N4_12  and  C4_13
REMARK    5  A    between atoms: C4_13  and  C5_14
REMARK    6  A    between atoms: C5_14  and  C6_15
REMARK    7  A    between atoms: C12_26  and  N7_27
ROOT
HETATM    1  C3  UNL     1     -21.966  27.310   9.784  1.00  0.00     0.111 A
HETATM    2  N3  UNL     1     -22.794  26.826   8.777  1.00  0.00    -0.292 N
ATOM      3  H3  UNL     1     -23.309  25.947   8.828  1.00  0.00     0.187 HD
HETATM    4  N4  UNL     1     -22.827  27.639   7.762  1.00  0.00    -0.275 N
HETATM    5  C11 UNL     1     -22.040  28.691   8.025  1.00  0.00     0.153 A
HETATM    6  N6  UNL     1     -21.715  29.786   7.360  1.00  0.00    -0.174 N
ATOM      7  H6  UNL     1     -22.125  29.912   6.435  1.00  0.00     0.186 HD
HETATM    8  C12 UNL     1     -20.897  30.735   7.802  1.00  0.00     0.678 A
HETATM    9  N8  UNL     1     -20.372  30.545   9.022  1.00  0.00    -0.178 N
ATOM     10  H8  UNL     1     -19.740  31.254   9.392  1.00  0.00     0.185 HD
HETATM   11  C13 UNL     1     -20.641  29.449   9.796  1.00  0.00     0.148 A
HETATM   12  N9  UNL     1     -20.007  29.396  11.062  1.00  0.00    -0.081 NA
HETATM   13  C14 UNL     1     -21.495  28.484   9.303  1.00  0.00     0.084 A
ENDROOT
BRANCH   4  14
HETATM   14  C4  UNL     1     -23.565  27.514   6.508  1.00  0.00     0.151 C
BRANCH  14  15
HETATM   15  C5  UNL     1     -24.902  28.182   6.658  1.00  0.00     0.026 C
BRANCH  15  16
HETATM   16  C6  UNL     1     -25.358  28.871   5.417  1.00  0.00    -0.010 C
HETATM   17  C7  UNL     1     -26.420  28.091   4.660  1.00  0.00     0.032 C
HETATM   18  C8  UNL     1     -26.769  28.918   3.436  1.00  0.00     0.232 C
HETATM   19  N5  UNL     1     -27.384  30.142   3.911  1.00  0.00    -0.075 N
HETATM   20  C9  UNL     1     -26.334  30.971   4.470  1.00  0.00     0.232 C
ATOM     21  H52 UNL     1     -27.926  30.620   3.190  1.00  0.00     0.277 HD
ATOM     22  H51 UNL     1     -28.149  29.975   4.564  1.00  0.00     0.277 HD
HETATM   23  C10 UNL     1     -25.773  30.284   5.690  1.00  0.00     0.032 C
ENDBRANCH  15  16
ENDBRANCH  14  15
ENDBRANCH   4  14
BRANCH   1  24
HETATM   24  C2  UNL     1     -21.742  26.625  11.013  1.00  0.00     0.148 C
HETATM   25  N1  UNL     1     -22.676  25.726  11.323  1.00  0.00    -0.249 N
ATOM     26  H1  UNL     1     -23.459  25.596  10.681  1.00  0.00     0.196 HD
BRANCH  25  27
HETATM   27  O1  UNL     1     -22.635  24.980  12.446  1.00  0.00    -0.284 OA
HETATM   28  C1  UNL     1     -23.425  23.799  12.549  1.00  0.00     0.237 C
ENDBRANCH  25  27
BRANCH  24  29
HETATM   29  N2  UNL     1     -20.739  26.718  11.941  1.00  0.00    -0.382 N
ATOM     30  H22 UNL     1     -19.863  26.207  12.051  1.00  0.00     0.157 HD
ATOM     31  H21 UNL     1     -20.904  27.432  12.651  1.00  0.00     0.157 HD
ENDBRANCH  24  29
ENDBRANCH   1  24
BRANCH   8  32
HETATM   32  N7  UNL     1     -20.618  31.773   7.116  1.00  0.00    -0.234 N
ATOM     33  H72 UNL     1     -19.977  31.728   6.323  1.00  0.00     0.174 HD
ATOM     34  H71 UNL     1     -21.016  32.689   7.322  1.00  0.00     0.174 HD
ENDBRANCH   8  32
TORSDOF 7
ENDMDL