MODEL 5
REMARK VINA RESULT: -6.417190140      2.226      7.861
REMARK  8 active torsions:
REMARK  status: ('A' for Active; 'I' for Inactive)
REMARK    1  A    between atoms: C2_2  and  C3_3
REMARK    2  A    between atoms: C3_3  and  S1_4
REMARK    3  A    between atoms: S1_4  and  C4_5
REMARK    4  A    between atoms: C5_8  and  C6_9
REMARK    5  A    between atoms: N2_11  and  N3_13
REMARK    6  A    between atoms: N3_13  and  C8_15
REMARK    7  A    between atoms: N7_22  and  N8_24
REMARK    8  A    between atoms: N8_24  and  N9_25
ROOT
HETATM    1  N8  UNL     1     -17.224  30.587  12.878  1.00  0.00    -0.133 N
HETATM    2  C10 UNL     1     -16.240  29.883  13.565  1.00  0.00     0.221 C
HETATM    3  N10 UNL     1     -15.413  29.284  14.148  1.00  0.00    -0.169 NA
ENDROOT
BRANCH   1   4
HETATM    4  N7  UNL     1     -18.502  30.637  13.383  1.00  0.00    -0.278 N
HETATM    5  C2  UNL     1     -19.428  29.772  13.172  1.00  0.00     0.012 C
HETATM    6  C1  UNL     1     -20.748  29.997  13.807  1.00  0.00     0.066 C
ATOM      7  H7  UNL     1     -18.735  31.430  13.979  1.00  0.00     0.189 HD
BRANCH   5   8
HETATM    8  C3  UNL     1     -19.203  28.601  12.337  1.00  0.00     0.136 C
BRANCH   8   9
HETATM    9  S1  UNL     1     -20.720  27.629  12.081  1.00  0.00    -0.088 SA
BRANCH   9  10
HETATM   10  C4  UNL     1     -21.301  27.946  10.397  1.00  0.00     0.146 A
HETATM   11  N1  UNL     1     -21.090  29.038   9.669  1.00  0.00    -0.332 N
HETATM   12  C5  UNL     1     -21.676  28.942   8.431  1.00  0.00     0.099 A
ATOM     13  H1  UNL     1     -20.558  29.847   9.990  1.00  0.00     0.168 HD
HETATM   14  C9  UNL     1     -22.266  27.707   8.453  1.00  0.00     0.147 A
HETATM   15  N5  UNL     1     -23.019  27.080   7.426  1.00  0.00    -0.080 NA
HETATM   16  N6  UNL     1     -22.027  27.119   9.654  1.00  0.00    -0.323 N
ATOM     17  H6  UNL     1     -22.352  26.195   9.939  1.00  0.00     0.169 HD
BRANCH  12  18
HETATM   18  C6  UNL     1     -21.629  29.966   7.400  1.00  0.00     0.052 C
HETATM   19  C7  UNL     1     -20.307  30.771   7.409  1.00  0.00     0.072 C
HETATM   20  N2  UNL     1     -22.406  30.306   6.551  1.00  0.00    -0.301 N
ATOM     21  H2  UNL     1     -21.992  31.073   6.019  1.00  0.00     0.186 HD
BRANCH  20  22
HETATM   22  N3  UNL     1     -23.601  30.046   6.058  1.00  0.00    -0.278 N
ATOM     23  H3  UNL     1     -23.863  29.077   5.879  1.00  0.00     0.189 HD
BRANCH  22  24
HETATM   24  C8  UNL     1     -24.546  31.092   5.766  1.00  0.00     0.199 C
HETATM   25  N4  UNL     1     -25.949  30.940   5.931  1.00  0.00    -0.068 NA
HETATM   26  S2  UNL     1     -24.001  32.528   5.216  1.00  0.00    -0.043 SA
ENDBRANCH  22  24
ENDBRANCH  20  22
ENDBRANCH  12  18
ENDBRANCH   9  10
ENDBRANCH   8   9
ENDBRANCH   5   8
ENDBRANCH   1   4
BRANCH   1  27
HETATM   27  N9  UNL     1     -16.899  31.229  11.692  1.00  0.00    -0.315 N
ATOM     28  H92 UNL     1     -17.310  30.904  10.817  1.00  0.00     0.179 HD
ATOM     29  H91 UNL     1     -16.255  32.021  11.682  1.00  0.00     0.179 HD
ENDBRANCH   1  27
TORSDOF 8
ENDMDL