MODEL 5
REMARK VINA RESULT: -5.212207948      1.765      2.198
REMARK  8 active torsions:
REMARK  status: ('A' for Active; 'I' for Inactive)
REMARK    1  A    between atoms: S1_2  and  C2_3
REMARK    2  A    between atoms: C2_3  and  N1_5
REMARK    3  A    between atoms: N1_5  and  C4_7
REMARK    4  A    between atoms: C5_10  and  C6_11
REMARK    5  A    between atoms: C9_19  and  N6_20
REMARK    6  A    between atoms: N8_26  and  C11_27
REMARK    7  A    between atoms: C11_27  and  C13_29
REMARK    8  A    between atoms: C13_29  and  N9_30
ROOT
HETATM    1  C4  UNL     1     -20.346  30.883  10.053  1.00  0.00     0.683 A
HETATM    2  N2  UNL     1     -20.638  31.524   8.930  1.00  0.00    -0.185 N
ATOM      3  H2  UNL     1     -20.287  32.476   8.828  1.00  0.00     0.184 HD
HETATM    4  C5  UNL     1     -21.372  31.010   7.898  1.00  0.00     0.131 A
HETATM    5  C7  UNL     1     -21.835  29.734   8.046  1.00  0.00     0.083 A
HETATM    6  C8  UNL     1     -22.562  29.068   7.100  1.00  0.00     0.148 A
HETATM    7  N4  UNL     1     -22.902  29.617   5.846  1.00  0.00    -0.081 NA
HETATM    8  N5  UNL     1     -22.952  27.792   7.356  1.00  0.00    -0.178 N
ATOM      9  H5  UNL     1     -23.495  27.304   6.644  1.00  0.00     0.185 HD
HETATM   10  C9  UNL     1     -22.665  27.145   8.482  1.00  0.00     0.678 A
HETATM   11  N7  UNL     1     -21.951  27.800   9.403  1.00  0.00    -0.175 N
ATOM     12  H7  UNL     1     -21.720  27.319  10.272  1.00  0.00     0.186 HD
HETATM   13  C10 UNL     1     -21.514  29.086   9.234  1.00  0.00     0.155 A
HETATM   14  N8  UNL     1     -20.788  29.636  10.224  1.00  0.00    -0.161 N
ENDROOT
BRANCH  14  15
HETATM   15  C11 UNL     1     -20.518  28.860  11.419  1.00  0.00     0.131 C
HETATM   16  C12 UNL     1     -21.381  29.272  12.589  1.00  0.00     0.035 C
BRANCH  15  17
HETATM   17  C13 UNL     1     -19.074  28.916  11.835  1.00  0.00     0.255 C
BRANCH  17  18
HETATM   18  N9  UNL     1     -19.045  28.985  13.285  1.00  0.00    -0.077 N
ATOM     19  H93 UNL     1     -18.120  29.204  13.656  1.00  0.00     0.274 HD
ATOM     20  H92 UNL     1     -19.533  29.801  13.655  1.00  0.00     0.274 HD
ATOM     21  H91 UNL     1     -19.419  28.103  13.638  1.00  0.00     0.274 HD
ENDBRANCH  17  18
ENDBRANCH  15  17
ENDBRANCH  14  15
BRANCH   1  22
HETATM   22  N1  UNL     1     -19.646  31.441  10.979  1.00  0.00    -0.213 N
ATOM     23  H1  UNL     1     -18.724  31.050  11.168  1.00  0.00     0.179 HD
BRANCH  22  24
HETATM   24  C2  UNL     1     -20.054  32.562  11.760  1.00  0.00     0.157 C
HETATM   25  C3  UNL     1     -19.457  32.590  13.147  1.00  0.00     0.044 C
BRANCH  24  26
HETATM   26  S1  UNL     1     -21.857  32.745  11.857  1.00  0.00    -0.148 SA
HETATM   27  C1  UNL     1     -22.410  32.741  13.561  1.00  0.00     0.092 C
ENDBRANCH  24  26
ENDBRANCH  22  24
ENDBRANCH   1  22
BRANCH   4  28
HETATM   28  C6  UNL     1     -21.614  31.815   6.732  1.00  0.00     0.283 C
HETATM   29  N3  UNL     1     -20.688  31.812   5.625  1.00  0.00    -0.056 NA
HETATM   30  O1  UNL     1     -22.624  32.541   6.643  1.00  0.00    -0.269 OA
ENDBRANCH   4  28
BRANCH  10  31
HETATM   31  N6  UNL     1     -23.057  25.932   8.684  1.00  0.00    -0.234 N
ATOM     32  H62 UNL     1     -23.237  25.301   7.903  1.00  0.00     0.174 HD
ATOM     33  H61 UNL     1     -23.200  25.566   9.625  1.00  0.00     0.174 HD
ENDBRANCH  10  31
TORSDOF 8
ENDMDL