MODEL 3
REMARK VINA RESULT: -7.279770142      3.660      7.559
REMARK  8 active torsions:
REMARK  status: ('A' for Active; 'I' for Inactive)
REMARK    1  A    between atoms: C2_2  and  C3_3
REMARK    2  A    between atoms: C2_2  and  C10_21
REMARK    3  A    between atoms: C3_3  and  N1_4
REMARK    4  A    between atoms: C6_9  and  N3_10
REMARK    5  A    between atoms: C10_21  and  N6_22
REMARK    6  A    between atoms: C10_21  and  C11_26
REMARK    7  A    between atoms: C11_26  and  C12_27
REMARK    8  A    between atoms: C14_30  and  N7_31
ROOT
HETATM    1  C3  UNL     1     -21.184  32.120   8.122  1.00  0.00     0.139 C
ENDROOT
BRANCH   1   2
HETATM    2  C2  UNL     1     -22.395  32.899   7.736  1.00  0.00     0.031 C
HETATM    3  C1  UNL     1     -22.079  34.250   7.199  1.00  0.00     0.014 C
BRANCH   2   4
HETATM    4  C10 UNL     1     -23.226  32.013   6.856  1.00  0.00     0.194 C
BRANCH   4   5
HETATM    5  N6  UNL     1     -23.632  32.881   5.673  1.00  0.00    -0.074 N
ATOM      6  H63 UNL     1     -23.335  33.852   5.757  1.00  0.00     0.274 HD
ATOM      7  H62 UNL     1     -23.120  32.672   4.816  1.00  0.00     0.274 HD
ATOM      8  H61 UNL     1     -24.642  32.766   5.586  1.00  0.00     0.274 HD
ENDBRANCH   4   5
BRANCH   4   9
HETATM    9  C11 UNL     1     -22.574  30.869   6.190  1.00  0.00     0.090 C
BRANCH   9  10
HETATM   10  C12 UNL     1     -23.052  29.494   6.491  1.00  0.00     0.019 A
HETATM   11  C13 UNL     1     -24.027  28.921   5.700  1.00  0.00     0.078 A
HETATM   12  S1  UNL     1     -24.235  27.392   6.424  1.00  0.00    -0.064 SA
HETATM   13  C14 UNL     1     -23.093  27.551   7.675  1.00  0.00     0.142 A
HETATM   14  N8  UNL     1     -22.600  28.769   7.486  1.00  0.00    -0.340 N
ATOM     15  H8  UNL     1     -21.878  29.136   8.106  1.00  0.00     0.167 HD
BRANCH  13  16
HETATM   16  N7  UNL     1     -22.776  26.676   8.604  1.00  0.00    -0.380 N
ATOM     17  H72 UNL     1     -22.353  25.756   8.490  1.00  0.00     0.158 HD
ATOM     18  H71 UNL     1     -22.896  26.756   9.614  1.00  0.00     0.158 HD
ENDBRANCH  13  16
ENDBRANCH   9  10
ENDBRANCH   4   9
ENDBRANCH   2   4
ENDBRANCH   1   2
BRANCH   1  19
HETATM   19  N1  UNL     1     -21.060  31.696   9.467  1.00  0.00    -0.308 N
HETATM   20  C4  UNL     1     -21.344  32.451  10.527  1.00  0.00     0.186 A
HETATM   21  N2  UNL     1     -21.190  32.043  11.816  1.00  0.00    -0.347 N
HETATM   22  C5  UNL     1     -20.724  30.810  12.103  1.00  0.00     0.110 A
ATOM     23  H2  UNL     1     -21.430  32.679  12.577  1.00  0.00     0.167 HD
HETATM   24  C6  UNL     1     -20.569  30.395  13.415  1.00  0.00     0.129 A
HETATM   25  C8  UNL     1     -20.418  29.997  11.032  1.00  0.00     0.133 A
HETATM   26  N4  UNL     1     -20.101  29.153  13.622  1.00  0.00    -0.337 N
HETATM   27  C7  UNL     1     -19.805  28.369  12.561  1.00  0.00     0.182 A
ATOM     28  H4  UNL     1     -19.971  28.805  14.571  1.00  0.00     0.168 HD
HETATM   29  N5  UNL     1     -19.944  28.741  11.286  1.00  0.00    -0.346 N
ATOM     30  H5  UNL     1     -19.704  28.106  10.525  1.00  0.00     0.167 HD
HETATM   31  C9  UNL     1     -20.586  30.442   9.740  1.00  0.00     0.277 A
HETATM   32  O1  UNL     1     -20.287  29.650   8.802  1.00  0.00    -0.265 OA
BRANCH  24  33
HETATM   33  N3  UNL     1     -20.866  31.181  14.371  1.00  0.00    -0.384 N
ATOM     34  H32 UNL     1     -20.206  31.864  14.742  1.00  0.00     0.157 HD
ATOM     35  H31 UNL     1     -21.792  31.141  14.796  1.00  0.00     0.157 HD
ENDBRANCH  24  33
ENDBRANCH   1  19
TORSDOF 8
ENDMDL