MODEL 2
REMARK VINA RESULT: -6.429697431      3.685      7.706
REMARK  9 active torsions:
REMARK  status: ('A' for Active; 'I' for Inactive)
REMARK    1  A    between atoms: C2_2  and  O1_3
REMARK    2  A    between atoms: O1_3  and  C3_4
REMARK    3  A    between atoms: C3_4  and  O2_5
REMARK    4  A    between atoms: C3_4  and  C4_7
REMARK    5  A    between atoms: C6_12  and  C7_13
REMARK    6  A    between atoms: C7_13  and  C8_14
REMARK    7  A    between atoms: C10_18  and  N4_19
REMARK    8  A    between atoms: C11_24  and  N6_25
REMARK    9  A    between atoms: C14_32  and  O3_33
ROOT
HETATM    1  C4  UNL     1     -19.907  30.336  11.659  1.00  0.00     0.050 A
HETATM    2  C5  UNL     1     -19.647  29.534  10.528  1.00  0.00     0.122 A
HETATM    3  N1  UNL     1     -20.144  29.884   9.347  1.00  0.00    -0.303 N
ATOM      4  H1  UNL     1     -19.943  29.288   8.544  1.00  0.00     0.186 HD
HETATM    5  N2  UNL     1     -20.880  30.957   9.156  1.00  0.00    -0.240 N
HETATM    6  C6  UNL     1     -21.463  31.483   8.063  1.00  0.00     0.056 A
HETATM    7  C12 UNL     1     -22.117  32.651   8.470  1.00  0.00     0.117 A
HETATM    8  N7  UNL     1     -21.892  32.759   9.777  1.00  0.00    -0.347 N
ATOM      9  H7  UNL     1     -22.242  33.514  10.366  1.00  0.00     0.167 HD
HETATM   10  C13 UNL     1     -21.148  31.746  10.206  1.00  0.00     0.161 A
HETATM   11  C14 UNL     1     -20.668  31.459  11.494  1.00  0.00     0.126 A
ENDROOT
BRANCH   6  12
HETATM   12  C7  UNL     1     -21.470  30.954   6.674  1.00  0.00     0.104 C
BRANCH  12  13
HETATM   13  C8  UNL     1     -22.646  30.064   6.482  1.00  0.00     0.008 A
HETATM   14  C9  UNL     1     -22.572  28.762   7.022  1.00  0.00     0.117 A
HETATM   15  N3  UNL     1     -23.614  27.942   6.823  1.00  0.00    -0.202 N
HETATM   16  C10 UNL     1     -24.692  28.336   6.140  1.00  0.00     0.677 A
ATOM     17  H3  UNL     1     -23.583  26.997   7.203  1.00  0.00     0.183 HD
HETATM   18  N5  UNL     1     -24.762  29.586   5.622  1.00  0.00    -0.177 N
HETATM   19  C11 UNL     1     -23.750  30.457   5.785  1.00  0.00     0.122 A
ATOM     20  H5  UNL     1     -25.592  29.869   5.102  1.00  0.00     0.185 HD
BRANCH  16  21
HETATM   21  N4  UNL     1     -25.671  27.510   5.969  1.00  0.00    -0.234 N
ATOM     22  H42 UNL     1     -25.650  26.595   6.418  1.00  0.00     0.174 HD
ATOM     23  H41 UNL     1     -26.462  27.785   5.386  1.00  0.00     0.174 HD
ENDBRANCH  16  21
BRANCH  19  24
HETATM   24  N6  UNL     1     -23.858  31.661   5.291  1.00  0.00    -0.385 N
ATOM     25  H62 UNL     1     -23.416  32.441   5.776  1.00  0.00     0.157 HD
ATOM     26  H61 UNL     1     -24.361  31.841   4.422  1.00  0.00     0.157 HD
ENDBRANCH  19  24
ENDBRANCH  12  13
ENDBRANCH   6  12
BRANCH  11  27
HETATM   27  O3  UNL     1     -20.990  32.325  12.483  1.00  0.00    -0.351 OA
HETATM   28  C15 UNL     1     -20.281  33.496  12.863  1.00  0.00     0.210 C
ENDBRANCH  11  27
BRANCH   1  29
HETATM   29  C3  UNL     1     -19.405  29.915  12.964  1.00  0.00     0.295 C
BRANCH  29  30
HETATM   30  O1  UNL     1     -18.301  30.583  13.360  1.00  0.00    -0.357 OA
BRANCH  30  31
HETATM   31  C2  UNL     1     -17.075  30.134  13.039  1.00  0.00     0.167 C
HETATM   32  C1  UNL     1     -16.206  30.884  12.112  1.00  0.00     0.033 C
ENDBRANCH  30  31
ENDBRANCH  29  30
BRANCH  29  33
HETATM   33  O2  UNL     1     -20.382  30.134  13.977  1.00  0.00    -0.367 OA
ATOM     34  H2  UNL     1     -20.857  29.316  14.066  1.00  0.00     0.213 HD
ENDBRANCH  29  33
ENDBRANCH   1  29
TORSDOF 9
ENDMDL