MODEL 1
REMARK VINA RESULT: -7.105061170      0.000      0.000
REMARK  7 active torsions:
REMARK  status: ('A' for Active; 'I' for Inactive)
REMARK    1  A    between atoms: C2_2  and  C3_3
REMARK    2  A    between atoms: C3_3  and  N1_4
REMARK    3  A    between atoms: C9_14  and  N4_15
REMARK    4  A    between atoms: C10_20  and  N6_21
REMARK    5  A    between atoms: N7_24  and  C13_25
REMARK    6  A    between atoms: C13_25  and  C14_26
REMARK    7  A    between atoms: C14_26  and  O1_27
ROOT
HETATM    1  N1  UNL     1     -22.644  28.097   7.571  1.00  0.00    -0.316 N
HETATM    2  C4  UNL     1     -22.458  27.453   8.745  1.00  0.00     0.137 A
HETATM    3  N2  UNL     1     -22.758  26.370   9.466  1.00  0.00    -0.284 N
ATOM      4  H2  UNL     1     -23.368  25.615   9.151  1.00  0.00     0.188 HD
HETATM    5  N3  UNL     1     -22.159  26.410  10.641  1.00  0.00    -0.303 N
ATOM      6  H3  UNL     1     -22.240  25.692  11.360  1.00  0.00     0.186 HD
HETATM    7  C5  UNL     1     -21.415  27.547  10.756  1.00  0.00     0.037 A
HETATM    8  C6  UNL     1     -20.603  27.954  11.919  1.00  0.00     0.070 C
HETATM    9  C7  UNL     1     -21.604  28.205   9.559  1.00  0.00     0.051 A
HETATM   10  C8  UNL     1     -21.293  29.322   8.818  1.00  0.00     0.069 A
HETATM   11  C9  UNL     1     -20.507  30.392   9.100  1.00  0.00     0.130 A
HETATM   12  N5  UNL     1     -20.378  31.369   8.161  1.00  0.00    -0.175 N
ATOM     13  H5  UNL     1     -19.789  32.175   8.369  1.00  0.00     0.186 HD
HETATM   14  C10 UNL     1     -20.998  31.314   6.968  1.00  0.00     0.700 A
HETATM   15  N9  UNL     1     -21.777  30.235   6.710  1.00  0.00    -0.174 N
ATOM     16  H9  UNL     1     -22.256  30.175   5.811  1.00  0.00     0.186 HD
HETATM   17  C15 UNL     1     -21.938  29.242   7.602  1.00  0.00     0.140 A
ENDROOT
BRANCH  14  18
HETATM   18  N6  UNL     1     -20.858  32.338   5.990  1.00  0.00    -0.111 N
HETATM   19  C11 UNL     1     -21.893  32.739   5.083  1.00  0.00     0.181 C
HETATM   20  C12 UNL     1     -21.230  33.882   4.325  1.00  0.00     0.133 C
HETATM   21  N7  UNL     1     -19.843  33.688   4.573  1.00  0.00    -0.210 NA
HETATM   22  N8  UNL     1     -19.721  33.075   5.777  1.00  0.00    -0.031 NA
BRANCH  21  23
HETATM   23  C13 UNL     1     -19.089  33.189   3.478  1.00  0.00     0.137 C
BRANCH  23  24
HETATM   24  C14 UNL     1     -17.730  33.871   3.419  1.00  0.00     0.180 C
BRANCH  24  25
HETATM   25  O1  UNL     1     -16.949  33.532   4.540  1.00  0.00    -0.400 OA
ATOM     26  H1  UNL     1     -17.040  34.183   5.226  1.00  0.00     0.209 HD
ENDBRANCH  24  25
ENDBRANCH  23  24
ENDBRANCH  21  23
ENDBRANCH  14  18
BRANCH  11  27
HETATM   27  N4  UNL     1     -19.864  30.566  10.191  1.00  0.00    -0.384 N
ATOM     28  H42 UNL     1     -19.980  31.472  10.645  1.00  0.00     0.157 HD
ATOM     29  H41 UNL     1     -19.256  29.875  10.631  1.00  0.00     0.157 HD
ENDBRANCH  11  27
BRANCH   1  30
HETATM   30  C3  UNL     1     -23.438  27.692   6.436  1.00  0.00     0.132 C
BRANCH  30  31
HETATM   31  C2  UNL     1     -24.681  28.540   6.270  1.00  0.00     0.016 C
HETATM   32  C1  UNL     1     -25.656  27.902   5.297  1.00  0.00     0.006 C
ENDBRANCH  30  31
ENDBRANCH   1  30
TORSDOF 7
ENDMDL