MODEL 5
REMARK VINA RESULT: -7.045983768      1.257      4.189
REMARK  8 active torsions:
REMARK  status: ('A' for Active; 'I' for Inactive)
REMARK    1  A    between atoms: C2_2  and  N1_4
REMARK    2  A    between atoms: N1_4  and  C4_6
REMARK    3  A    between atoms: C5_9  and  N3_10
REMARK    4  A    between atoms: N5_20  and  C10_21
REMARK    5  A    between atoms: N6_23  and  C12_24
REMARK    6  A    between atoms: C12_24  and  C13_25
REMARK    7  A    between atoms: C13_25  and  C14_26
REMARK    8  A    between atoms: C14_26  and  N7_27
ROOT
HETATM    1  C4  UNL     1     -22.894  27.839   7.505  1.00  0.00     0.681 A
HETATM    2  N2  UNL     1     -22.891  26.963   8.517  1.00  0.00    -0.176 N
ATOM      3  H2  UNL     1     -23.465  26.124   8.438  1.00  0.00     0.186 HD
HETATM    4  C5  UNL     1     -22.151  27.144   9.651  1.00  0.00     0.131 A
HETATM    5  C6  UNL     1     -21.384  28.291   9.726  1.00  0.00     0.079 A
HETATM    6  C7  UNL     1     -20.600  28.574  10.825  1.00  0.00     0.044 A
HETATM    7  N4  UNL     1     -20.525  27.841  11.803  1.00  0.00    -0.398 N
ATOM      8  H41 UNL     1     -19.946  28.050  12.615  1.00  0.00     0.156 HD
ATOM      9  H42 UNL     1     -21.058  26.971  11.834  1.00  0.00     0.156 HD
HETATM   10  C8  UNL     1     -19.858  29.785  10.781  1.00  0.00     0.048 A
HETATM   11  C9  UNL     1     -19.927  30.616   9.702  1.00  0.00     0.103 A
HETATM   12  N5  UNL     1     -20.689  30.340   8.634  1.00  0.00    -0.290 N
HETATM   13  C15 UNL     1     -21.394  29.194   8.671  1.00  0.00     0.145 A
HETATM   14  N10 UNL     1     -22.148  28.968   7.561  1.00  0.00    -0.175 N
ATOM     15  H10 UNL     1     -22.151  29.634   6.788  1.00  0.00     0.186 HD
ENDROOT
BRANCH  12  16
HETATM   16  C10 UNL     1     -20.738  31.228   7.527  1.00  0.00     0.146 A
HETATM   17  C11 UNL     1     -19.914  31.355   6.430  1.00  0.00     0.162 A
HETATM   18  N6  UNL     1     -20.414  32.371   5.665  1.00  0.00    -0.285 N
HETATM   19  N8  UNL     1     -21.477  32.832   6.262  1.00  0.00    -0.239 N
HETATM   20  N9  UNL     1     -21.690  32.164   7.377  1.00  0.00    -0.269 N
ATOM     21  H8  UNL     1     -22.058  33.596   5.917  1.00  0.00     0.208 HD
ATOM     22  H9  UNL     1     -22.458  32.332   8.026  1.00  0.00     0.190 HD
BRANCH  18  23
HETATM   23  C12 UNL     1     -19.799  32.789   4.423  1.00  0.00     0.151 C
BRANCH  23  24
HETATM   24  C13 UNL     1     -18.554  33.580   4.641  1.00  0.00     0.049 C
BRANCH  24  25
HETATM   25  C14 UNL     1     -17.769  33.892   3.413  1.00  0.00     0.231 C
BRANCH  25  26
HETATM   26  N7  UNL     1     -17.360  35.270   3.404  1.00  0.00    -0.079 N
ATOM     27  H73 UNL     1     -17.721  35.765   2.589  1.00  0.00     0.274 HD
ATOM     28  H72 UNL     1     -17.830  35.808   4.132  1.00  0.00     0.274 HD
ATOM     29  H71 UNL     1     -16.346  35.347   3.473  1.00  0.00     0.274 HD
ENDBRANCH  25  26
ENDBRANCH  24  25
ENDBRANCH  23  24
ENDBRANCH  18  23
ENDBRANCH  12  16
BRANCH   4  30
HETATM   30  N3  UNL     1     -22.175  26.292  10.587  1.00  0.00    -0.384 N
ATOM     31  H32 UNL     1     -22.901  26.298  11.305  1.00  0.00     0.157 HD
ATOM     32  H31 UNL     1     -21.462  25.565  10.653  1.00  0.00     0.157 HD
ENDBRANCH   4  30
BRANCH   1  33
HETATM   33  N1  UNL     1     -23.586  27.662   6.452  1.00  0.00    -0.222 N
ATOM     34  H1  UNL     1     -23.154  27.062   5.749  1.00  0.00     0.178 HD
BRANCH  33  35
HETATM   35  C2  UNL     1     -24.866  28.171   6.103  1.00  0.00     0.091 C
HETATM   36  C1  UNL     1     -24.895  29.630   5.736  1.00  0.00     0.032 C
HETATM   37  C3  UNL     1     -25.586  27.372   5.033  1.00  0.00     0.032 C
ENDBRANCH  33  35
ENDBRANCH   1  33
TORSDOF 8
ENDMDL