MODEL 5
REMARK VINA RESULT: -7.175919461      1.724      2.553
REMARK  7 active torsions:
REMARK  status: ('A' for Active; 'I' for Inactive)
REMARK    1  A    between atoms: C5_7  and  S1_8
REMARK    2  A    between atoms: S1_8  and  O4_11
REMARK    3  A    between atoms: O4_11  and  C6_12
REMARK    4  A    between atoms: C7_13  and  C8_14
REMARK    5  A    between atoms: C8_14  and  N1_15
REMARK    6  A    between atoms: N1_15  and  C9_17
REMARK    7  A    between atoms: N5_32  and  O7_33
ROOT
HETATM    1  C6  UNL     1     -20.288  31.134  12.345  1.00  0.00     0.219 A
HETATM    2  C7  UNL     1     -20.285  30.056  11.409  1.00  0.00     0.085 A
HETATM    3  C14 UNL     1     -20.134  28.933  12.176  1.00  0.00     0.274 A
HETATM    4  O6  UNL     1     -20.093  27.756  11.744  1.00  0.00    -0.266 OA
HETATM    5  N4  UNL     1     -20.043  29.282  13.504  1.00  0.00    -0.237 N
ATOM      6  H4  UNL     1     -19.924  28.648  14.294  1.00  0.00     0.193 HD
HETATM    7  N5  UNL     1     -20.138  30.598  13.554  1.00  0.00    -0.135 N
ENDROOT
BRANCH   2   8
HETATM    8  C8  UNL     1     -20.516  30.347   9.997  1.00  0.00     0.169 C
BRANCH   8   9
HETATM    9  N1  UNL     1     -20.652  29.188   9.138  1.00  0.00    -0.379 N
ATOM     10  H1  UNL     1     -19.931  28.474   9.238  1.00  0.00     0.160 HD
BRANCH   9  11
HETATM   11  C9  UNL     1     -21.644  28.925   8.192  1.00  0.00     0.125 A
HETATM   12  C10 UNL     1     -21.824  29.885   7.175  1.00  0.00     0.121 A
HETATM   13  N2  UNL     1     -20.872  30.945   7.118  1.00  0.00    -0.096 NA
HETATM   14  C11 UNL     1     -22.794  29.768   6.235  1.00  0.00     0.198 A
HETATM   15  F1  UNL     1     -22.999  30.662   5.259  1.00  0.00    -0.199 F
HETATM   16  C12 UNL     1     -23.627  28.677   6.279  1.00  0.00     0.232 A
HETATM   17  F2  UNL     1     -24.617  28.503   5.329  1.00  0.00    -0.183 F
HETATM   18  N3  UNL     1     -23.464  27.758   7.239  1.00  0.00    -0.295 N
HETATM   19  C13 UNL     1     -22.502  27.869   8.170  1.00  0.00     0.276 A
ATOM     20  H3  UNL     1     -24.087  26.951   7.264  1.00  0.00     0.171 HD
HETATM   21  O5  UNL     1     -22.371  26.972   9.050  1.00  0.00    -0.266 OA
ENDBRANCH   9  11
ENDBRANCH   8   9
ENDBRANCH   2   8
BRANCH   1  22
HETATM   22  O4  UNL     1     -20.422  32.477  12.053  1.00  0.00    -0.206 OA
BRANCH  22  23
HETATM   23  S1  UNL     1     -21.855  33.297  12.576  1.00  0.00     0.308 S
HETATM   24  O2  UNL     1     -22.968  32.281  12.535  1.00  0.00    -0.193 OA
HETATM   25  O3  UNL     1     -21.558  33.766  13.953  1.00  0.00    -0.193 OA
BRANCH  23  26
HETATM   26  C5  UNL     1     -22.188  34.647  11.532  1.00  0.00     0.139 A
HETATM   27  C2  UNL     1     -22.375  34.662  10.183  1.00  0.00     0.074 A
HETATM   28  C1  UNL     1     -22.424  33.479   9.276  1.00  0.00     0.078 C
HETATM   29  O1  UNL     1     -22.515  35.916   9.803  1.00  0.00    -0.324 OA
HETATM   30  C3  UNL     1     -22.431  36.714  10.811  1.00  0.00     0.167 A
HETATM   31  C4  UNL     1     -22.218  35.943  11.972  1.00  0.00     0.082 A
HETATM   32 CL1  UNL     1     -22.039  36.672  13.543  1.00  0.00    -0.081 Cl
ENDBRANCH  23  26
ENDBRANCH  22  23
ENDBRANCH   1  22
BRANCH   7  33
HETATM   33  O7  UNL     1     -20.104  31.319  14.746  1.00  0.00    -0.266 OA
ATOM     34  H7  UNL     1     -19.545  32.070  14.911  1.00  0.00     0.247 HD
ENDBRANCH   7  33
TORSDOF 7
ENDMDL