MODEL 1
REMARK VINA RESULT: -7.356488195      0.000      0.000
REMARK  8 active torsions:
REMARK  status: ('A' for Active; 'I' for Inactive)
REMARK    1  A    between atoms: N1_2  and  C2_4
REMARK    2  A    between atoms: C3_7  and  C4_8
REMARK    3  A    between atoms: C4_8  and  C5_9
REMARK    4  A    between atoms: C5_9  and  N3_10
REMARK       I    between atoms: N3_10  and  C6_12
REMARK    5  A    between atoms: C6_12  and  C7_14
REMARK    6  A    between atoms: C11_21  and  O2_22
REMARK    7  A    between atoms: O2_22  and  C12_23
REMARK    8  A    between atoms: C13_28  and  N6_29
ROOT
HETATM    1  C7  UNL     1     -21.658  29.959   8.242  1.00  0.00     0.100 A
HETATM    2  S1  UNL     1     -22.029  31.463   7.534  1.00  0.00    -0.064 SA
HETATM    3  C8  UNL     1     -23.192  30.949   6.386  1.00  0.00     0.091 A
HETATM    4  N4  UNL     1     -23.859  31.753   5.499  1.00  0.00    -0.350 N
ATOM      5  H4  UNL     1     -23.518  32.712   5.433  1.00  0.00     0.166 HD
HETATM    6  C9  UNL     1     -24.903  31.453   4.703  1.00  0.00     0.058 C
HETATM    7  C10 UNL     1     -25.269  32.524   3.742  1.00  0.00     0.072 C
HETATM    8  C11 UNL     1     -25.639  30.282   4.695  1.00  0.00     0.171 C
HETATM    9  N5  UNL     1     -25.220  29.104   5.155  1.00  0.00    -0.321 N
ATOM     10  H5  UNL     1     -25.843  28.321   4.953  1.00  0.00     0.169 HD
HETATM   11  C13 UNL     1     -24.115  28.777   5.840  1.00  0.00     0.116 C
HETATM   12  C14 UNL     1     -23.247  29.597   6.604  1.00  0.00     0.067 A
HETATM   13  C15 UNL     1     -22.456  29.091   7.559  1.00  0.00     0.085 A
HETATM   14  N7  UNL     1     -22.410  27.674   7.897  1.00  0.00    -0.100 NA
ENDROOT
BRANCH   1  15
HETATM   15  C6  UNL     1     -20.709  29.706   9.319  1.00  0.00     0.260 C
HETATM   16  N3  UNL     1     -20.887  28.644  10.244  1.00  0.00    -0.356 N
ATOM     17  H3  UNL     1     -21.707  28.045  10.144  1.00  0.00     0.162 HD
HETATM   18  O1  UNL     1     -19.711  30.459   9.419  1.00  0.00    -0.267 OA
BRANCH  16  19
HETATM   19  C5  UNL     1     -19.975  28.375  11.306  1.00  0.00     0.130 C
BRANCH  19  20
HETATM   20  C4  UNL     1     -20.498  28.912  12.612  1.00  0.00     0.097 C
BRANCH  20  21
HETATM   21  C3  UNL     1     -19.706  30.090  13.090  1.00  0.00     0.101 A
HETATM   22  N2  UNL     1     -18.363  29.992  13.152  1.00  0.00    -0.180 N
HETATM   23  C2  UNL     1     -17.624  31.026  13.575  1.00  0.00     0.681 A
ATOM     24  H2  UNL     1     -17.906  29.124  12.875  1.00  0.00     0.185 HD
HETATM   25  N9  UNL     1     -18.202  32.181  13.947  1.00  0.00    -0.166 N
HETATM   26  C16 UNL     1     -19.550  32.255  13.877  1.00  0.00     0.195 A
ATOM     27  H9  UNL     1     -17.644  32.971  14.271  1.00  0.00     0.186 HD
HETATM   28  N8  UNL     1     -20.298  31.231  13.457  1.00  0.00    -0.321 N
HETATM   29 CL1  UNL     1     -20.287  33.780  14.371  1.00  0.00    -0.044 Cl
ATOM     30  H8  UNL     1     -21.313  31.319  13.416  1.00  0.00     0.169 HD
BRANCH  23  31
HETATM   31  N1  UNL     1     -16.344  30.884  13.616  1.00  0.00    -0.230 N
HETATM   32  C1  UNL     1     -15.728  29.590  13.847  1.00  0.00     0.165 C
ATOM     33  H1  UNL     1     -15.748  31.701  13.483  1.00  0.00     0.177 HD
ENDBRANCH  23  31
ENDBRANCH  20  21
ENDBRANCH  19  20
ENDBRANCH  16  19
ENDBRANCH   1  15
BRANCH  11  34
HETATM   34  N6  UNL     1     -23.783  27.524   5.806  1.00  0.00    -0.385 N
ATOM     35  H62 UNL     1     -22.870  27.338   5.390  1.00  0.00     0.157 HD
ATOM     36  H61 UNL     1     -24.466  26.875   6.196  1.00  0.00     0.157 HD
ENDBRANCH  11  34
BRANCH   8  37
HETATM   37  O2  UNL     1     -26.897  30.422   4.154  1.00  0.00    -0.272 OA
BRANCH  37  38
HETATM   38  C12 UNL     1     -27.561  29.410   3.430  1.00  0.00     0.506 C
HETATM   39  F1  UNL     1     -27.034  29.296   2.166  1.00  0.00    -0.184 F
HETATM   40  F2  UNL     1     -28.914  29.625   3.323  1.00  0.00    -0.184 F
ENDBRANCH  37  38
ENDBRANCH   8  37
TORSDOF 8
ENDMDL