MODEL 3
REMARK VINA RESULT: -6.088935593      4.262      7.933
REMARK  10 active torsions:
REMARK  status: ('A' for Active; 'I' for Inactive)
REMARK    1  A    between atoms: C3_4  and  S1_5
REMARK    2  A    between atoms: S1_5  and  S2_6
REMARK    3  A    between atoms: S2_6  and  C4_7
REMARK    4  A    between atoms: C6_9  and  O1_10
REMARK    5  A    between atoms: O1_10  and  C7_11
REMARK    6  A    between atoms: C7_11  and  C8_12
REMARK    7  A    between atoms: C9_16  and  N2_17
REMARK    8  A    between atoms: C10_21  and  C11_22
REMARK    9  A    between atoms: C11_22  and  O2_23
REMARK   10  A    between atoms: C12_28  and  N4_29
ROOT
HETATM    1  N1  UNL     1     -26.253  34.534  11.124  1.00  0.00    -0.191 NA
HETATM    2  C1  UNL     1     -25.996  34.540  12.255  1.00  0.00     0.106 C
HETATM    3  C2  UNL     1     -25.648  34.548  13.666  1.00  0.00     0.121 A
HETATM    4  C3  UNL     1     -24.544  33.872  14.138  1.00  0.00     0.121 A
HETATM    5  N3  UNL     1     -24.280  33.918  15.445  1.00  0.00    -0.184 N
ATOM      6  H3  UNL     1     -23.471  33.427  15.825  1.00  0.00     0.185 HD
HETATM    7  C12 UNL     1     -25.105  34.628  16.268  1.00  0.00     0.678 A
HETATM    8  N5  UNL     1     -26.180  35.284  15.794  1.00  0.00    -0.177 N
ATOM      9  H5  UNL     1     -26.770  35.804  16.443  1.00  0.00     0.185 HD
HETATM   10  C13 UNL     1     -26.495  35.271  14.486  1.00  0.00     0.155 A
HETATM   11  N6  UNL     1     -27.625  35.956  13.958  1.00  0.00    -0.080 NA
ENDROOT
BRANCH   4  12
HETATM   12  S1  UNL     1     -23.575  32.990  12.928  1.00  0.00    -0.035 SA
BRANCH  12  13
HETATM   13  S2  UNL     1     -21.780  32.477  13.935  1.00  0.00    -0.059 SA
BRANCH  13  14
HETATM   14  C4  UNL     1     -20.838  31.445  12.861  1.00  0.00     0.197 C
HETATM   15  C5  UNL     1     -21.045  31.604  11.390  1.00  0.00     0.078 C
HETATM   16  C6  UNL     1     -20.482  30.362  10.724  1.00  0.00     0.157 C
HETATM   17  C9  UNL     1     -19.367  29.723  11.446  1.00  0.00     0.243 C
HETATM   18  C10 UNL     1     -18.934  30.293  12.733  1.00  0.00     0.179 C
HETATM   19  O3  UNL     1     -19.437  31.548  13.051  1.00  0.00    -0.365 OA
BRANCH  16  20
HETATM   20  O1  UNL     1     -20.125  30.617   9.402  1.00  0.00    -0.379 OA
BRANCH  20  21
HETATM   21  C7  UNL     1     -20.960  29.956   8.499  1.00  0.00     0.227 C
BRANCH  21  22
HETATM   22  C8  UNL     1     -21.540  30.893   7.477  1.00  0.00     0.209 C
HETATM   23 CL1  UNL     1     -22.834  30.018   6.620  1.00  0.00    -0.081 Cl
HETATM   24 CL2  UNL     1     -22.133  32.396   8.202  1.00  0.00    -0.081 Cl
HETATM   25 CL3  UNL     1     -20.257  31.236   6.282  1.00  0.00    -0.081 Cl
ENDBRANCH  21  22
ENDBRANCH  20  21
ENDBRANCH  16  20
BRANCH  17  26
HETATM   26  N2  UNL     1     -19.662  28.295  11.673  1.00  0.00    -0.070 N
ATOM     27  H23 UNL     1     -19.548  28.032  12.652  1.00  0.00     0.274 HD
ATOM     28  H22 UNL     1     -20.657  28.091  11.579  1.00  0.00     0.274 HD
ATOM     29  H21 UNL     1     -19.094  27.717  11.054  1.00  0.00     0.274 HD
ENDBRANCH  17  26
BRANCH  18  30
HETATM   30  C11 UNL     1     -17.407  30.350  12.847  1.00  0.00     0.198 C
BRANCH  30  31
HETATM   31  O2  UNL     1     -16.966  29.629  13.951  1.00  0.00    -0.398 OA
ATOM     32  H2  UNL     1     -16.295  29.005  13.701  1.00  0.00     0.209 HD
ENDBRANCH  30  31
ENDBRANCH  18  30
ENDBRANCH  13  14
ENDBRANCH  12  13
ENDBRANCH   4  12
BRANCH   7  33
HETATM   33  N4  UNL     1     -24.871  34.688  17.536  1.00  0.00    -0.234 N
ATOM     34  H42 UNL     1     -24.167  34.059  17.922  1.00  0.00     0.174 HD
ATOM     35  H41 UNL     1     -25.380  35.346  18.126  1.00  0.00     0.174 HD
ENDBRANCH   7  33
TORSDOF 10
ENDMDL