MODEL 5
REMARK VINA RESULT: -6.257378316      4.772      8.290
REMARK  10 active torsions:
REMARK  status: ('A' for Active; 'I' for Inactive)
REMARK    1  A    between atoms: O1_2  and  N1_3
REMARK    2  A    between atoms: N1_3  and  C2_4
REMARK    3  A    between atoms: C2_4  and  C3_5
REMARK    4  A    between atoms: C4_6  and  N2_7
REMARK    5  A    between atoms: N3_10  and  C7_11
REMARK    6  A    between atoms: C10_18  and  N6_19
REMARK    7  A    between atoms: N8_25  and  C12_26
REMARK    8  A    between atoms: C12_26  and  C13_27
REMARK    9  A    between atoms: C13_27  and  C14_28
REMARK   10  A    between atoms: C19_39  and  N11_40
ROOT
HETATM    1  N2  UNL     1     -24.084  35.397  15.036  1.00  0.00    -0.363 N
HETATM    2  C5  UNL     1     -23.688  33.981  15.297  1.00  0.00     0.145 C
HETATM    3  C6  UNL     1     -23.722  33.357  13.906  1.00  0.00     0.161 C
HETATM    4  N3  UNL     1     -22.638  33.985  13.138  1.00  0.00    -0.214 N
HETATM    5  C16 UNL     1     -22.104  35.204  13.670  1.00  0.00     0.161 C
HETATM    6  C17 UNL     1     -23.236  36.111  14.178  1.00  0.00     0.145 C
ENDROOT
BRANCH   4   7
HETATM    7  C7  UNL     1     -22.276  33.314  11.950  1.00  0.00     0.684 A
HETATM    8  N4  UNL     1     -22.726  33.811  10.753  1.00  0.00    -0.186 N
HETATM    9  C8  UNL     1     -22.306  33.051   9.732  1.00  0.00     0.110 A
ATOM     10  H4  UNL     1     -23.303  34.645  10.653  1.00  0.00     0.184 HD
HETATM   11  C9  UNL     1     -22.484  33.104   8.347  1.00  0.00     0.140 A
HETATM   12  C11 UNL     1     -21.578  32.059  10.289  1.00  0.00     0.167 A
HETATM   13  N5  UNL     1     -21.912  32.142   7.601  1.00  0.00    -0.200 N
HETATM   14  C10 UNL     1     -21.198  31.168   8.176  1.00  0.00     0.677 A
ATOM     15  H5  UNL     1     -22.023  32.155   6.588  1.00  0.00     0.183 HD
HETATM   16  N7  UNL     1     -21.019  31.108   9.513  1.00  0.00    -0.174 N
ATOM     17  H7  UNL     1     -20.469  30.357   9.929  1.00  0.00     0.186 HD
HETATM   18  N8  UNL     1     -21.581  32.250  11.647  1.00  0.00    -0.165 N
BRANCH  14  19
HETATM   19  N6  UNL     1     -20.727  30.242   7.416  1.00  0.00    -0.234 N
ATOM     20  H62 UNL     1     -21.328  29.785   6.731  1.00  0.00     0.174 HD
ATOM     21  H61 UNL     1     -19.735  30.022   7.497  1.00  0.00     0.174 HD
ENDBRANCH  14  19
BRANCH  18  22
HETATM   22  C12 UNL     1     -20.884  31.361  12.538  1.00  0.00     0.155 C
BRANCH  22  23
HETATM   23  C13 UNL     1     -19.495  31.757  12.855  1.00  0.00     0.099 C
BRANCH  23  24
HETATM   24  C14 UNL     1     -18.439  30.801  12.315  1.00  0.00     0.241 C
HETATM   25  C15 UNL     1     -17.110  31.274  12.969  1.00  0.00     0.090 C
HETATM   26  F1  UNL     1     -18.310  30.844  10.973  1.00  0.00    -0.207 F
HETATM   27  F2  UNL     1     -18.744  29.547  12.808  1.00  0.00    -0.207 F
ENDBRANCH  23  24
ENDBRANCH  22  23
ENDBRANCH  18  22
ENDBRANCH   4   7
BRANCH   1  28
HETATM   28  C4  UNL     1     -25.310  35.712  15.619  1.00  0.00     0.120 A
HETATM   29  C3  UNL     1     -26.487  35.701  14.904  1.00  0.00     0.083 A
HETATM   30  C19 UNL     1     -27.700  36.090  15.488  1.00  0.00     0.116 A
HETATM   31  N10 UNL     1     -27.639  36.473  16.815  1.00  0.00    -0.338 N
HETATM   32  C18 UNL     1     -26.510  36.487  17.525  1.00  0.00     0.183 A
ATOM     33  H10 UNL     1     -28.503  36.760  17.275  1.00  0.00     0.168 HD
HETATM   34  N9  UNL     1     -25.369  36.115  16.935  1.00  0.00    -0.338 N
ATOM     35  H9  UNL     1     -24.508  36.130  17.482  1.00  0.00     0.168 HD
BRANCH  29  36
HETATM   36  C2  UNL     1     -26.450  35.273  13.529  1.00  0.00     0.237 C
BRANCH  36  37
HETATM   37  N1  UNL     1     -27.095  34.481  12.925  1.00  0.00    -0.294 NA
BRANCH  37  38
HETATM   38  O1  UNL     1     -27.841  33.685  12.243  1.00  0.00    -0.215 OA
HETATM   39  C1  UNL     1     -27.976  33.766  10.785  1.00  0.00     0.255 C
ENDBRANCH  37  38
ENDBRANCH  36  37
ENDBRANCH  29  36
BRANCH  30  40
HETATM   40  N11 UNL     1     -28.802  36.156  14.936  1.00  0.00    -0.385 N
ATOM     41 2H11 UNL     1     -29.624  36.104  15.537  1.00  0.00     0.157 HD
ATOM     42 1H11 UNL     1     -28.983  36.286  13.941  1.00  0.00     0.157 HD
ENDBRANCH  30  40
ENDBRANCH   1  28
TORSDOF 10
ENDMDL