MODEL 2
REMARK VINA RESULT: -8.554771784      3.705      5.092
REMARK  9 active torsions:
REMARK  status: ('A' for Active; 'I' for Inactive)
REMARK    1  A    between atoms: N5_14  and  C7_15
REMARK    2  A    between atoms: C7_15  and  C8_16
REMARK    3  A    between atoms: C8_16  and  C9_17
REMARK    4  A    between atoms: C9_17  and  C10_18
REMARK    5  A    between atoms: C14_28  and  N8_29
REMARK    6  A    between atoms: N8_29  and  N9_31
REMARK    7  A    between atoms: N9_31  and  C15_33
REMARK    8  A    between atoms: C15_33  and  C16_34
REMARK    9  A    between atoms: C18_40  and  O2_41
ROOT
HETATM    1  N1  UNL     1     -22.766  27.657   7.189  1.00  0.00    -0.191 NA
HETATM    2  C1  UNL     1     -22.179  28.123   8.066  1.00  0.00     0.105 C
HETATM    3  C2  UNL     1     -21.445  28.725   9.143  1.00  0.00     0.115 A
HETATM    4  C3  UNL     1     -20.925  29.998   8.960  1.00  0.00     0.141 A
HETATM    5  N2  UNL     1     -21.104  30.708   7.740  1.00  0.00    -0.081 NA
HETATM    6  N3  UNL     1     -20.236  30.570   9.963  1.00  0.00    -0.328 N
ATOM      7  H3  UNL     1     -19.859  31.506   9.819  1.00  0.00     0.168 HD
HETATM    8  C4  UNL     1     -20.016  29.961  11.166  1.00  0.00     0.142 A
HETATM    9  C5  UNL     1     -20.552  28.686  11.317  1.00  0.00     0.108 A
HETATM   10  C6  UNL     1     -20.200  28.308  12.608  1.00  0.00     0.276 A
HETATM   11  O1  UNL     1     -20.515  27.193  13.115  1.00  0.00    -0.266 OA
HETATM   12  N4  UNL     1     -19.504  29.311  13.159  1.00  0.00    -0.262 N
ATOM     13  H4  UNL     1     -19.122  29.301  14.105  1.00  0.00     0.190 HD
HETATM   14  N5  UNL     1     -19.380  30.332  12.295  1.00  0.00    -0.273 N
HETATM   15  C14 UNL     1     -21.270  28.038  10.327  1.00  0.00     0.091 A
ENDROOT
BRANCH  15  16
HETATM   16  N8  UNL     1     -21.712  26.885  10.564  1.00  0.00    -0.298 N
ATOM     17  H8  UNL     1     -21.189  26.140  10.103  1.00  0.00     0.187 HD
BRANCH  16  18
HETATM   18  N9  UNL     1     -22.750  26.441  11.317  1.00  0.00    -0.309 N
ATOM     19  H9  UNL     1     -23.251  27.084  11.930  1.00  0.00     0.186 HD
BRANCH  18  20
HETATM   20  C15 UNL     1     -23.098  25.202  11.252  1.00  0.00     0.141 C
BRANCH  20  21
HETATM   21  C16 UNL     1     -23.135  24.361  12.419  1.00  0.00     0.101 A
HETATM   22  N10 UNL     1     -24.196  24.293  13.269  1.00  0.00    -0.348 N
HETATM   23  C17 UNL     1     -23.864  23.419  14.215  1.00  0.00     0.183 A
ATOM     24  H10 UNL     1     -25.071  24.810  13.195  1.00  0.00     0.167 HD
HETATM   25  N11 UNL     1     -22.619  22.924  13.994  1.00  0.00    -0.331 N
HETATM   26  C18 UNL     1     -22.151  23.500  12.880  1.00  0.00     0.169 A
ATOM     27  H11 UNL     1     -22.130  22.240  14.571  1.00  0.00     0.168 HD
BRANCH  26  28
HETATM   28  O2  UNL     1     -20.930  23.280  12.304  1.00  0.00    -0.344 OA
ATOM     29  H2  UNL     1     -20.772  22.909  11.443  1.00  0.00     0.219 HD
ENDBRANCH  26  28
ENDBRANCH  20  21
ENDBRANCH  18  20
ENDBRANCH  16  18
ENDBRANCH  15  16
BRANCH  14  30
HETATM   30  C7  UNL     1     -18.672  31.567  12.530  1.00  0.00     0.151 C
BRANCH  30  31
HETATM   31  C8  UNL     1     -17.316  31.357  13.078  1.00  0.00     0.028 C
BRANCH  31  32
HETATM   32  C9  UNL     1     -16.348  30.933  12.007  1.00  0.00     0.060 C
BRANCH  32  33
HETATM   33  C10 UNL     1     -15.080  30.593  12.688  1.00  0.00     0.029 A
HETATM   34  C11 UNL     1     -13.933  31.294  12.442  1.00  0.00     0.073 A
HETATM   35  C12 UNL     1     -12.734  30.980  13.078  1.00  0.00     0.175 A
HETATM   36  F1  UNL     1     -11.580  31.641  12.870  1.00  0.00    -0.201 F
HETATM   37  C13 UNL     1     -12.761  29.929  13.966  1.00  0.00     0.241 A
HETATM   38  F2  UNL     1     -11.609  29.572  14.624  1.00  0.00    -0.181 F
HETATM   39  N6  UNL     1     -13.905  29.262  14.183  1.00  0.00    -0.273 N
HETATM   40  N7  UNL     1     -15.051  29.579  13.560  1.00  0.00    -0.303 N
ATOM     41  H6  UNL     1     -13.903  28.485  14.845  1.00  0.00     0.189 HD
ATOM     42  H7  UNL     1     -15.900  29.048  13.752  1.00  0.00     0.186 HD
ENDBRANCH  32  33
ENDBRANCH  31  32
ENDBRANCH  30  31
ENDBRANCH  14  30
TORSDOF 9
ENDMDL