MODEL 2
REMARK VINA RESULT: -5.831187980      1.594      1.760
REMARK  10 active torsions:
REMARK  status: ('A' for Active; 'I' for Inactive)
REMARK    1  A    between atoms: C2_2  and  C5_5
REMARK    2  A    between atoms: C6_8  and  C7_9
REMARK    3  A    between atoms: C7_9  and  N2_10
REMARK    4  A    between atoms: N5_18  and  C10_19
REMARK    5  A    between atoms: C10_19  and  C11_20
REMARK    6  A    between atoms: C12_23  and  C13_24
REMARK    7  A    between atoms: C13_24  and  O1_25
REMARK    8  A    between atoms: C13_24  and  N6_27
REMARK    9  A    between atoms: N6_27  and  C14_29
REMARK   10  A    between atoms: C15_32  and  N8_33
ROOT
HETATM    1  C14 UNL     1     -23.836  29.789   5.748  1.00  0.00     0.143 A
HETATM    2  N7  UNL     1     -24.866  29.151   5.157  1.00  0.00    -0.175 N
ATOM      3  H7  UNL     1     -25.421  29.646   4.458  1.00  0.00     0.186 HD
HETATM    4  C15 UNL     1     -25.186  27.864   5.468  1.00  0.00     0.678 A
HETATM    5  N9  UNL     1     -24.504  27.149   6.373  1.00  0.00    -0.177 N
ATOM      6  H9  UNL     1     -24.766  26.186   6.585  1.00  0.00     0.185 HD
HETATM    7  C16 UNL     1     -23.473  27.731   6.990  1.00  0.00     0.156 A
HETATM    8  N10 UNL     1     -22.723  26.986   7.968  1.00  0.00    -0.080 NA
HETATM    9  C17 UNL     1     -23.136  29.023   6.691  1.00  0.00     0.130 A
HETATM   10  C18 UNL     1     -22.024  29.616   7.372  1.00  0.00     0.107 C
HETATM   11  N11 UNL     1     -21.127  30.089   7.937  1.00  0.00    -0.191 NA
ENDROOT
BRANCH   1  12
HETATM   12  N6  UNL     1     -23.488  30.990   5.499  1.00  0.00    -0.343 N
ATOM     13  H6  UNL     1     -22.545  31.295   5.744  1.00  0.00     0.164 HD
BRANCH  12  14
HETATM   14  C13 UNL     1     -24.386  31.927   4.884  1.00  0.00     0.272 C
BRANCH  14  15
HETATM   15  C12 UNL     1     -23.844  32.737   3.808  1.00  0.00     0.085 A
HETATM   16  C5  UNL     1     -24.604  33.264   2.775  1.00  0.00     0.045 A
HETATM   17  N1  UNL     1     -23.757  33.963   1.999  1.00  0.00    -0.345 N
HETATM   18  C6  UNL     1     -22.487  33.897   2.505  1.00  0.00     0.104 A
ATOM     19  H1  UNL     1     -24.024  34.469   1.155  1.00  0.00     0.167 HD
HETATM   20  N5  UNL     1     -22.565  33.128   3.629  1.00  0.00    -0.328 N
BRANCH  16  21
HETATM   21  C2  UNL     1     -26.067  33.119   2.562  1.00  0.00    -0.007 C
HETATM   22  C1  UNL     1     -26.342  33.529   1.099  1.00  0.00     0.021 C
HETATM   23  C3  UNL     1     -26.874  34.122   3.380  1.00  0.00     0.021 C
HETATM   24  C4  UNL     1     -26.557  31.720   2.711  1.00  0.00     0.021 C
ENDBRANCH  16  21
BRANCH  18  25
HETATM   25  C7  UNL     1     -21.380  34.602   1.869  1.00  0.00     0.228 C
BRANCH  25  26
HETATM   26  N2  UNL     1     -20.681  33.615   1.028  1.00  0.00    -0.259 N
HETATM   27  N3  UNL     1     -21.174  33.134  -0.099  1.00  0.00    -0.291 N
HETATM   28  C8  UNL     1     -20.301  32.258  -0.632  1.00  0.00     0.199 A
ATOM     29  H3  UNL     1     -22.075  33.388  -0.503  1.00  0.00     0.188 HD
HETATM   30  N4  UNL     1     -19.247  32.207   0.198  1.00  0.00    -0.326 N
HETATM   31  C9  UNL     1     -19.483  33.054   1.236  1.00  0.00     0.197 A
ATOM     32  H4  UNL     1     -18.413  31.633   0.072  1.00  0.00     0.169 HD
HETATM   33 CL1  UNL     1     -18.432  33.370   2.600  1.00  0.00    -0.043 Cl
ENDBRANCH  25  26
ENDBRANCH  18  25
BRANCH  20  34
HETATM   34  C10 UNL     1     -21.450  32.808   4.442  1.00  0.00     0.201 C
BRANCH  34  35
HETATM   35  C11 UNL     1     -21.155  33.780   5.547  1.00  0.00     0.371 C
HETATM   36  F1  UNL     1     -19.778  33.969   5.649  1.00  0.00    -0.213 F
HETATM   37  F2  UNL     1     -21.584  33.285   6.747  1.00  0.00    -0.213 F
ENDBRANCH  34  35
ENDBRANCH  20  34
ENDBRANCH  14  15
BRANCH  14  38
HETATM   38  O1  UNL     1     -24.973  32.676   5.934  1.00  0.00    -0.371 OA
ATOM     39  H1  UNL     1     -24.443  33.404   6.235  1.00  0.00     0.212 HD
ENDBRANCH  14  38
ENDBRANCH  12  14
ENDBRANCH   1  12
BRANCH   4  40
HETATM   40  N8  UNL     1     -26.183  27.259   4.891  1.00  0.00    -0.234 N
ATOM     41  H82 UNL     1     -27.050  27.211   5.426  1.00  0.00     0.174 HD
ATOM     42  H81 UNL     1     -26.090  26.860   3.957  1.00  0.00     0.174 HD
ENDBRANCH   4  40
TORSDOF 10
ENDMDL