MODEL 4
REMARK VINA RESULT: -7.209754928      5.861      8.553
REMARK  10 active torsions:
REMARK  status: ('A' for Active; 'I' for Inactive)
REMARK    1  A    between atoms: C2_2  and  C4_4
REMARK    2  A    between atoms: C4_4  and  O1_5
REMARK    3  A    between atoms: C4_4  and  C5_7
REMARK    4  A    between atoms: C4_4  and  C15_33
REMARK    5  A    between atoms: C5_7  and  O2_8
REMARK    6  A    between atoms: O2_8  and  C6_9
REMARK    7  A    between atoms: C6_9  and  C7_11
REMARK    8  A    between atoms: C11_18  and  C12_19
REMARK    9  A    between atoms: C12_19  and  O4_20
REMARK   10  A    between atoms: C14_29  and  N4_30
ROOT
HETATM    1  C7  UNL     1     -22.319  33.276  12.456  1.00  0.00     0.084 A
HETATM    2  C8  UNL     1     -23.668  33.448  12.620  1.00  0.00     0.040 A
HETATM    3  C9  UNL     1     -24.170  34.022  13.759  1.00  0.00     0.048 A
HETATM    4  C10 UNL     1     -25.535  34.223  13.908  1.00  0.00     0.119 A
HETATM    5 CL1  UNL     1     -26.604  33.681  12.627  1.00  0.00    -0.063 Cl
HETATM    6  N1  UNL     1     -25.968  34.816  15.024  1.00  0.00    -0.331 N
ATOM      7  H1  UNL     1     -26.969  34.970  15.147  1.00  0.00     0.168 HD
HETATM    8  C11 UNL     1     -25.130  35.213  15.980  1.00  0.00     0.151 A
HETATM    9  N2  UNL     1     -23.819  35.012  15.828  1.00  0.00    -0.327 N
ATOM     10  H2  UNL     1     -23.187  35.318  16.569  1.00  0.00     0.169 HD
HETATM   11  C13 UNL     1     -23.297  34.423  14.736  1.00  0.00     0.121 A
HETATM   12  N3  UNL     1     -21.978  34.259  14.586  1.00  0.00    -0.327 N
ATOM     13  H3  UNL     1     -21.344  34.563  15.325  1.00  0.00     0.169 HD
HETATM   14  C14 UNL     1     -21.472  33.689  13.453  1.00  0.00     0.116 A
ENDROOT
BRANCH   1  15
HETATM   15  C6  UNL     1     -21.850  32.727  11.203  1.00  0.00     0.297 C
HETATM   16  O3  UNL     1     -22.200  33.363  10.140  1.00  0.00    -0.259 OA
BRANCH  15  17
HETATM   17  O2  UNL     1     -21.068  31.596  11.029  1.00  0.00    -0.314 OA
BRANCH  17  18
HETATM   18  C5  UNL     1     -21.535  30.350  11.536  1.00  0.00     0.225 C
BRANCH  18  19
HETATM   19  C4  UNL     1     -20.493  29.308  11.671  1.00  0.00     0.143 C
BRANCH  19  20
HETATM   20  C2  UNL     1     -19.824  29.339  13.027  1.00  0.00     0.022 C
HETATM   21  C1  UNL     1     -18.463  30.040  12.910  1.00  0.00     0.013 C
HETATM   22  C3  UNL     1     -20.606  30.142  14.043  1.00  0.00     0.013 C
ENDBRANCH  19  20
BRANCH  19  23
HETATM   23  O1  UNL     1     -19.532  29.454  10.696  1.00  0.00    -0.379 OA
ATOM     24  H1  UNL     1     -19.943  29.368   9.844  1.00  0.00     0.211 HD
ENDBRANCH  19  23
BRANCH  19  25
HETATM   25  C15 UNL     1     -21.065  27.929  11.451  1.00  0.00     0.150 A
HETATM   26  N5  UNL     1     -20.630  26.842  12.091  1.00  0.00    -0.270 N
HETATM   27  N6  UNL     1     -21.323  25.813  11.692  1.00  0.00    -0.227 N
ATOM     28  H5  UNL     1     -19.877  26.820  12.779  1.00  0.00     0.190 HD
HETATM   29  N7  UNL     1     -22.202  26.210  10.805  1.00  0.00    -0.227 N
ATOM     30  H6  UNL     1     -21.202  24.854  12.017  1.00  0.00     0.210 HD
HETATM   31  N8  UNL     1     -22.043  27.515  10.655  1.00  0.00    -0.270 N
ATOM     32  H7  UNL     1     -22.881  25.622  10.321  1.00  0.00     0.210 HD
ATOM     33  H8  UNL     1     -22.586  28.108  10.027  1.00  0.00     0.190 HD
ENDBRANCH  19  25
ENDBRANCH  18  19
ENDBRANCH  17  18
ENDBRANCH  15  17
ENDBRANCH   1  15
BRANCH  14  34
HETATM   34  N4  UNL     1     -20.217  33.538  13.335  1.00  0.00    -0.385 N
ATOM     35  H42 UNL     1     -19.687  33.124  14.101  1.00  0.00     0.157 HD
ATOM     36  H41 UNL     1     -19.740  33.822  12.478  1.00  0.00     0.157 HD
ENDBRANCH  14  34
BRANCH   8  37
HETATM   37  C12 UNL     1     -25.691  35.895  17.205  1.00  0.00     0.274 C
HETATM   38 CL2  UNL     1     -27.231  36.653  16.786  1.00  0.00    -0.062 Cl
HETATM   39 CL3  UNL     1     -24.565  37.139  17.791  1.00  0.00    -0.062 Cl
BRANCH  37  40
HETATM   40  O4  UNL     1     -25.831  34.933  18.198  1.00  0.00    -0.356 OA
ATOM     41  H4  UNL     1     -25.301  35.203  18.939  1.00  0.00     0.213 HD
ENDBRANCH  37  40
ENDBRANCH   8  37
TORSDOF 10
ENDMDL