MODEL 1
REMARK VINA RESULT: -7.715639023      0.000      0.000
REMARK  11 active torsions:
REMARK  status: ('A' for Active; 'I' for Inactive)
REMARK    1  A    between atoms: C2_2  and  O1_3
REMARK    2  A    between atoms: O1_3  and  C3_4
REMARK    3  A    between atoms: C3_4  and  C4_6
REMARK    4  A    between atoms: C5_9  and  N2_10
REMARK    5  A    between atoms: N2_10  and  O3_12
REMARK    6  A    between atoms: O3_12  and  C6_13
REMARK    7  A    between atoms: C6_13  and  O4_14
REMARK    8  A    between atoms: C13_26  and  N5_27
REMARK    9  A    between atoms: N5_27  and  C14_29
REMARK   10  A    between atoms: C14_29  and  C15_30
REMARK   11  A    between atoms: C15_30  and  C16_31
ROOT
HETATM    1  C4  UNL     1     -21.344  32.143   5.704  1.00  0.00     0.185 C
HETATM    2  N1  UNL     1     -22.589  32.415   5.221  1.00  0.00    -0.321 N
ATOM      3  H1  UNL     1     -22.677  33.331   4.779  1.00  0.00     0.169 HD
HETATM    4  C5  UNL     1     -23.724  31.691   5.222  1.00  0.00     0.141 C
HETATM    5  C7  UNL     1     -23.814  30.384   5.679  1.00  0.00     0.066 A
HETATM    6  C8  UNL     1     -24.921  29.725   5.184  1.00  0.00     0.158 A
HETATM    7  F1  UNL     1     -25.759  30.395   4.353  1.00  0.00    -0.203 F
HETATM    8  C9  UNL     1     -25.150  28.405   5.544  1.00  0.00     0.126 A
HETATM    9  N3  UNL     1     -26.303  27.753   5.015  1.00  0.00    -0.096 NA
HETATM   10  C10 UNL     1     -24.297  27.734   6.385  1.00  0.00     0.168 A
HETATM   11  F2  UNL     1     -24.485  26.448   6.759  1.00  0.00    -0.202 F
HETATM   12  C11 UNL     1     -23.180  28.431   6.871  1.00  0.00     0.102 A
HETATM   13  N4  UNL     1     -22.281  27.751   7.728  1.00  0.00    -0.098 NA
HETATM   14  C12 UNL     1     -22.932  29.720   6.538  1.00  0.00     0.052 A
HETATM   15  C13 UNL     1     -21.779  30.223   7.142  1.00  0.00     0.116 C
HETATM   16  N6  UNL     1     -21.003  31.161   6.560  1.00  0.00    -0.323 N
ATOM     17  H6  UNL     1     -20.013  31.120   6.805  1.00  0.00     0.169 HD
ENDROOT
BRANCH  15  18
HETATM   18  N5  UNL     1     -21.504  29.750   8.287  1.00  0.00    -0.375 N
ATOM     19  H5  UNL     1     -22.091  28.974   8.594  1.00  0.00     0.161 HD
BRANCH  18  20
HETATM   20  C14 UNL     1     -20.487  30.153   9.206  1.00  0.00     0.126 C
BRANCH  20  21
HETATM   21  C15 UNL     1     -20.446  29.398  10.503  1.00  0.00     0.061 C
BRANCH  21  22
HETATM   22  C16 UNL     1     -20.282  30.256  11.698  1.00  0.00    -0.018 A
HETATM   23  C17 UNL     1     -21.343  30.408  12.607  1.00  0.00     0.013 A
HETATM   24  C18 UNL     1     -21.255  31.207  13.723  1.00  0.00     0.043 A
HETATM   25  C19 UNL     1     -20.097  31.902  13.994  1.00  0.00     0.119 A
HETATM   26  F3  UNL     1     -19.990  32.701  15.097  1.00  0.00    -0.206 F
HETATM   27  C20 UNL     1     -19.040  31.777  13.126  1.00  0.00     0.085 A
HETATM   28  C21 UNL     1     -19.147  30.970  12.011  1.00  0.00     0.125 A
HETATM   29  F4  UNL     1     -18.054  30.881  11.214  1.00  0.00    -0.205 F
ENDBRANCH  21  22
ENDBRANCH  20  21
ENDBRANCH  18  20
ENDBRANCH  15  18
BRANCH   1  30
HETATM   30  C3  UNL     1     -20.274  33.014   5.236  1.00  0.00     0.327 C
HETATM   31  O2  UNL     1     -20.260  34.196   5.662  1.00  0.00    -0.256 OA
BRANCH  30  32
HETATM   32  O1  UNL     1     -19.293  32.622   4.368  1.00  0.00    -0.316 OA
BRANCH  32  33
HETATM   33  C2  UNL     1     -19.109  33.336   3.156  1.00  0.00     0.175 C
HETATM   34  C1  UNL     1     -20.172  32.901   2.195  1.00  0.00     0.034 C
ENDBRANCH  32  33
ENDBRANCH  30  32
ENDBRANCH   1  30
BRANCH   4  35
HETATM   35  N2  UNL     1     -24.815  32.197   4.785  1.00  0.00    -0.247 N
ATOM     36  H2  UNL     1     -25.283  31.744   4.001  1.00  0.00     0.196 HD
BRANCH  35  37
HETATM   37  O3  UNL     1     -25.374  33.311   5.320  1.00  0.00    -0.253 OA
BRANCH  37  38
HETATM   38  C6  UNL     1     -26.221  33.350   6.439  1.00  0.00     0.366 C
BRANCH  38  39
HETATM   39  O4  UNL     1     -27.091  32.261   6.475  1.00  0.00    -0.375 OA
ATOM     40  H4  UNL     1     -27.405  32.084   7.354  1.00  0.00     0.212 HD
ENDBRANCH  38  39
ENDBRANCH  37  38
ENDBRANCH  35  37
ENDBRANCH   4  35
TORSDOF 11
ENDMDL