MODEL 5
REMARK VINA RESULT: -5.408980160      6.954      8.950
REMARK  10 active torsions:
REMARK  status: ('A' for Active; 'I' for Inactive)
REMARK    1  A    between atoms: C2_2  and  N1_3
REMARK    2  A    between atoms: C2_2  and  C7_19
REMARK    3  A    between atoms: C5_8  and  N2_9
REMARK    4  A    between atoms: N2_9  and  O1_11
REMARK    5  A    between atoms: C7_19  and  O2_20
REMARK    6  A    between atoms: C7_19  and  C8_22
REMARK    7  A    between atoms: C7_19  and  C11_30
REMARK    8  A    between atoms: C8_22  and  N5_23
REMARK    9  A    between atoms: C11_30  and  O3_31
REMARK   10  A    between atoms: C11_30  and  C12_33
ROOT
HETATM    1  C7  UNL     1     -22.049  33.787  12.315  1.00  0.00     0.163 C
ENDROOT
BRANCH   1   2
HETATM    2  C2  UNL     1     -22.362  34.667  13.474  1.00  0.00     0.052 C
HETATM    3  C1  UNL     1     -21.517  35.901  13.663  1.00  0.00     0.068 C
BRANCH   2   4
HETATM    4  N1  UNL     1     -23.733  34.908  13.857  1.00  0.00    -0.140 N
HETATM    5  C3  UNL     1     -24.416  35.986  13.424  1.00  0.00     0.152 A
HETATM    6 CL1  UNL     1     -23.753  37.127  12.268  1.00  0.00    -0.061 Cl
HETATM    7  C4  UNL     1     -25.696  36.255  13.841  1.00  0.00     0.119 A
HETATM    8 CL2  UNL     1     -26.578  37.681  13.289  1.00  0.00    -0.077 Cl
HETATM    9  C5  UNL     1     -26.339  35.433  14.719  1.00  0.00     0.165 A
HETATM   10  N3  UNL     1     -25.676  34.372  15.146  1.00  0.00    -0.173 N
HETATM   11  C6  UNL     1     -24.396  34.097  14.733  1.00  0.00     0.685 A
ATOM     12  H3  UNL     1     -26.130  33.737  15.802  1.00  0.00     0.186 HD
HETATM   13  N4  UNL     1     -23.935  33.038  15.253  1.00  0.00    -0.234 N
ATOM     14  H42 UNL     1     -22.983  32.834  14.947  1.00  0.00     0.174 HD
ATOM     15  H41 UNL     1     -24.430  32.432  15.908  1.00  0.00     0.174 HD
BRANCH   9  16
HETATM   16  N2  UNL     1     -27.562  35.667  15.130  1.00  0.00    -0.251 N
ATOM     17  H2  UNL     1     -27.758  36.381  15.831  1.00  0.00     0.196 HD
BRANCH  16  18
HETATM   18  O1  UNL     1     -28.564  34.915  14.580  1.00  0.00    -0.288 OA
ATOM     19  H1  UNL     1     -29.358  35.368  14.321  1.00  0.00     0.244 HD
ENDBRANCH  16  18
ENDBRANCH   9  16
ENDBRANCH   2   4
ENDBRANCH   1   2
BRANCH   1  20
HETATM   20  O2  UNL     1     -21.263  34.528  11.423  1.00  0.00    -0.375 OA
ATOM     21  H2  UNL     1     -20.598  33.945  11.076  1.00  0.00     0.211 HD
ENDBRANCH   1  20
BRANCH   1  22
HETATM   22  C8  UNL     1     -23.349  33.787  11.409  1.00  0.00     0.201 C
BRANCH  22  23
HETATM   23  N5  UNL     1     -23.213  34.042  10.026  1.00  0.00    -0.283 N
HETATM   24  C9  UNL     1     -23.709  34.948   9.177  1.00  0.00     0.201 A
HETATM   25  N6  UNL     1     -23.255  34.743   7.918  1.00  0.00    -0.346 N
HETATM   26  C10 UNL     1     -22.451  33.676   7.970  1.00  0.00     0.198 A
ATOM     27  H6  UNL     1     -23.480  35.296   7.092  1.00  0.00     0.167 HD
HETATM   28  N7  UNL     1     -22.423  33.260   9.213  1.00  0.00    -0.293 N
ATOM     29  H7  UNL     1     -21.883  32.457   9.537  1.00  0.00     0.188 HD
ENDBRANCH  22  23
ENDBRANCH   1  22
BRANCH   1  30
HETATM   30  C11 UNL     1     -21.597  32.426  12.482  1.00  0.00     0.098 C
BRANCH  30  31
HETATM   31  O3  UNL     1     -22.469  31.419  12.820  1.00  0.00    -0.360 OA
ATOM     32  H3  UNL     1     -22.577  31.140  13.722  1.00  0.00     0.217 HD
ENDBRANCH  30  31
BRANCH  30  33
HETATM   33  C12 UNL     1     -20.253  31.933  12.710  1.00  0.00     0.034 A
HETATM   34  C13 UNL     1     -19.410  32.270  13.734  1.00  0.00     0.103 A
HETATM   35  N8  UNL     1     -18.095  31.896  13.822  1.00  0.00    -0.374 N
HETATM   36  C14 UNL     1     -17.523  31.157  12.891  1.00  0.00     0.089 A
ATOM     37  H8  UNL     1     -17.545  32.195  14.627  1.00  0.00     0.164 HD
HETATM   38  C15 UNL     1     -18.289  30.769  11.815  1.00  0.00     0.042 A
HETATM   39  C16 UNL     1     -19.592  31.143  11.738  1.00  0.00     0.049 A
HETATM   40 CL3  UNL     1     -20.452  30.543  10.312  1.00  0.00    -0.083 Cl
ENDBRANCH  30  33
ENDBRANCH   1  30
TORSDOF 10
ENDMDL