MODEL 3
REMARK VINA RESULT: -7.970738995      4.408      7.104
REMARK  9 active torsions:
REMARK  status: ('A' for Active; 'I' for Inactive)
REMARK    1  A    between atoms: C2_5  and  N3_6
REMARK    2  A    between atoms: C6_16  and  N6_17
REMARK    3  A    between atoms: N6_17  and  C7_19
REMARK    4  A    between atoms: C7_19  and  C8_20
REMARK    5  A    between atoms: C8_20  and  C9_21
REMARK    6  A    between atoms: C11_23  and  O1_24
REMARK    7  A    between atoms: C12_26  and  C13_27
REMARK    8  A    between atoms: C13_27  and  O2_28
REMARK    9  A    between atoms: C16_35  and  C17_36
ROOT
HETATM    1  N3  UNL     1     -15.914  30.600  12.853  1.00  0.00    -0.270 N
HETATM    2  C3  UNL     1     -15.936  29.569  13.709  1.00  0.00     0.272 A
HETATM    3  F1  UNL     1     -17.060  29.053  14.300  1.00  0.00    -0.165 F
HETATM    4  N4  UNL     1     -14.679  29.115  13.903  1.00  0.00    -0.312 N
ATOM      5  H4  UNL     1     -14.414  28.338  14.509  1.00  0.00     0.170 HD
HETATM    6  C4  UNL     1     -13.847  29.846  13.178  1.00  0.00     0.120 A
HETATM    7  C5  UNL     1     -12.495  29.883  12.952  1.00  0.00     0.149 A
HETATM    8 CL1  UNL     1     -11.493  28.711  13.776  1.00  0.00    -0.061 Cl
HETATM    9  N5  UNL     1     -11.988  30.805  12.114  1.00  0.00    -0.179 N
ATOM     10  H5  UNL     1     -10.980  30.812  11.962  1.00  0.00     0.185 HD
HETATM   11  C6  UNL     1     -12.729  31.714  11.469  1.00  0.00     0.680 A
HETATM   12  N7  UNL     1     -14.070  31.693  11.681  1.00  0.00    -0.174 N
ATOM     13  H7  UNL     1     -14.667  32.371  11.206  1.00  0.00     0.186 HD
HETATM   14  C14 UNL     1     -14.616  30.794  12.504  1.00  0.00     0.158 A
ENDROOT
BRANCH  11  15
HETATM   15  N6  UNL     1     -12.235  32.614  10.658  1.00  0.00    -0.226 N
ATOM     16  H6  UNL     1     -12.694  32.734   9.755  1.00  0.00     0.177 HD
BRANCH  15  17
HETATM   17  C7  UNL     1     -11.104  33.442  10.935  1.00  0.00     0.140 C
BRANCH  17  18
HETATM   18  C8  UNL     1     -11.421  34.812  11.447  1.00  0.00     0.052 C
BRANCH  18  19
HETATM   19  C9  UNL     1     -11.533  35.874  10.390  1.00  0.00     0.126 C
HETATM   20  C10 UNL     1     -12.537  36.913  10.764  1.00  0.00     0.066 C
HETATM   21  C11 UNL     1     -12.920  37.447   9.388  1.00  0.00     0.151 C
HETATM   22  C12 UNL     1     -12.524  36.331   8.447  1.00  0.00     0.174 C
HETATM   23  O3  UNL     1     -11.977  35.304   9.198  1.00  0.00    -0.376 OA
BRANCH  21  24
HETATM   24  O1  UNL     1     -14.281  37.742   9.314  1.00  0.00    -0.393 OA
ATOM     25  H1  UNL     1     -14.450  38.469   8.726  1.00  0.00     0.210 HD
ENDBRANCH  21  24
BRANCH  22  26
HETATM   26  C13 UNL     1     -13.780  35.851   7.742  1.00  0.00     0.198 C
BRANCH  26  27
HETATM   27  O2  UNL     1     -13.907  36.481   6.485  1.00  0.00    -0.398 OA
ATOM     28  H2  UNL     1     -13.230  36.176   5.893  1.00  0.00     0.209 HD
ENDBRANCH  26  27
ENDBRANCH  22  26
ENDBRANCH  18  19
ENDBRANCH  17  18
ENDBRANCH  15  17
ENDBRANCH  11  15
BRANCH   1  29
HETATM   29  C2  UNL     1     -17.058  31.371  12.380  1.00  0.00     0.202 A
HETATM   30  N2  UNL     1     -17.827  31.904  13.466  1.00  0.00    -0.342 N
HETATM   31  C1  UNL     1     -19.091  31.779  13.617  1.00  0.00     0.190 A
ATOM     32  H2  UNL     1     -17.323  32.429  14.181  1.00  0.00     0.164 HD
HETATM   33  N1  UNL     1     -19.759  32.367  14.765  1.00  0.00    -0.063 NA
HETATM   34  N8  UNL     1     -19.832  31.058  12.652  1.00  0.00    -0.337 N
HETATM   35  C16 UNL     1     -19.299  30.529  11.642  1.00  0.00     0.006 A
ATOM     36  H8  UNL     1     -20.839  30.963  12.780  1.00  0.00     0.168 HD
HETATM   37  C15 UNL     1     -17.861  30.610  11.370  1.00  0.00     0.101 A
BRANCH  35  38
HETATM   38  C17 UNL     1     -20.161  29.777  10.661  1.00  0.00     0.167 C
HETATM   39 CL2  UNL     1     -21.128  28.544  11.487  1.00  0.00    -0.124 Cl
ENDBRANCH  35  38
ENDBRANCH   1  29
TORSDOF 9
ENDMDL