MODEL 1
REMARK VINA RESULT: -6.882509428      0.000      0.000
REMARK  8 active torsions:
REMARK  status: ('A' for Active; 'I' for Inactive)
REMARK    1  A    between atoms: C2_2  and  C3_3
REMARK    2  A    between atoms: C2_2  and  N1_6
REMARK    3  A    between atoms: C3_3  and  O1_4
REMARK    4  A    between atoms: C5_11  and  N3_12
REMARK    5  A    between atoms: C6_13  and  C7_14
REMARK    6  A    between atoms: C7_14  and  N4_15
REMARK    7  A    between atoms: C16_29  and  N8_30
REMARK    8  A    between atoms: N8_30  and  C17_32
ROOT
HETATM    1  N1  UNL     1      35.470   0.461 -12.237  1.00  0.00    -0.219 N
ATOM      2  H1  UNL     1      36.318   1.012 -12.101  1.00  0.00     0.178 HD
HETATM    3  C4  UNL     1      35.676  -0.747 -11.959  1.00  0.00     0.707 A
HETATM    4  N2  UNL     1      36.936  -1.112 -11.537  1.00  0.00    -0.021 N
ATOM      5  H2  UNL     1      37.650  -0.388 -11.461  1.00  0.00     0.203 HD
HETATM    6  C5  UNL     1      37.274  -2.385 -11.216  1.00  0.00     0.719 A
HETATM    7  N7  UNL     1      36.351  -3.299 -11.315  1.00  0.00    -0.020 N
ATOM      8  H7  UNL     1      36.595  -4.260 -11.075  1.00  0.00     0.203 HD
HETATM    9  C16 UNL     1      35.044  -3.035 -11.732  1.00  0.00     0.712 A
HETATM   10  N11 UNL     1      34.772  -1.740 -12.041  1.00  0.00    -0.021 N
ATOM     11  H11 UNL     1      33.829  -1.507 -12.352  1.00  0.00     0.203 HD
ENDROOT
BRANCH   6  12
HETATM   12  N3  UNL     1      38.623  -2.636 -10.880  1.00  0.00    -0.131 N
HETATM   13  C6  UNL     1      39.625  -3.039 -11.660  1.00  0.00     0.089 A
HETATM   14  C10 UNL     1      40.733  -3.319 -10.891  1.00  0.00     0.082 A
HETATM   15  N5  UNL     1      42.024  -3.784 -11.281  1.00  0.00    -0.100 NA
HETATM   16  C11 UNL     1      40.320  -3.045  -9.586  1.00  0.00     0.013 A
HETATM   17  C12 UNL     1      39.024  -2.632  -9.584  1.00  0.00     0.133 A
HETATM   18  C15 UNL     1      41.075  -3.039  -8.327  1.00  0.00     0.046 C
HETATM   19  N6  UNL     1      38.414  -2.345  -8.332  1.00  0.00    -0.375 N
HETATM   20  C13 UNL     1      38.910  -2.861  -7.077  1.00  0.00     0.121 C
ATOM     21  H6  UNL     1      37.587  -1.747  -8.320  1.00  0.00     0.161 HD
HETATM   22  C14 UNL     1      40.274  -3.488  -7.172  1.00  0.00     0.024 C
BRANCH  13  23
HETATM   23  C7  UNL     1      39.638  -3.291 -13.146  1.00  0.00     0.331 C
BRANCH  23  24
HETATM   24  N4  UNL     1      40.261  -2.065 -13.773  1.00  0.00     0.085 N
HETATM   25  C8  UNL     1      39.290  -1.351 -14.572  1.00  0.00     0.309 C
HETATM   26  C9  UNL     1      41.144  -2.686 -14.841  1.00  0.00     0.309 C
ENDBRANCH  23  24
ENDBRANCH  13  23
ENDBRANCH   6  12
BRANCH   9  27
HETATM   27  N8  UNL     1      34.231  -3.940 -11.802  1.00  0.00    -0.188 N
ATOM     28  H8  UNL     1      33.353  -3.429 -11.892  1.00  0.00     0.184 HD
BRANCH  27  29
HETATM   29  C17 UNL     1      33.821  -5.204 -11.830  1.00  0.00     0.083 A
HETATM   30  C18 UNL     1      34.268  -6.299 -11.066  1.00  0.00     0.138 A
HETATM   31  N9  UNL     1      33.567  -7.368 -11.401  1.00  0.00    -0.308 N
HETATM   32  N10 UNL     1      32.672  -7.071 -12.344  1.00  0.00    -0.306 N
ATOM     33  H9  UNL     1      33.693  -8.294 -10.994  1.00  0.00     0.186 HD
HETATM   34  C19 UNL     1      31.745  -8.063 -12.904  1.00  0.00     0.177 C
HETATM   35  C20 UNL     1      32.800  -5.794 -12.615  1.00  0.00     0.141 A
ENDBRANCH  27  29
ENDBRANCH   9  27
BRANCH   1  36
HETATM   36  C2  UNL     1      34.431   1.265 -12.673  1.00  0.00     0.118 C
HETATM   37  C1  UNL     1      34.734   2.767 -12.493  1.00  0.00     0.035 C
BRANCH  36  38
HETATM   38  C3  UNL     1      34.031   1.140 -14.142  1.00  0.00     0.189 C
BRANCH  38  39
HETATM   39  O1  UNL     1      33.077   2.113 -14.500  1.00  0.00    -0.399 OA
ATOM     40  H1  UNL     1      32.256   1.714 -14.762  1.00  0.00     0.209 HD
ENDBRANCH  38  39
ENDBRANCH  36  38
ENDBRANCH   1  36
TORSDOF 8
ENDMDL