MODEL 3
REMARK VINA RESULT: -5.727161248      3.738      5.139
REMARK  11 active torsions:
REMARK  status: ('A' for Active; 'I' for Inactive)
REMARK    1  A    between atoms: C2_2  and  C3_3
REMARK    2  A    between atoms: C3_3  and  O1_4
REMARK    3  A    between atoms: C7_9  and  N1_10
REMARK    4  A    between atoms: C8_14  and  O2_15
REMARK    5  A    between atoms: O2_15  and  C9_16
REMARK    6  A    between atoms: C10_17  and  N2_18
REMARK    7  A    between atoms: C12_23  and  N3_24
REMARK    8  A    between atoms: C13_28  and  O3_29
REMARK    9  A    between atoms: O3_29  and  C14_30
REMARK   10  A    between atoms: C17_33  and  O4_34
REMARK   11  A    between atoms: C19_38  and  O6_39
ROOT
HETATM    1  C9  UNL     1      41.770  -2.539 -14.112  1.00  0.00     0.183 C
HETATM    2  C10 UNL     1      41.907  -3.663 -13.111  1.00  0.00     0.217 C
HETATM    3  C11 UNL     1      41.656  -3.113 -11.721  1.00  0.00     0.071 C
HETATM    4  C12 UNL     1      40.795  -1.911 -11.658  1.00  0.00     0.217 C
HETATM    5  C13 UNL     1      39.781  -1.798 -12.747  1.00  0.00     0.184 C
HETATM    6  C19 UNL     1      40.303  -2.195 -14.109  1.00  0.00     0.180 C
ENDROOT
BRANCH   1   7
HETATM    7  O2  UNL     1      42.166  -2.766 -15.372  1.00  0.00    -0.371 OA
BRANCH   7   8
HETATM    8  C8  UNL     1      43.504  -3.055 -15.629  1.00  0.00     0.186 C
HETATM    9  C3  UNL     1      43.500  -4.243 -16.515  1.00  0.00     0.085 C
HETATM   10  C4  UNL     1      44.717  -4.581 -17.280  1.00  0.00     0.040 C
HETATM   11  C5  UNL     1      45.776  -3.541 -17.306  1.00  0.00     0.005 C
HETATM   12  C6  UNL     1      45.229  -2.144 -17.229  1.00  0.00     0.035 C
HETATM   13  C7  UNL     1      44.277  -1.904 -16.136  1.00  0.00     0.215 C
BRANCH   9  14
HETATM   14  C2  UNL     1      42.238  -4.260 -17.349  1.00  0.00     0.036 C
HETATM   15  C1  UNL     1      42.412  -4.629 -18.776  1.00  0.00     0.008 C
ENDBRANCH   9  14
BRANCH   9  16
HETATM   16  O1  UNL     1      43.263  -5.345 -15.594  1.00  0.00    -0.387 OA
ATOM     17  H1  UNL     1      43.122  -6.071 -16.191  1.00  0.00     0.210 HD
ENDBRANCH   9  16
BRANCH  13  18
HETATM   18  N1  UNL     1      45.056  -1.254 -15.068  1.00  0.00    -0.072 N
ATOM     19  H13 UNL     1      45.779  -0.623 -15.414  1.00  0.00     0.274 HD
ATOM     20  H12 UNL     1      44.528  -0.556 -14.544  1.00  0.00     0.274 HD
ATOM     21  H11 UNL     1      45.417  -2.013 -14.491  1.00  0.00     0.274 HD
ENDBRANCH  13  18
ENDBRANCH   7   8
ENDBRANCH   1   7
BRANCH   2  22
HETATM   22  N2  UNL     1      40.902  -4.657 -13.433  1.00  0.00    -0.072 N
ATOM     23  H23 UNL     1      40.859  -4.871 -14.429  1.00  0.00     0.274 HD
ATOM     24  H22 UNL     1      41.149  -5.591 -13.107  1.00  0.00     0.274 HD
ATOM     25  H21 UNL     1      40.013  -4.326 -13.058  1.00  0.00     0.274 HD
ENDBRANCH   2  22
BRANCH   6  26
HETATM   26  O6  UNL     1      39.946  -1.295 -15.088  1.00  0.00    -0.390 OA
ATOM     27  H6  UNL     1      39.021  -1.078 -15.086  1.00  0.00     0.210 HD
ENDBRANCH   6  26
BRANCH   5  28
HETATM   28  O3  UNL     1      38.685  -2.563 -12.397  1.00  0.00    -0.363 OA
BRANCH  28  29
HETATM   29  C14 UNL     1      37.582  -1.870 -11.989  1.00  0.00     0.215 C
HETATM   30  C15 UNL     1      36.545  -1.906 -13.088  1.00  0.00     0.077 C
HETATM   31  C16 UNL     1      35.670  -3.078 -13.058  1.00  0.00     0.041 C
HETATM   32  C17 UNL     1      35.114  -3.615 -11.987  1.00  0.00     0.188 C
HETATM   33  O5  UNL     1      35.328  -3.081 -10.729  1.00  0.00    -0.253 OA
HETATM   34  S1  UNL     1      36.904  -2.413 -10.407  1.00  0.00     0.030 SA
BRANCH  32  35
HETATM   35  O4  UNL     1      34.287  -4.744 -12.073  1.00  0.00    -0.335 OA
HETATM   36  C18 UNL     1      34.406  -5.800 -11.110  1.00  0.00     0.212 C
ENDBRANCH  32  35
ENDBRANCH  28  29
ENDBRANCH   5  28
BRANCH   4  37
HETATM   37  N3  UNL     1      41.558  -0.665 -11.474  1.00  0.00    -0.072 N
ATOM     38  H33 UNL     1      41.637  -0.155 -12.354  1.00  0.00     0.274 HD
ATOM     39  H32 UNL     1      41.021   0.014 -10.936  1.00  0.00     0.274 HD
ATOM     40  H31 UNL     1      42.476  -0.815 -11.056  1.00  0.00     0.274 HD
ENDBRANCH   4  37
TORSDOF 11
ENDMDL