MODEL 4
REMARK VINA RESULT: -8.633767219      4.039      5.770
REMARK  8 active torsions:
REMARK  status: ('A' for Active; 'I' for Inactive)
REMARK    1  A    between atoms: C2_2  and  C3_3
REMARK    2  A    between atoms: C3_3  and  N1_4
REMARK    3  A    between atoms: N1_4  and  C4_6
REMARK    4  A    between atoms: C5_9  and  S1_10
REMARK    5  A    between atoms: S1_10  and  C6_11
REMARK    6  A    between atoms: C6_11  and  C7_12
REMARK    7  A    between atoms: C11_28  and  N9_29
REMARK    8  A    between atoms: N9_29  and  C12_31
ROOT
HETATM    1  C7  UNL     1      41.117  -3.123 -13.547  1.00  0.00     0.109 A
HETATM    2  N3  UNL     1      41.141  -4.250 -12.809  1.00  0.00    -0.322 N
ATOM      3  H3  UNL     1      40.720  -4.246 -11.879  1.00  0.00     0.169 HD
HETATM    4  C8  UNL     1      41.713  -5.394 -13.273  1.00  0.00     0.204 A
HETATM    5  C9  UNL     1      41.726  -6.583 -12.464  1.00  0.00     0.137 C
HETATM    6  N4  UNL     1      41.729  -7.554 -11.813  1.00  0.00    -0.188 NA
HETATM    7  N5  UNL     1      42.273  -5.405 -14.504  1.00  0.00    -0.167 N
ATOM      8  H5  UNL     1      42.705  -6.257 -14.861  1.00  0.00     0.186 HD
HETATM    9  C10 UNL     1      42.259  -4.304 -15.249  1.00  0.00     0.679 A
HETATM   10  N6  UNL     1      42.808  -4.342 -16.437  1.00  0.00    -0.234 N
ATOM     11  H61 UNL     1      42.797  -3.497 -17.008  1.00  0.00     0.174 HD
ATOM     12  H62 UNL     1      43.239  -5.194 -16.795  1.00  0.00     0.174 HD
HETATM   13  N7  UNL     1      41.693  -3.184 -14.779  1.00  0.00    -0.180 N
ATOM     14  H7  UNL     1      41.693  -2.349 -15.364  1.00  0.00     0.185 HD
ENDROOT
BRANCH   1  15
HETATM   15  C6  UNL     1      40.490  -1.903 -13.015  1.00  0.00     0.159 C
BRANCH  15  16
HETATM   16  S1  UNL     1      39.212  -1.261 -14.150  1.00  0.00    -0.085 SA
BRANCH  16  17
HETATM   17  C5  UNL     1      37.647  -1.307 -13.271  1.00  0.00     0.174 A
HETATM   18  N2  UNL     1      37.504  -1.951 -12.099  1.00  0.00    -0.169 N
HETATM   19  C4  UNL     1      36.310  -1.966 -11.462  1.00  0.00     0.694 A
ATOM     20  H2  UNL     1      38.303  -2.432 -11.685  1.00  0.00     0.186 HD
HETATM   21  N10 UNL     1      35.280  -1.309 -12.054  1.00  0.00    -0.022 N
HETATM   22  C11 UNL     1      35.397  -0.660 -13.220  1.00  0.00     0.699 A
ATOM     23  H10 UNL     1      34.373  -1.309 -11.588  1.00  0.00     0.203 HD
HETATM   24  N8  UNL     1      36.593  -0.661 -13.832  1.00  0.00    -0.169 N
ATOM     25  H8  UNL     1      36.709  -0.174 -14.721  1.00  0.00     0.186 HD
BRANCH  19  26
HETATM   26  N1  UNL     1      36.162  -2.581 -10.338  1.00  0.00    -0.226 N
ATOM     27  H1  UNL     1      35.294  -3.075 -10.130  1.00  0.00     0.177 HD
BRANCH  26  28
HETATM   28  C3  UNL     1      37.227  -2.561  -9.388  1.00  0.00     0.137 C
BRANCH  28  29
HETATM   29  C2  UNL     1      36.810  -3.047  -8.021  1.00  0.00     0.016 C
HETATM   30  C1  UNL     1      37.368  -2.222  -6.910  1.00  0.00     0.006 C
ENDBRANCH  28  29
ENDBRANCH  26  28
ENDBRANCH  19  26
BRANCH  22  31
HETATM   31  N9  UNL     1      34.402  -0.033 -13.781  1.00  0.00    -0.191 N
ATOM     32  H9  UNL     1      33.811  -0.519 -14.456  1.00  0.00     0.184 HD
BRANCH  31  33
HETATM   33  C12 UNL     1      34.133   1.341 -13.453  1.00  0.00     0.052 A
HETATM   34  C13 UNL     1      33.369   2.090 -14.311  1.00  0.00     0.033 A
HETATM   35  C14 UNL     1      33.077   3.408 -14.052  1.00  0.00     0.042 A
HETATM   36  C15 UNL     1      33.559   4.003 -12.903  1.00  0.00     0.105 A
HETATM   37  C16 UNL     1      34.334   3.236 -12.037  1.00  0.00     0.107 A
HETATM   38  O2  UNL     1      33.448   5.284 -12.362  1.00  0.00    -0.323 OA
HETATM   39  C17 UNL     1      34.617   1.919 -12.310  1.00  0.00     0.069 A
HETATM   40  O1  UNL     1      34.672   4.084 -10.987  1.00  0.00    -0.323 OA
HETATM   41  C18 UNL     1      33.768   5.150 -10.981  1.00  0.00     0.352 C
ENDBRANCH  31  33
ENDBRANCH  22  31
ENDBRANCH  16  17
ENDBRANCH  15  16
ENDBRANCH   1  15
TORSDOF 8
ENDMDL