MODEL 3
REMARK VINA RESULT: -7.493540683      4.689      8.262
REMARK  9 active torsions:
REMARK  status: ('A' for Active; 'I' for Inactive)
REMARK    1  A    between atoms: N1_1  and  C1_4
REMARK    2  A    between atoms: C2_7  and  N3_8
REMARK    3  A    between atoms: N3_8  and  C3_10
REMARK    4  A    between atoms: C3_10  and  C4_11
REMARK    5  A    between atoms: C4_11  and  O1_12
REMARK    6  A    between atoms: C6_20  and  S2_21
REMARK    7  A    between atoms: S2_21  and  C7_22
REMARK    8  A    between atoms: C7_22  and  C8_23
REMARK    9  A    between atoms: N8_30  and  C11_32
ROOT
HETATM    1  C1  UNL     1      40.191  -1.621  -7.245  1.00  0.00     0.130 A
HETATM    2  N2  UNL     1      40.388  -1.175  -6.003  1.00  0.00    -0.176 N
ATOM      3  H2  UNL     1      41.304  -0.835  -5.709  1.00  0.00     0.186 HD
HETATM    4  C2  UNL     1      39.338  -1.182  -5.139  1.00  0.00     0.681 A
HETATM    5  N4  UNL     1      38.142  -1.633  -5.549  1.00  0.00    -0.175 N
ATOM      6  H4  UNL     1      37.363  -1.633  -4.890  1.00  0.00     0.186 HD
HETATM    7  C5  UNL     1      37.927  -2.095  -6.826  1.00  0.00     0.143 A
HETATM    8  N5  UNL     1      36.746  -2.549  -7.259  1.00  0.00    -0.310 N
ATOM      9  H5  UNL     1      35.872  -2.617  -6.737  1.00  0.00     0.176 HD
HETATM   10  S1  UNL     1      37.028  -2.982  -8.857  1.00  0.00    -0.005 SA
HETATM   11  C6  UNL     1      38.678  -2.569  -8.954  1.00  0.00     0.076 A
HETATM   12  C16 UNL     1      38.945  -2.096  -7.691  1.00  0.00     0.078 A
ENDROOT
BRANCH  11  13
HETATM   13  S2  UNL     1      39.758  -2.736 -10.378  1.00  0.00    -0.113 SA
BRANCH  13  14
HETATM   14  C7  UNL     1      38.849  -3.110 -11.877  1.00  0.00     0.157 C
BRANCH  14  15
HETATM   15  C8  UNL     1      38.210  -1.923 -12.499  1.00  0.00     0.107 A
HETATM   16  N6  UNL     1      38.782  -1.256 -13.519  1.00  0.00    -0.341 N
HETATM   17  C9  UNL     1      38.183  -0.180 -14.076  1.00  0.00     0.199 A
ATOM     18  H6  UNL     1      39.684  -1.569 -13.880  1.00  0.00     0.167 HD
HETATM   19  N7  UNL     1      36.995   0.279 -13.644  1.00  0.00    -0.188 N
HETATM   20  C10 UNL     1      36.421  -0.386 -12.623  1.00  0.00     0.684 A
ATOM     21  H7  UNL     1      36.550   1.093 -14.070  1.00  0.00     0.185 HD
HETATM   22  N8  UNL     1      35.275   0.026 -12.185  1.00  0.00    -0.192 N
HETATM   23  N9  UNL     1      37.013  -1.458 -12.065  1.00  0.00    -0.179 N
ATOM     24  H8  UNL     1      34.830  -0.469 -11.412  1.00  0.00     0.184 HD
ATOM     25  H9  UNL     1      36.547  -1.935 -11.293  1.00  0.00     0.185 HD
BRANCH  22  26
HETATM   26  C11 UNL     1      34.621   1.152 -12.754  1.00  0.00     0.053 A
HETATM   27  C12 UNL     1      33.804   1.181 -13.822  1.00  0.00     0.084 A
HETATM   28  C13 UNL     1      33.361   2.558 -14.048  1.00  0.00     0.174 A
HETATM   29  O2  UNL     1      32.589   2.995 -14.951  1.00  0.00    -0.288 OA
HETATM   30  C14 UNL     1      34.010   3.343 -12.991  1.00  0.00     0.057 A
HETATM   31  C15 UNL     1      34.745   2.507 -12.241  1.00  0.00     0.034 A
ENDBRANCH  22  26
ENDBRANCH  14  15
ENDBRANCH  13  14
ENDBRANCH  11  13
BRANCH   1  32
HETATM   32  N1  UNL     1      41.202  -1.610  -8.067  1.00  0.00    -0.384 N
ATOM     33  H12 UNL     1      41.785  -2.443  -8.152  1.00  0.00     0.157 HD
ATOM     34  H11 UNL     1      41.375  -0.760  -8.602  1.00  0.00     0.157 HD
ENDBRANCH   1  32
BRANCH   4  35
HETATM   35  N3  UNL     1      39.498  -0.758  -3.929  1.00  0.00    -0.224 N
ATOM     36  H3  UNL     1      39.515  -1.413  -3.146  1.00  0.00     0.177 HD
BRANCH  35  37
HETATM   37  C3  UNL     1      39.653   0.657  -3.706  1.00  0.00     0.164 C
BRANCH  37  38
HETATM   38  C4  UNL     1      38.347   1.255  -3.209  1.00  0.00     0.184 C
BRANCH  38  39
HETATM   39  O1  UNL     1      37.688   1.852  -4.278  1.00  0.00    -0.399 OA
ATOM     40  H1  UNL     1      38.331   2.232  -4.865  1.00  0.00     0.209 HD
ENDBRANCH  38  39
ENDBRANCH  37  38
ENDBRANCH  35  37
ENDBRANCH   4  35
TORSDOF 9
ENDMDL