MODEL 5
REMARK VINA RESULT: -4.566030172      2.128      2.748
REMARK  10 active torsions:
REMARK  status: ('A' for Active; 'I' for Inactive)
REMARK    1  A    between atoms: C2_2  and  C3_3
REMARK    2  A    between atoms: C3_3  and  C4_4
REMARK    3  A    between atoms: C4_4  and  C5_5
REMARK    4  A    between atoms: C5_5  and  O1_6
REMARK    5  A    between atoms: C5_5  and  C6_8
REMARK    6  A    between atoms: C6_8  and  O2_9
REMARK    7  A    between atoms: O2_9  and  O3_10
REMARK    8  A    between atoms: C15_24  and  N2_25
REMARK    9  A    between atoms: C16_29  and  C17_30
REMARK   10  A    between atoms: C18_34  and  O7_35
ROOT
HETATM    1  C6  UNL     1      40.283  -3.016 -13.053  1.00  0.00     0.205 C
HETATM    2  C7  UNL     1      40.322  -4.443 -12.453  1.00  0.00     0.053 C
HETATM    3  C8  UNL     1      41.428  -5.308 -12.916  1.00  0.00     0.010 C
HETATM    4  C9  UNL     1      42.369  -5.799 -11.884  1.00  0.00     0.015 C
HETATM    5  C10 UNL     1      43.084  -7.016 -12.469  1.00  0.00     0.012 C
HETATM    6  C11 UNL     1      43.260  -5.003 -11.081  1.00  0.00     0.231 C
HETATM    7  N1  UNL     1      42.461  -4.338 -10.020  1.00  0.00    -0.017 N
ATOM      8  H11 UNL     1      42.778  -4.516  -9.067  1.00  0.00     0.283 HD
ATOM      9  H12 UNL     1      41.524  -4.718  -9.884  1.00  0.00     0.283 HD
HETATM   10  C12 UNL     1      42.505  -2.933 -10.434  1.00  0.00     0.475 C
HETATM   11  O4  UNL     1      43.769  -2.789 -10.852  1.00  0.00    -0.324 OA
HETATM   12  C13 UNL     1      44.210  -4.023 -11.421  1.00  0.00     0.122 C
HETATM   13  C14 UNL     1      45.514  -4.229 -10.598  1.00  0.00     0.051 C
HETATM   14  C15 UNL     1      44.645  -3.649 -12.765  1.00  0.00     0.257 C
HETATM   15  C16 UNL     1      43.713  -2.537 -13.317  1.00  0.00     0.250 C
HETATM   16  O6  UNL     1      42.490  -3.022 -13.240  1.00  0.00    -0.313 OA
HETATM   17  C18 UNL     1      41.521  -2.342 -12.510  1.00  0.00     0.325 C
HETATM   18  O8  UNL     1      41.477  -2.600 -11.182  1.00  0.00    -0.275 OA
ENDROOT
BRANCH   1  19
HETATM   19  C5  UNL     1      38.987  -2.397 -12.693  1.00  0.00     0.164 C
BRANCH  19  20
HETATM   20  C4  UNL     1      37.837  -3.376 -12.852  1.00  0.00     0.035 C
BRANCH  20  21
HETATM   21  C3  UNL     1      36.839  -2.827 -13.894  1.00  0.00     0.002 C
BRANCH  21  22
HETATM   22  C2  UNL     1      35.478  -2.871 -13.196  1.00  0.00    -0.004 C
HETATM   23  C1  UNL     1      35.586  -3.745 -11.956  1.00  0.00     0.005 C
ENDBRANCH  21  22
ENDBRANCH  20  21
ENDBRANCH  19  20
BRANCH  19  24
HETATM   24  O1  UNL     1      38.879  -1.821 -11.459  1.00  0.00    -0.392 OA
ATOM     25  H1  UNL     1      39.208  -2.441 -10.818  1.00  0.00     0.210 HD
ENDBRANCH  19  24
ENDBRANCH   1  19
BRANCH   1  26
HETATM   26  O2  UNL     1      40.326  -3.242 -14.431  1.00  0.00    -0.221 OA
BRANCH  26  27
HETATM   27  O3  UNL     1      40.620  -2.185 -15.113  1.00  0.00    -0.249 OA
ATOM     28  H3  UNL     1      41.545  -1.968 -15.091  1.00  0.00     0.253 HD
ENDBRANCH  26  27
ENDBRANCH   1  26
BRANCH  17  29
HETATM   29  O7  UNL     1      41.735  -1.037 -12.723  1.00  0.00    -0.335 OA
HETATM   30  C19 UNL     1      41.693  -0.048 -11.852  1.00  0.00     0.208 C
ENDBRANCH  17  29
BRANCH  15  31
HETATM   31  C17 UNL     1      44.262  -2.160 -14.629  1.00  0.00     0.262 C
HETATM   32  N3  UNL     1      43.602  -2.279 -15.866  1.00  0.00    -0.060 NA
HETATM   33  O5  UNL     1      45.436  -1.683 -14.646  1.00  0.00    -0.274 OA
ENDBRANCH  15  31
BRANCH  14  34
HETATM   34  N2  UNL     1      44.899  -4.655 -13.719  1.00  0.00    -0.069 N
ATOM     35  H23 UNL     1      44.015  -5.101 -13.964  1.00  0.00     0.275 HD
ATOM     36  H22 UNL     1      45.151  -4.210 -14.601  1.00  0.00     0.275 HD
ATOM     37  H21 UNL     1      45.584  -5.382 -13.514  1.00  0.00     0.275 HD
ENDBRANCH  14  34
TORSDOF 10
ENDMDL