MODEL 1
REMARK VINA RESULT: -5.811370045      0.000      0.000
REMARK  9 active torsions:
REMARK  status: ('A' for Active; 'I' for Inactive)
REMARK    1  A    between atoms: C2_2  and  O1_3
REMARK    2  A    between atoms: O1_3  and  C3_4
REMARK    3  A    between atoms: C3_4  and  C4_6
REMARK    4  A    between atoms: C5_7  and  C6_8
REMARK    5  A    between atoms: C6_8  and  N1_9
REMARK    6  A    between atoms: C7_10  and  N2_11
REMARK    7  A    between atoms: C10_19  and  N4_20
REMARK    8  A    between atoms: C13_25  and  N6_26
REMARK    9  A    between atoms: C17_37  and  C18_38
ROOT
HETATM    1  C4  UNL     1      39.012  -4.284  -6.089  1.00  0.00     0.077 A
HETATM    2  C5  UNL     1      37.923  -3.907  -6.797  1.00  0.00     0.067 A
HETATM    3  N8  UNL     1      37.016  -4.938  -6.686  1.00  0.00    -0.345 N
ATOM      4  H8  UNL     1      36.091  -4.943  -7.116  1.00  0.00     0.167 HD
HETATM    5  C15 UNL     1      37.508  -5.931  -5.939  1.00  0.00     0.122 A
HETATM    6  C16 UNL     1      36.833  -7.180  -5.608  1.00  0.00     0.118 C
HETATM    7  N9  UNL     1      36.310  -8.176  -5.338  1.00  0.00    -0.190 NA
HETATM    8  C17 UNL     1      38.761  -5.557  -5.546  1.00  0.00     0.011 A
ENDROOT
BRANCH   8   9
HETATM    9  C18 UNL     1      39.697  -6.358  -4.691  1.00  0.00     0.166 C
HETATM   10  C19 UNL     1      40.733  -7.007  -5.476  1.00  0.00     0.063 C
HETATM   11  N10 UNL     1      41.551  -7.537  -6.089  1.00  0.00    -0.197 NA
ENDBRANCH   8   9
BRANCH   2  12
HETATM   12  C6  UNL     1      37.600  -2.699  -7.575  1.00  0.00     0.147 C
BRANCH  12  13
HETATM   13  N1  UNL     1      37.526  -2.759  -8.977  1.00  0.00    -0.139 N
HETATM   14  C7  UNL     1      36.419  -2.972  -9.678  1.00  0.00     0.686 A
HETATM   15  N3  UNL     1      36.405  -2.970 -11.043  1.00  0.00    -0.155 N
HETATM   16  C8  UNL     1      37.493  -2.760 -11.762  1.00  0.00     0.277 A
ATOM     17  H3  UNL     1      35.522  -3.138 -11.526  1.00  0.00     0.187 HD
HETATM   18  O3  UNL     1      37.403  -2.774 -13.017  1.00  0.00    -0.266 OA
HETATM   19  C9  UNL     1      38.667  -2.537 -11.107  1.00  0.00     0.122 A
HETATM   20  C10 UNL     1      39.842  -2.321 -11.786  1.00  0.00     0.138 A
HETATM   21  C14 UNL     1      38.648  -2.544  -9.737  1.00  0.00     0.163 A
HETATM   22  N5  UNL     1      40.987  -2.112 -11.070  1.00  0.00    -0.176 N
HETATM   23  C13 UNL     1      40.965  -2.120  -9.730  1.00  0.00     0.679 A
ATOM     24  H5  UNL     1      41.867  -1.948 -11.560  1.00  0.00     0.186 HD
HETATM   25  N7  UNL     1      39.791  -2.336  -9.109  1.00  0.00    -0.175 N
ATOM     26  H7  UNL     1      39.783  -2.340  -8.089  1.00  0.00     0.186 HD
BRANCH  14  27
HETATM   27  N2  UNL     1      35.303  -3.251  -9.152  1.00  0.00    -0.234 N
ATOM     28  H22 UNL     1      35.109  -2.736  -8.293  1.00  0.00     0.174 HD
ATOM     29  H21 UNL     1      34.630  -3.894  -9.568  1.00  0.00     0.174 HD
ENDBRANCH  14  27
BRANCH  20  30
HETATM   30  N4  UNL     1      39.900  -2.306 -13.207  1.00  0.00    -0.375 N
HETATM   31  C11 UNL     1      40.110  -3.481 -14.030  1.00  0.00     0.150 C
HETATM   32  C12 UNL     1      39.766  -1.029 -13.910  1.00  0.00     0.150 C
ENDBRANCH  20  30
BRANCH  23  33
HETATM   33  N6  UNL     1      42.064  -1.920  -9.056  1.00  0.00    -0.234 N
ATOM     34  H62 UNL     1      42.852  -1.415  -9.462  1.00  0.00     0.174 HD
ATOM     35  H61 UNL     1      42.151  -2.273  -8.103  1.00  0.00     0.174 HD
ENDBRANCH  23  33
ENDBRANCH  12  13
ENDBRANCH   2  12
BRANCH   1  36
HETATM   36  C3  UNL     1      40.291  -3.616  -5.796  1.00  0.00     0.296 C
HETATM   37  O2  UNL     1      41.188  -3.690  -6.671  1.00  0.00    -0.259 OA
BRANCH  36  38
HETATM   38  O1  UNL     1      40.528  -2.944  -4.635  1.00  0.00    -0.318 OA
BRANCH  38  39
HETATM   39  C2  UNL     1      39.647  -1.978  -4.149  1.00  0.00     0.174 C
HETATM   40  C1  UNL     1      39.087  -2.216  -2.790  1.00  0.00     0.034 C
ENDBRANCH  38  39
ENDBRANCH  36  38
ENDBRANCH   1  36
TORSDOF 9
ENDMDL