MODEL 5
REMARK VINA RESULT: -4.975907700      2.633      4.802
REMARK  8 active torsions:
REMARK  status: ('A' for Active; 'I' for Inactive)
REMARK    1  A    between atoms: O1_2  and  C2_3
REMARK    2  A    between atoms: C2_3  and  C3_4
REMARK    3  A    between atoms: C3_4  and  O2_5
REMARK    4  A    between atoms: O2_5  and  C4_6
REMARK    5  A    between atoms: C6_11  and  N2_12
REMARK    6  A    between atoms: C10_22  and  S2_23
REMARK    7  A    between atoms: S2_23  and  C11_24
REMARK    8  A    between atoms: C12_27  and  N6_28
ROOT
HETATM    1  C11 UNL     1      43.033  -3.706 -16.304  1.00  0.00     0.100 A
HETATM    2  N5  UNL     1      42.317  -4.502 -17.057  1.00  0.00    -0.330 N
ATOM      3  H5  UNL     1      41.577  -5.075 -16.652  1.00  0.00     0.168 HD
HETATM    4  C12 UNL     1      42.574  -4.550 -18.362  1.00  0.00     0.144 A
HETATM    5  S3  UNL     1      43.858  -3.447 -18.548  1.00  0.00    -0.041 SA
HETATM    6  C13 UNL     1      44.010  -2.967 -16.921  1.00  0.00     0.122 A
HETATM    7  C14 UNL     1      44.932  -2.017 -16.305  1.00  0.00     0.110 C
HETATM    8  N7  UNL     1      45.672  -1.266 -15.835  1.00  0.00    -0.191 NA
ENDROOT
BRANCH   1   9
HETATM    9  S2  UNL     1      42.760  -3.566 -14.499  1.00  0.00    -0.093 SA
BRANCH   9  10
HETATM   10  C10 UNL     1      41.087  -3.016 -14.259  1.00  0.00     0.173 C
HETATM   11  C9  UNL     1      40.310  -3.708 -13.162  1.00  0.00     0.241 C
HETATM   12  N4  UNL     1      39.642  -2.458 -13.041  1.00  0.00    -0.303 N
HETATM   13  O3  UNL     1      40.276  -4.843 -12.623  1.00  0.00    -0.272 OA
HETATM   14  C8  UNL     1      38.426  -1.781 -12.788  1.00  0.00     0.088 A
HETATM   15  C15 UNL     1      40.890  -1.835 -13.332  1.00  0.00     0.156 C
HETATM   16  C5  UNL     1      38.077  -0.628 -13.455  1.00  0.00     0.117 A
HETATM   17  C7  UNL     1      37.555  -2.275 -11.849  1.00  0.00     0.138 A
HETATM   18  S1  UNL     1      39.268  -0.059 -14.660  1.00  0.00    -0.075 SA
HETATM   19  N1  UNL     1      36.954  -0.012 -13.208  1.00  0.00    -0.184 N
HETATM   20  C4  UNL     1      40.890  -0.487 -13.914  1.00  0.00     0.214 C
HETATM   21  C6  UNL     1      36.090  -0.478 -12.295  1.00  0.00     0.676 A
ATOM     22  H1  UNL     1      36.729   0.841 -13.721  1.00  0.00     0.185 HD
HETATM   23  N3  UNL     1      36.407  -1.601 -11.632  1.00  0.00    -0.200 N
ATOM     24  H3  UNL     1      35.753  -1.960 -10.935  1.00  0.00     0.183 HD
BRANCH  20  25
HETATM   25  O2  UNL     1      41.914  -0.315 -14.802  1.00  0.00    -0.371 OA
BRANCH  25  26
HETATM   26  C3  UNL     1      42.840   0.654 -14.482  1.00  0.00     0.195 C
BRANCH  26  27
HETATM   27  C2  UNL     1      42.523   2.000 -15.050  1.00  0.00     0.193 C
BRANCH  27  28
HETATM   28  O1  UNL     1      41.915   1.957 -16.291  1.00  0.00    -0.394 OA
HETATM   29  C1  UNL     1      40.944   2.906 -16.502  1.00  0.00     0.201 C
ENDBRANCH  27  28
ENDBRANCH  26  27
ENDBRANCH  25  26
ENDBRANCH  20  25
BRANCH  21  30
HETATM   30  N2  UNL     1      34.961   0.145 -12.051  1.00  0.00    -0.234 N
ATOM     31  H22 UNL     1      34.656   0.311 -11.092  1.00  0.00     0.174 HD
ATOM     32  H21 UNL     1      34.368   0.476 -12.813  1.00  0.00     0.174 HD
ENDBRANCH  21  30
ENDBRANCH   9  10
ENDBRANCH   1   9
BRANCH   4  33
HETATM   33  N6  UNL     1      41.970  -5.280 -19.275  1.00  0.00    -0.380 N
ATOM     34  H62 UNL     1      42.032  -6.285 -19.439  1.00  0.00     0.158 HD
ATOM     35  H61 UNL     1      41.320  -4.966 -19.995  1.00  0.00     0.158 HD
ENDBRANCH   4  33
TORSDOF 8
ENDMDL