MODEL 4
REMARK VINA RESULT: -7.074680378      1.271      1.355
REMARK  11 active torsions:
REMARK  status: ('A' for Active; 'I' for Inactive)
REMARK    1  A    between atoms: C2_3  and  S1_4
REMARK    2  A    between atoms: S1_4  and  C3_5
REMARK    3  A    between atoms: C3_5  and  C4_6
REMARK    4  A    between atoms: C4_6  and  O1_7
REMARK    5  A    between atoms: C4_6  and  C5_9
REMARK    6  A    between atoms: C6_13  and  N3_14
REMARK    7  A    between atoms: C10_25  and  C11_26
REMARK    8  A    between atoms: C11_26  and  C12_27
REMARK    9  A    between atoms: C12_27  and  C13_28
REMARK   10  A    between atoms: C13_28  and  C14_29
REMARK   11  A    between atoms: C14_29  and  O2_30
ROOT
HETATM    1  N1  UNL     1      43.480  -2.464 -18.576  1.00  0.00    -0.197 NA
HETATM    2  C1  UNL     1      43.967  -3.431 -18.197  1.00  0.00     0.069 C
HETATM    3  C2  UNL     1      44.574  -4.653 -17.698  1.00  0.00     0.197 C
ENDROOT
BRANCH   3   4
HETATM    4  S1  UNL     1      44.186  -4.837 -15.935  1.00  0.00    -0.152 SA
BRANCH   4   5
HETATM    5  C3  UNL     1      42.637  -4.007 -15.555  1.00  0.00     0.108 C
BRANCH   5   6
HETATM    6  C4  UNL     1      42.904  -2.788 -14.735  1.00  0.00     0.158 C
BRANCH   6   7
HETATM    7  O1  UNL     1      43.043  -1.642 -15.564  1.00  0.00    -0.393 OA
ATOM      8  H1  UNL     1      43.598  -0.991 -15.150  1.00  0.00     0.210 HD
ENDBRANCH   6   7
BRANCH   6   9
HETATM    9  C5  UNL     1      41.790  -2.483 -13.783  1.00  0.00     0.224 C
HETATM   10  N2  UNL     1      40.632  -2.047 -14.501  1.00  0.00    -0.044 N
HETATM   11  C6  UNL     1      39.817  -1.239 -13.609  1.00  0.00     0.323 C
ATOM     12  H22 UNL     1      40.867  -1.560 -15.367  1.00  0.00     0.280 HD
ATOM     13  H21 UNL     1      40.112  -2.821 -14.914  1.00  0.00     0.280 HD
HETATM   14  C16 UNL     1      40.672  -0.799 -12.478  1.00  0.00     0.178 C
HETATM   15  O3  UNL     1      40.347  -1.296 -11.243  1.00  0.00    -0.382 OA
HETATM   16  C19 UNL     1      42.050  -1.365 -12.829  1.00  0.00     0.054 C
HETATM   17  C17 UNL     1      41.559  -1.166 -10.535  1.00  0.00     0.168 C
HETATM   18  C18 UNL     1      42.515  -1.868 -11.476  1.00  0.00     0.035 C
BRANCH  11  19
HETATM   19  N3  UNL     1      38.621  -1.955 -13.228  1.00  0.00    -0.296 N
HETATM   20  C7  UNL     1      38.487  -3.278 -13.091  1.00  0.00     0.187 A
HETATM   21  N4  UNL     1      37.232  -3.577 -12.729  1.00  0.00    -0.346 N
HETATM   22  C8  UNL     1      36.560  -2.426 -12.633  1.00  0.00     0.122 A
ATOM     23  H4  UNL     1      36.859  -4.511 -12.557  1.00  0.00     0.167 HD
HETATM   24  C9  UNL     1      35.233  -2.162 -12.293  1.00  0.00     0.132 A
HETATM   25  C15 UNL     1      37.416  -1.389 -12.944  1.00  0.00     0.143 A
HETATM   26  N5  UNL     1      34.441  -3.128 -12.007  1.00  0.00    -0.383 N
HETATM   27  N6  UNL     1      34.873  -0.868 -12.293  1.00  0.00    -0.320 N
ATOM     28  H52 UNL     1      34.714  -4.111 -12.007  1.00  0.00     0.157 HD
ATOM     29  H51 UNL     1      33.471  -2.936 -11.759  1.00  0.00     0.157 HD
HETATM   30  C10 UNL     1      35.714   0.147 -12.598  1.00  0.00     0.164 A
ATOM     31  H6  UNL     1      33.910  -0.637 -12.049  1.00  0.00     0.169 HD
HETATM   32  N7  UNL     1      36.997  -0.110 -12.926  1.00  0.00    -0.319 N
ATOM     33  H7  UNL     1      37.637   0.650 -13.157  1.00  0.00     0.169 HD
BRANCH  30  34
HETATM   34  C11 UNL     1      35.235   1.524 -12.572  1.00  0.00    -0.030 C
BRANCH  34  35
HETATM   35  C12 UNL     1      34.829   2.658 -12.533  1.00  0.00    -0.096 C
BRANCH  35  36
HETATM   36  C13 UNL     1      34.332   4.032 -12.466  1.00  0.00     0.120 C
BRANCH  36  37
HETATM   37  C14 UNL     1      34.036   4.428 -11.014  1.00  0.00     0.176 C
BRANCH  37  38
HETATM   38  O2  UNL     1      33.682   5.753 -10.926  1.00  0.00    -0.400 OA
ATOM     39  H2  UNL     1      32.935   5.945 -11.481  1.00  0.00     0.209 HD
ENDBRANCH  37  38
ENDBRANCH  36  37
ENDBRANCH  35  36
ENDBRANCH  34  35
ENDBRANCH  30  34
ENDBRANCH  11  19
ENDBRANCH   6   9
ENDBRANCH   5   6
ENDBRANCH   4   5
ENDBRANCH   3   4
TORSDOF 11
ENDMDL