MODEL 2
REMARK VINA RESULT: -7.359180358      3.135     11.749
REMARK  12 active torsions:
REMARK  status: ('A' for Active; 'I' for Inactive)
REMARK    1  A    between atoms: O1_2  and  C2_3
REMARK    2  A    between atoms: C2_3  and  O2_4
REMARK    3  A    between atoms: C2_3  and  C3_6
REMARK    4  A    between atoms: C6_9  and  C7_10
REMARK    5  A    between atoms: C8_11  and  C9_12
REMARK    6  A    between atoms: C10_17  and  C11_18
REMARK    7  A    between atoms: C11_18  and  C12_19
REMARK    8  A    between atoms: C11_18  and  O4_22
REMARK    9  A    between atoms: C12_19  and  O3_20
REMARK   10  A    between atoms: O4_22  and  N3_23
REMARK   11  A    between atoms: C13_25  and  C15_27
REMARK   12  A    between atoms: C16_30  and  N5_31
ROOT
HETATM    1  C9  UNL     1      38.986  -1.550 -13.845  1.00  0.00     0.145 A
HETATM    2  N1  UNL     1      38.368  -0.708 -14.568  1.00  0.00    -0.286 N
ATOM      3  H1  UNL     1      38.714  -0.483 -15.502  1.00  0.00     0.188 HD
HETATM    4  N2  UNL     1      37.261  -0.116 -14.102  1.00  0.00    -0.294 N
ATOM      5  H2  UNL     1      36.762   0.560 -14.682  1.00  0.00     0.187 HD
HETATM    6  C10 UNL     1      36.828  -0.395 -12.936  1.00  0.00     0.102 A
HETATM    7  S1  UNL     1      38.023  -1.604 -12.341  1.00  0.00    -0.044 SA
ENDROOT
BRANCH   6   8
HETATM    8  C11 UNL     1      35.640   0.121 -12.204  1.00  0.00     0.234 C
BRANCH   8   9
HETATM    9  C12 UNL     1      34.464  -0.746 -12.642  1.00  0.00     0.205 C
BRANCH   9  10
HETATM   10  O3  UNL     1      34.789  -1.596 -13.674  1.00  0.00    -0.398 OA
ATOM     11  H3  UNL     1      34.209  -2.346 -13.725  1.00  0.00     0.209 HD
ENDBRANCH   9  10
ENDBRANCH   8   9
BRANCH   8  12
HETATM   12  O4  UNL     1      35.347   1.435 -12.653  1.00  0.00    -0.266 OA
BRANCH  12  13
HETATM   13  N3  UNL     1      34.290   1.681 -13.460  1.00  0.00    -0.267 N
HETATM   14  C13 UNL     1      33.644   2.765 -13.412  1.00  0.00     0.074 C
HETATM   15  C14 UNL     1      32.492   2.875 -14.383  1.00  0.00     0.074 C
ATOM     16  H3  UNL     1      34.004   0.967 -14.130  1.00  0.00     0.194 HD
BRANCH  14  17
HETATM   17  C15 UNL     1      33.868   3.904 -12.551  1.00  0.00     0.160 A
HETATM   18  N4  UNL     1      34.655   4.978 -12.814  1.00  0.00    -0.172 N
HETATM   19  C16 UNL     1      34.611   5.826 -11.782  1.00  0.00     0.692 A
ATOM     20  H4  UNL     1      35.197   5.117 -13.668  1.00  0.00     0.186 HD
HETATM   21  N6  UNL     1      33.814   5.321 -10.860  1.00  0.00    -0.131 N
HETATM   22  N7  UNL     1      33.364   4.146 -11.339  1.00  0.00    -0.269 N
ATOM     23  H6  UNL     1      33.583   5.739  -9.958  1.00  0.00     0.205 HD
ATOM     24  H7  UNL     1      32.725   3.525 -10.843  1.00  0.00     0.189 HD
BRANCH  19  25
HETATM   25  N5  UNL     1      35.239   6.952 -11.688  1.00  0.00    -0.233 N
ATOM     26  H52 UNL     1      36.234   7.086 -11.865  1.00  0.00     0.174 HD
ATOM     27  H51 UNL     1      34.831   7.850 -11.430  1.00  0.00     0.174 HD
ENDBRANCH  19  25
ENDBRANCH  14  17
ENDBRANCH  12  13
ENDBRANCH   8  12
ENDBRANCH   6   8
BRANCH   1  28
HETATM   28  C8  UNL     1      40.164  -2.263 -14.183  1.00  0.00    -0.034 C
HETATM   29  C7  UNL     1      41.158  -2.886 -14.480  1.00  0.00    -0.058 C
BRANCH  29  30
HETATM   30  C6  UNL     1      42.328  -3.649 -14.827  1.00  0.00     0.033 A
HETATM   31  C5  UNL     1      43.364  -3.777 -13.924  1.00  0.00     0.024 A
HETATM   32  C4  UNL     1      44.504  -4.505 -14.229  1.00  0.00     0.031 A
HETATM   33  C3  UNL     1      44.602  -5.111 -15.456  1.00  0.00     0.064 A
HETATM   34  N8  UNL     1      43.586  -4.990 -16.353  1.00  0.00    -0.364 N
HETATM   35  C17 UNL     1      42.482  -4.278 -16.042  1.00  0.00     0.109 A
ATOM     36  H8  UNL     1      43.660  -5.440 -17.266  1.00  0.00     0.165 HD
BRANCH  33  37
HETATM   37  C2  UNL     1      45.798  -5.891 -15.811  1.00  0.00     0.307 C
BRANCH  37  38
HETATM   38  O1  UNL     1      46.085  -6.801 -14.817  1.00  0.00    -0.360 OA
HETATM   39  C1  UNL     1      45.703  -8.107 -15.151  1.00  0.00     0.205 C
ENDBRANCH  37  38
BRANCH  37  40
HETATM   40  O2  UNL     1      45.620  -6.575 -17.020  1.00  0.00    -0.366 OA
ATOM     41  H2  UNL     1      44.788  -6.321 -17.400  1.00  0.00     0.213 HD
ENDBRANCH  37  40
ENDBRANCH  33  37
ENDBRANCH  29  30
ENDBRANCH   1  28
TORSDOF 12
ENDMDL