MODEL 5
REMARK VINA RESULT: -6.976221556      4.012      9.060
REMARK  9 active torsions:
REMARK  status: ('A' for Active; 'I' for Inactive)
REMARK    1  A    between atoms: N1_2  and  C3_4
REMARK    2  A    between atoms: C4_7  and  N3_8
REMARK    3  A    between atoms: C7_17  and  N6_18
REMARK    4  A    between atoms: N6_18  and  C8_20
REMARK    5  A    between atoms: C8_20  and  C9_21
REMARK    6  A    between atoms: C9_21  and  N7_22
REMARK    7  A    between atoms: C9_21  and  C10_26
REMARK    8  A    between atoms: C10_26  and  S1_27
REMARK    9  A    between atoms: S1_27  and  C11_28
ROOT
HETATM    1  C11 UNL     1      37.825  -6.275  -5.678  1.00  0.00     0.061 A
HETATM    2  C12 UNL     1      36.804  -6.176  -6.502  1.00  0.00     0.139 A
HETATM    3  C13 UNL     1      36.419  -5.042  -7.289  1.00  0.00     0.107 C
HETATM    4  N8  UNL     1      36.112  -4.149  -7.934  1.00  0.00    -0.191 NA
HETATM    5  C14 UNL     1      36.070  -7.464  -6.585  1.00  0.00     0.310 A
HETATM    6  O1  UNL     1      35.054  -7.730  -7.265  1.00  0.00    -0.258 OA
HETATM    7  O2  UNL     1      36.742  -8.316  -5.753  1.00  0.00    -0.273 OA
HETATM    8  C15 UNL     1      37.816  -7.668  -5.170  1.00  0.00     0.100 A
HETATM    9  C16 UNL     1      38.694  -8.157  -4.317  1.00  0.00    -0.044 A
HETATM   10  C17 UNL     1      39.881  -8.093  -3.431  1.00  0.00     0.041 A
HETATM   11  C18 UNL     1      39.168  -9.358  -3.511  1.00  0.00     0.041 A
ENDROOT
BRANCH   1  12
HETATM   12  S1  UNL     1      39.045  -5.122  -5.246  1.00  0.00    -0.123 SA
BRANCH  12  13
HETATM   13  C10 UNL     1      38.599  -3.553  -4.607  1.00  0.00     0.114 C
BRANCH  13  14
HETATM   14  C9  UNL     1      38.763  -2.465  -5.615  1.00  0.00     0.210 C
BRANCH  14  15
HETATM   15  C8  UNL     1      39.729  -2.880  -6.738  1.00  0.00     0.154 C
BRANCH  15  16
HETATM   16  N6  UNL     1      39.051  -2.567  -7.982  1.00  0.00    -0.373 N
ATOM     17  H6  UNL     1      38.085  -2.244  -7.929  1.00  0.00     0.161 HD
BRANCH  16  18
HETATM   18  C7  UNL     1      39.580  -2.669  -9.131  1.00  0.00     0.117 A
HETATM   19  C6  UNL     1      40.935  -2.868  -9.253  1.00  0.00     0.138 A
HETATM   20  N5  UNL     1      41.527  -2.981 -10.479  1.00  0.00    -0.346 N
HETATM   21  C5  UNL     1      40.776  -2.897 -11.588  1.00  0.00     0.151 A
ATOM     22  H5  UNL     1      42.534  -3.127 -10.552  1.00  0.00     0.167 HD
HETATM   23  N4  UNL     1      41.311  -3.003 -12.816  1.00  0.00    -0.174 N
HETATM   24  C19 UNL     1      39.426  -2.699 -11.483  1.00  0.00     0.123 A
HETATM   25  C4  UNL     1      40.560  -2.918 -13.927  1.00  0.00     0.679 A
ATOM     26  H4  UNL     1      42.316  -3.151 -12.907  1.00  0.00     0.186 HD
HETATM   27  N2  UNL     1      39.236  -2.725 -13.823  1.00  0.00    -0.175 N
HETATM   28  C3  UNL     1      38.653  -2.613 -12.627  1.00  0.00     0.149 A
ATOM     29  H2  UNL     1      38.668  -2.663 -14.668  1.00  0.00     0.186 HD
HETATM   30  N9  UNL     1      38.849  -2.588 -10.252  1.00  0.00    -0.336 N
ATOM     31  H9  UNL     1      37.842  -2.440 -10.182  1.00  0.00     0.168 HD
BRANCH  25  32
HETATM   32  N3  UNL     1      41.100  -3.023 -15.111  1.00  0.00    -0.234 N
ATOM     33  H32 UNL     1      40.911  -2.331 -15.836  1.00  0.00     0.174 HD
ATOM     34  H31 UNL     1      41.721  -3.808 -15.310  1.00  0.00     0.174 HD
ENDBRANCH  25  32
BRANCH  28  35
HETATM   35  N1  UNL     1      37.254  -2.407 -12.477  1.00  0.00    -0.374 N
HETATM   36  C1  UNL     1      36.694  -1.079 -12.438  1.00  0.00     0.150 C
HETATM   37  C2  UNL     1      36.391  -3.559 -12.361  1.00  0.00     0.150 C
ENDBRANCH  28  35
ENDBRANCH  16  18
ENDBRANCH  15  16
ENDBRANCH  14  15
BRANCH  14  38
HETATM   38  N7  UNL     1      37.592  -1.946  -6.202  1.00  0.00    -0.073 N
ATOM     39  H73 UNL     1      37.770  -1.493  -7.098  1.00  0.00     0.274 HD
ATOM     40  H72 UNL     1      36.966  -2.678  -6.538  1.00  0.00     0.274 HD
ATOM     41  H71 UNL     1      37.143  -1.323  -5.531  1.00  0.00     0.274 HD
ENDBRANCH  14  38
ENDBRANCH  13  14
ENDBRANCH  12  13
ENDBRANCH   1  12
TORSDOF 9
ENDMDL