MODEL 5
REMARK VINA RESULT: -9.165102087      3.184      4.000
REMARK  7 active torsions:
REMARK  status: ('A' for Active; 'I' for Inactive)
REMARK    1  A    between atoms: C2_2  and  C3_3
REMARK    2  A    between atoms: C2_2  and  C7_11
REMARK    3  A    between atoms: C3_3  and  C4_4
REMARK    4  A    between atoms: C4_4  and  O1_5
REMARK    5  A    between atoms: O1_5  and  C5_6
REMARK    6  A    between atoms: C5_6  and  C6_7
REMARK    7  A    between atoms: C15_19  and  O2_20
ROOT
HETATM    1  C7  UNL     1     -22.870  35.279 -33.625  1.00  0.00    -0.013 C
HETATM    2  C8  UNL     1     -22.926  34.376 -32.455  1.00  0.00     0.014 C
HETATM    3  C9  UNL     1     -22.660  34.889 -31.108  1.00  0.00     0.001 C
HETATM    4  C10 UNL     1     -21.568  34.003 -30.477  1.00  0.00     0.000 C
HETATM    5  C11 UNL     1     -20.424  34.822 -29.971  1.00  0.00     0.000 C
HETATM    6  C12 UNL     1     -19.123  34.529 -30.654  1.00  0.00     0.000 C
HETATM    7  C13 UNL     1     -19.164  34.728 -32.143  1.00  0.00     0.005 C
HETATM    8  C14 UNL     1     -19.606  36.112 -32.542  1.00  0.00     0.068 C
HETATM    9  C15 UNL     1     -20.460  36.081 -33.811  1.00  0.00     0.164 C
HETATM   10  C17 UNL     1     -21.889  36.407 -33.581  1.00  0.00     0.082 C
HETATM   11  O3  UNL     1     -20.217  34.867 -34.445  1.00  0.00    -0.355 OA
HETATM   12  C18 UNL     1     -20.456  35.013 -35.820  1.00  0.00     0.171 C
HETATM   13  C19 UNL     1     -21.963  35.075 -35.979  1.00  0.00     0.027 C
HETATM   14  C20 UNL     1     -22.589  34.373 -34.831  1.00  0.00     0.016 C
ENDROOT
BRANCH   1  15
HETATM   15  C2  UNL     1     -24.209  35.901 -33.861  1.00  0.00    -0.078 C
HETATM   16  C1  UNL     1     -24.486  37.184 -33.804  1.00  0.00     0.015 C
BRANCH  15  17
HETATM   17  C3  UNL     1     -25.355  34.960 -34.181  1.00  0.00     0.060 C
BRANCH  17  18
HETATM   18  C4  UNL     1     -26.691  35.530 -33.837  1.00  0.00     0.172 C
BRANCH  18  19
HETATM   19  O1  UNL     1     -27.309  34.808 -32.848  1.00  0.00    -0.382 OA
BRANCH  19  20
HETATM   20  C5  UNL     1     -27.533  35.530 -31.700  1.00  0.00     0.284 C
BRANCH  20  21
HETATM   21  C6  UNL     1     -26.440  35.234 -30.670  1.00  0.00     0.408 C
HETATM   22  F1  UNL     1     -25.540  36.265 -30.721  1.00  0.00    -0.169 F
HETATM   23  F2  UNL     1     -25.881  34.002 -30.936  1.00  0.00    -0.169 F
HETATM   24  F3  UNL     1     -26.973  35.209 -29.401  1.00  0.00    -0.169 F
ENDBRANCH  20  21
ENDBRANCH  19  20
ENDBRANCH  18  19
ENDBRANCH  17  18
ENDBRANCH  15  17
ENDBRANCH   1  15
BRANCH   9  25
HETATM   25  O2  UNL     1     -19.927  37.058 -34.650  1.00  0.00    -0.360 OA
HETATM   26  C16 UNL     1     -20.246  38.346 -34.322  1.00  0.00     0.205 C
ENDBRANCH   9  25
TORSDOF 7
ENDMDL