MODEL 4
REMARK VINA RESULT: -9.836680711      2.231      3.248
REMARK  7 active torsions:
REMARK  status: ('A' for Active; 'I' for Inactive)
REMARK    1  A    between atoms: C2_2  and  C3_3
REMARK    2  A    between atoms: C3_3  and  C4_4
REMARK    3  A    between atoms: C4_4  and  C5_5
REMARK    4  A    between atoms: C5_5  and  C6_6
REMARK    5  A    between atoms: C6_6  and  C7_7
REMARK    6  A    between atoms: C7_7  and  C8_8
REMARK    7  A    between atoms: C18_22  and  C19_23
ROOT
HETATM    1  C8  UNL     1     -29.095  34.948 -31.759  1.00  0.00    -0.075 C
HETATM    2  C9  UNL     1     -28.287  35.733 -31.009  1.00  0.00    -0.004 C
HETATM    3  C10 UNL     1     -26.854  35.351 -30.879  1.00  0.00     0.158 C
HETATM    4  N1  UNL     1     -26.428  35.015 -32.245  1.00  0.00    -0.335 N
HETATM    5  C11 UNL     1     -27.191  34.250 -33.019  1.00  0.00     0.088 A
HETATM    6  N2  UNL     1     -26.593  34.090 -34.208  1.00  0.00    -0.347 N
ATOM      7  H2  UNL     1     -26.953  33.551 -34.996  1.00  0.00     0.167 HD
HETATM    8  C12 UNL     1     -25.432  34.769 -34.175  1.00  0.00     0.036 A
HETATM    9  C13 UNL     1     -25.334  35.351 -32.932  1.00  0.00     0.038 A
HETATM   10  C14 UNL     1     -24.225  36.195 -32.437  1.00  0.00     0.096 C
HETATM   11  C15 UNL     1     -22.918  35.441 -32.573  1.00  0.00     0.060 C
HETATM   12  C16 UNL     1     -21.823  36.489 -32.458  1.00  0.00     0.046 C
HETATM   13  C17 UNL     1     -22.833  34.665 -31.233  1.00  0.00     0.046 C
HETATM   14  O1  UNL     1     -22.804  34.546 -33.508  1.00  0.00    -0.366 OA
HETATM   15  C18 UNL     1     -23.056  34.537 -34.785  1.00  0.00     0.235 C
HETATM   16  C20 UNL     1     -24.440  34.874 -35.270  1.00  0.00     0.100 C
HETATM   17  C21 UNL     1     -28.485  33.761 -32.416  1.00  0.00     0.110 C
ENDROOT
BRANCH   1  18
HETATM   18  C7  UNL     1     -30.509  35.243 -31.944  1.00  0.00     0.034 C
BRANCH  18  19
HETATM   19  C6  UNL     1     -30.955  35.898 -33.169  1.00  0.00     0.004 C
BRANCH  19  20
HETATM   20  C5  UNL     1     -30.153  36.880 -33.911  1.00  0.00     0.001 C
BRANCH  20  21
HETATM   21  C4  UNL     1     -29.426  36.341 -35.091  1.00  0.00     0.004 C
BRANCH  21  22
HETATM   22  C3  UNL     1     -30.056  35.002 -35.544  1.00  0.00     0.026 C
BRANCH  22  23
HETATM   23  C2  UNL     1     -30.421  35.063 -36.987  1.00  0.00    -0.037 C
HETATM   24  C1  UNL     1     -30.115  36.114 -37.733  1.00  0.00     0.007 C
ENDBRANCH  22  23
ENDBRANCH  21  22
ENDBRANCH  20  21
ENDBRANCH  19  20
ENDBRANCH  18  19
ENDBRANCH   1  18
BRANCH  15  25
HETATM   25  C19 UNL     1     -22.089  35.305 -35.697  1.00  0.00     0.413 C
HETATM   26  F1  UNL     1     -20.784  35.100 -35.342  1.00  0.00    -0.168 F
HETATM   27  F2  UNL     1     -22.445  36.603 -35.874  1.00  0.00    -0.168 F
HETATM   28  F3  UNL     1     -22.241  34.687 -36.951  1.00  0.00    -0.168 F
ENDBRANCH  15  25
TORSDOF 7
ENDMDL