MODEL 2
REMARK VINA RESULT: -9.075204162      4.108      5.799
REMARK  9 active torsions:
REMARK  status: ('A' for Active; 'I' for Inactive)
REMARK    1  A    between atoms: O1_2  and  C2_3
REMARK    2  A    between atoms: C6_7  and  C7_8
REMARK    3  A    between atoms: C7_8  and  C8_9
REMARK    4  A    between atoms: C7_8  and  C11_16
REMARK    5  A    between atoms: C8_9  and  C9_10
REMARK    6  A    between atoms: C9_10  and  C10_12
REMARK    7  A    between atoms: C11_16  and  C12_17
REMARK    8  A    between atoms: C12_17  and  C13_18
REMARK    9  A    between atoms: C19_24  and  O3_25
ROOT
HETATM    1  C7  UNL     1     -23.824  35.591 -32.787  1.00  0.00     0.005 C
ENDROOT
BRANCH   1   2
HETATM    2  C6  UNL     1     -22.380  35.782 -32.297  1.00  0.00     0.018 A
HETATM    3  C4  UNL     1     -21.843  34.888 -31.451  1.00  0.00    -0.045 A
HETATM    4  C3  UNL     1     -20.479  34.964 -31.093  1.00  0.00     0.044 A
HETATM    5  C5  UNL     1     -22.586  33.824 -30.761  1.00  0.00     0.049 C
HETATM    6  C2  UNL     1     -19.699  35.965 -31.616  1.00  0.00     0.071 A
HETATM    7  C21 UNL     1     -20.235  36.879 -32.476  1.00  0.00     0.074 A
HETATM    8  C19 UNL     1     -21.616  36.787 -32.832  1.00  0.00     0.082 A
BRANCH   6   9
HETATM    9  O1  UNL     1     -18.344  36.041 -31.253  1.00  0.00    -0.356 OA
HETATM   10  C1  UNL     1     -17.734  34.953 -30.612  1.00  0.00     0.210 C
ENDBRANCH   6   9
BRANCH   8  11
HETATM   11  O3  UNL     1     -22.037  37.743 -33.707  1.00  0.00    -0.355 OA
HETATM   12  C20 UNL     1     -21.188  38.682 -34.279  1.00  0.00     0.210 C
ENDBRANCH   8  11
ENDBRANCH   1   2
BRANCH   1  13
HETATM   13  C8  UNL     1     -23.905  35.164 -33.907  1.00  0.00    -0.061 C
BRANCH  13  14
HETATM   14  C9  UNL     1     -23.827  34.787 -35.280  1.00  0.00     0.301 C
HETATM   15  O2  UNL     1     -24.692  33.923 -35.690  1.00  0.00    -0.274 OA
BRANCH  14  16
HETATM   16  C10 UNL     1     -22.893  35.224 -36.352  1.00  0.00     0.463 C
HETATM   17  F1  UNL     1     -23.351  36.325 -37.051  1.00  0.00    -0.163 F
HETATM   18  F2  UNL     1     -22.787  34.127 -37.220  1.00  0.00    -0.163 F
HETATM   19  F3  UNL     1     -21.632  35.495 -35.894  1.00  0.00    -0.163 F
ENDBRANCH  14  16
ENDBRANCH  13  14
ENDBRANCH   1  13
BRANCH   1  20
HETATM   20  C11 UNL     1     -24.854  35.892 -31.780  1.00  0.00     0.049 C
BRANCH  20  21
HETATM   21  C12 UNL     1     -26.192  36.212 -32.331  1.00  0.00     0.010 C
BRANCH  21  22
HETATM   22  C13 UNL     1     -27.151  35.035 -32.016  1.00  0.00    -0.014 C
HETATM   23  C14 UNL     1     -28.533  35.543 -32.199  1.00  0.00     0.004 C
HETATM   24  C15 UNL     1     -29.624  34.808 -31.510  1.00  0.00     0.000 C
HETATM   25  C16 UNL     1     -29.156  33.612 -30.698  1.00  0.00     0.000 C
HETATM   26  C17 UNL     1     -28.037  34.148 -29.825  1.00  0.00     0.000 C
HETATM   27  C18 UNL     1     -26.842  34.529 -30.627  1.00  0.00     0.004 C
ENDBRANCH  21  22
ENDBRANCH  20  21
ENDBRANCH   1  20
TORSDOF 9
ENDMDL