MODEL 2
REMARK VINA RESULT: -8.015075650      1.784      2.113
REMARK  8 active torsions:
REMARK  status: ('A' for Active; 'I' for Inactive)
REMARK    1  A    between atoms: C4_4  and  S1_6
REMARK    2  A    between atoms: S1_6  and  C5_7
REMARK    3  A    between atoms: C5_7  and  C6_9
REMARK    4  A    between atoms: C5_7  and  C7_11
REMARK    5  A    between atoms: C7_11  and  O2_13
REMARK    6  A    between atoms: O2_13  and  C8_14
REMARK    7  A    between atoms: C8_14  and  C9_15
REMARK    8  A    between atoms: C9_15  and  C10_16
ROOT
HETATM    1  C7  UNL     1     -23.471  35.194 -34.561  1.00  0.00     0.294 C
HETATM    2  O1  UNL     1     -23.891  34.409 -35.416  1.00  0.00    -0.262 OA
ENDROOT
BRANCH   1   3
HETATM    3  C5  UNL     1     -22.440  36.246 -34.853  1.00  0.00     0.190 C
HETATM    4 CL2  UNL     1     -21.001  35.478 -35.548  1.00  0.00    -0.094 Cl
BRANCH   3   5
HETATM    5  S1  UNL     1     -22.014  37.192 -33.378  1.00  0.00    -0.080 SA
BRANCH   5   6
HETATM    6  C4  UNL     1     -20.314  36.989 -32.911  1.00  0.00     0.074 C
HETATM    7  C2  UNL     1     -19.997  36.117 -31.983  1.00  0.00    -0.059 C
HETATM    8  C1  UNL     1     -21.045  35.281 -31.301  1.00  0.00     0.045 C
HETATM    9  C3  UNL     1     -18.588  35.933 -31.579  1.00  0.00     0.045 C
HETATM   10 CL1  UNL     1     -19.097  37.947 -33.688  1.00  0.00    -0.076 Cl
ENDBRANCH   5   6
ENDBRANCH   3   5
BRANCH   3  11
HETATM   11  C6  UNL     1     -23.038  37.243 -35.856  1.00  0.00     0.162 C
HETATM   12 CL3  UNL     1     -23.905  38.498 -34.940  1.00  0.00    -0.127 Cl
ENDBRANCH   3  11
ENDBRANCH   1   3
BRANCH   1  13
HETATM   13  O2  UNL     1     -23.942  35.133 -33.287  1.00  0.00    -0.319 OA
BRANCH  13  14
HETATM   14  C8  UNL     1     -25.275  35.042 -32.859  1.00  0.00     0.179 C
BRANCH  14  15
HETATM   15  C9  UNL     1     -26.042  36.225 -33.318  1.00  0.00     0.031 C
BRANCH  15  16
HETATM   16  C10 UNL     1     -27.511  35.978 -33.496  1.00  0.00    -0.013 C
HETATM   17  C11 UNL     1     -27.770  34.833 -34.439  1.00  0.00     0.005 C
HETATM   18  C12 UNL     1     -29.256  34.598 -34.595  1.00  0.00     0.000 C
HETATM   19  C13 UNL     1     -29.880  35.884 -35.091  1.00  0.00     0.000 C
HETATM   20  C14 UNL     1     -29.740  36.908 -33.984  1.00  0.00     0.000 C
HETATM   21  C15 UNL     1     -28.251  37.225 -33.867  1.00  0.00     0.005 C
ENDBRANCH  15  16
ENDBRANCH  14  15
ENDBRANCH  13  14
ENDBRANCH   1  13
TORSDOF 8
ENDMDL