MODEL 5
REMARK VINA RESULT: -9.412986865      1.491      2.537
REMARK  7 active torsions:
REMARK  status: ('A' for Active; 'I' for Inactive)
REMARK    1  A    between atoms: C1_2  and  C2_5
REMARK    2  A    between atoms: N1_10  and  C7_11
REMARK    3  A    between atoms: C7_11  and  C8_12
REMARK    4  A    between atoms: C8_12  and  C9_13
REMARK    5  A    between atoms: C9_13  and  C10_14
REMARK    6  A    between atoms: C10_14  and  C11_15
REMARK    7  A    between atoms: C11_15  and  N2_16
ROOT
HETATM    1  C10 UNL     1     -23.139  35.593 -33.679  1.00  0.00    -0.006 C
HETATM    2  C15 UNL     1     -21.987  35.105 -32.943  1.00  0.00     0.015 C
HETATM    3  C16 UNL     1     -21.445  33.754 -33.133  1.00  0.00     0.001 C
HETATM    4  C17 UNL     1     -21.490  33.184 -34.514  1.00  0.00     0.000 C
HETATM    5  C18 UNL     1     -21.027  34.278 -35.443  1.00  0.00     0.000 C
HETATM    6  C19 UNL     1     -22.198  35.002 -35.995  1.00  0.00     0.001 C
HETATM    7  C20 UNL     1     -23.314  35.326 -35.107  1.00  0.00     0.015 C
ENDROOT
BRANCH   1   8
HETATM    8  C9  UNL     1     -24.507  35.178 -33.017  1.00  0.00     0.020 C
BRANCH   8   9
HETATM    9  C8  UNL     1     -25.637  35.100 -33.884  1.00  0.00     0.045 C
BRANCH   9  10
HETATM   10  C7  UNL     1     -26.804  35.943 -33.533  1.00  0.00     0.059 C
BRANCH  10  11
HETATM   11  N1  UNL     1     -28.051  35.361 -33.379  1.00  0.00    -0.380 N
HETATM   12  C2  UNL     1     -29.117  35.923 -32.685  1.00  0.00     0.191 C
HETATM   13  C3  UNL     1     -29.963  36.770 -33.651  1.00  0.00     0.034 C
HETATM   14  C4  UNL     1     -30.119  36.217 -35.002  1.00  0.00     0.004 C
HETATM   15  C5  UNL     1     -29.438  34.958 -35.365  1.00  0.00     0.020 C
HETATM   16  C6  UNL     1     -28.422  34.427 -34.423  1.00  0.00     0.122 C
BRANCH  12  17
HETATM   17  C1  UNL     1     -30.023  34.958 -31.935  1.00  0.00     0.407 C
HETATM   18  F1  UNL     1     -29.497  33.696 -32.030  1.00  0.00    -0.169 F
HETATM   19  F2  UNL     1     -31.335  35.035 -32.276  1.00  0.00    -0.169 F
HETATM   20  F3  UNL     1     -29.980  35.252 -30.557  1.00  0.00    -0.169 F
ENDBRANCH  12  17
ENDBRANCH  10  11
ENDBRANCH   9  10
ENDBRANCH   8   9
ENDBRANCH   1   8
BRANCH   1  21
HETATM   21  C11 UNL     1     -23.267  37.111 -33.451  1.00  0.00     0.098 C
BRANCH  21  22
HETATM   22  N2  UNL     1     -22.375  37.957 -34.116  1.00  0.00    -0.282 N
HETATM   23  C12 UNL     1     -22.631  38.787 -35.126  1.00  0.00     0.116 A
HETATM   24  C13 UNL     1     -21.499  39.477 -35.492  1.00  0.00     0.038 A
HETATM   25  C14 UNL     1     -20.516  39.023 -34.641  1.00  0.00     0.109 A
HETATM   26  N3  UNL     1     -21.097  38.130 -33.856  1.00  0.00    -0.306 N
ATOM     27  H3  UNL     1     -20.601  37.625 -33.121  1.00  0.00     0.186 HD
ENDBRANCH  21  22
ENDBRANCH   1  21
TORSDOF 7
ENDMDL