MODEL 3
REMARK VINA RESULT: -10.545861604      0.956      2.347
REMARK  8 active torsions:
REMARK  status: ('A' for Active; 'I' for Inactive)
REMARK    1  A    between atoms: C4_4  and  C5_5
REMARK    2  A    between atoms: C9_12  and  O1_13
REMARK    3  A    between atoms: O1_13  and  C10_14
REMARK    4  A    between atoms: C10_14  and  C11_15
REMARK    5  A    between atoms: C11_15  and  O3_17
REMARK    6  A    between atoms: O3_17  and  C12_18
REMARK    7  A    between atoms: C12_18  and  C13_19
REMARK    8  A    between atoms: C13_19  and  C14_20
ROOT
HETATM    1  C10 UNL     1     -22.478  36.043 -34.870  1.00  0.00     0.286 C
ENDROOT
BRANCH   1   2
HETATM    2  O1  UNL     1     -21.079  36.036 -35.122  1.00  0.00    -0.340 OA
BRANCH   2   3
HETATM    3  C9  UNL     1     -20.361  35.703 -33.943  1.00  0.00     0.081 A
HETATM    4  C2  UNL     1     -20.258  34.452 -33.476  1.00  0.00    -0.027 A
HETATM    5  C1  UNL     1     -20.863  33.264 -34.102  1.00  0.00     0.051 C
HETATM    6  C3  UNL     1     -19.500  34.211 -32.303  1.00  0.00     0.025 A
HETATM    7  C4  UNL     1     -18.895  35.231 -31.670  1.00  0.00     0.049 A
HETATM    8  C6  UNL     1     -19.036  36.486 -32.182  1.00  0.00     0.025 A
HETATM    9  C7  UNL     1     -19.746  36.794 -33.293  1.00  0.00    -0.027 A
HETATM   10  C8  UNL     1     -19.969  38.142 -33.869  1.00  0.00     0.051 C
BRANCH   7  11
HETATM   11  C5  UNL     1     -18.046  35.053 -30.454  1.00  0.00     0.417 C
HETATM   12  F1  UNL     1     -17.175  34.016 -30.587  1.00  0.00    -0.166 F
HETATM   13  F2  UNL     1     -18.942  34.739 -29.422  1.00  0.00    -0.166 F
HETATM   14  F3  UNL     1     -17.423  36.222 -30.111  1.00  0.00    -0.166 F
ENDBRANCH   7  11
ENDBRANCH   2   3
ENDBRANCH   1   2
BRANCH   1  15
HETATM   15  C11 UNL     1     -23.225  35.159 -35.746  1.00  0.00     0.283 C
HETATM   16  O2  UNL     1     -22.873  34.752 -36.874  1.00  0.00    -0.263 OA
BRANCH  15  17
HETATM   17  O3  UNL     1     -24.440  34.724 -35.259  1.00  0.00    -0.320 OA
BRANCH  17  18
HETATM   18  C12 UNL     1     -25.121  35.341 -34.157  1.00  0.00     0.179 C
BRANCH  18  19
HETATM   19  C13 UNL     1     -26.360  34.476 -34.047  1.00  0.00     0.031 C
BRANCH  19  20
HETATM   20  C14 UNL     1     -27.675  35.190 -34.169  1.00  0.00    -0.013 C
HETATM   21  C15 UNL     1     -27.623  36.482 -33.460  1.00  0.00     0.005 C
HETATM   22  C16 UNL     1     -28.909  37.240 -33.413  1.00  0.00     0.000 C
HETATM   23  C17 UNL     1     -30.023  36.734 -34.249  1.00  0.00     0.000 C
HETATM   24  C18 UNL     1     -31.024  35.882 -33.549  1.00  0.00     0.000 C
HETATM   25  C19 UNL     1     -30.562  35.306 -32.252  1.00  0.00     0.000 C
HETATM   26  C20 UNL     1     -29.241  34.618 -32.296  1.00  0.00     0.000 C
HETATM   27  C21 UNL     1     -28.765  34.258 -33.656  1.00  0.00     0.005 C
ENDBRANCH  19  20
ENDBRANCH  18  19
ENDBRANCH  17  18
ENDBRANCH  15  17
ENDBRANCH   1  15
TORSDOF 8
ENDMDL