MODEL 1
REMARK VINA RESULT: -9.326242541      0.000      0.000
REMARK  8 active torsions:
REMARK  status: ('A' for Active; 'I' for Inactive)
REMARK    1  A    between atoms: C9_10  and  C10_11
REMARK    2  A    between atoms: C10_11  and  O3_13
REMARK    3  A    between atoms: O3_13  and  C11_14
REMARK    4  A    between atoms: C11_14  and  C12_15
REMARK    5  A    between atoms: C12_15  and  C13_16
REMARK    6  A    between atoms: C13_16  and  C14_17
REMARK    7  A    between atoms: C14_17  and  C15_18
REMARK    8  A    between atoms: C16_22  and  C17_23
ROOT
HETATM    1  O1  UNL     1     -22.499  34.883 -31.308  1.00  0.00    -0.297 OA
HETATM    2  C1  UNL     1     -21.812  35.447 -32.130  1.00  0.00     0.139 C
HETATM    3  C2  UNL     1     -22.110  36.797 -32.674  1.00  0.00     0.089 C
HETATM    4  C3  UNL     1     -21.257  36.979 -33.885  1.00  0.00    -0.020 C
HETATM    5  C4  UNL     1     -22.197  37.180 -35.070  1.00  0.00     0.011 C
HETATM    6  C5  UNL     1     -22.605  38.642 -35.161  1.00  0.00     0.001 C
HETATM    7  C6  UNL     1     -21.467  39.523 -35.597  1.00  0.00     0.000 C
HETATM    8  C7  UNL     1     -20.181  38.905 -35.095  1.00  0.00     0.001 C
HETATM    9  C8  UNL     1     -20.409  38.230 -33.747  1.00  0.00     0.011 C
HETATM   10  C9  UNL     1     -20.412  35.744 -34.002  1.00  0.00     0.112 C
HETATM   11  C16 UNL     1     -20.582  34.931 -32.738  1.00  0.00     0.127 C
ENDROOT
BRANCH  10  12
HETATM   12  C10 UNL     1     -20.909  34.928 -35.136  1.00  0.00     0.265 C
HETATM   13  O2  UNL     1     -20.307  34.949 -36.234  1.00  0.00    -0.265 OA
BRANCH  12  14
HETATM   14  O3  UNL     1     -22.014  34.144 -35.027  1.00  0.00    -0.321 OA
BRANCH  14  15
HETATM   15  C11 UNL     1     -22.926  33.812 -36.037  1.00  0.00     0.178 C
BRANCH  15  16
HETATM   16  C12 UNL     1     -24.362  33.924 -35.690  1.00  0.00     0.027 C
BRANCH  16  17
HETATM   17  C13 UNL     1     -24.527  34.911 -34.564  1.00  0.00     0.011 C
BRANCH  17  18
HETATM   18  C14 UNL     1     -25.952  35.053 -34.088  1.00  0.00     0.117 C
BRANCH  18  19
HETATM   19  C15 UNL     1     -26.014  36.423 -33.392  1.00  0.00     0.387 C
HETATM   20  F1  UNL     1     -25.454  37.378 -34.199  1.00  0.00    -0.171 F
HETATM   21  F2  UNL     1     -27.347  36.703 -33.149  1.00  0.00    -0.171 F
HETATM   22  F3  UNL     1     -25.316  36.326 -32.213  1.00  0.00    -0.171 F
ENDBRANCH  18  19
ENDBRANCH  17  18
ENDBRANCH  16  17
ENDBRANCH  15  16
ENDBRANCH  14  15
ENDBRANCH  12  14
ENDBRANCH  10  12
BRANCH  11  23
HETATM   23  C17 UNL     1     -19.414  34.996 -31.858  1.00  0.00     0.064 A
HETATM   24  C18 UNL     1     -18.748  36.132 -31.486  1.00  0.00     0.035 A
HETATM   25  C19 UNL     1     -17.723  35.734 -30.661  1.00  0.00     0.027 A
HETATM   26  C20 UNL     1     -17.825  34.355 -30.577  1.00  0.00     0.142 A
HETATM   27  O4  UNL     1     -18.842  33.954 -31.302  1.00  0.00    -0.326 OA
ENDBRANCH  11  23
TORSDOF 8
ENDMDL