MODEL 2
REMARK VINA RESULT: -9.078783234      4.471      6.390
REMARK  6 active torsions:
REMARK  status: ('A' for Active; 'I' for Inactive)
REMARK    1  A    between atoms: C2_2  and  C15_17
REMARK    2  A    between atoms: C3_3  and  C4_4
REMARK    3  A    between atoms: C4_4  and  C5_5
REMARK    4  A    between atoms: C5_5  and  C6_6
REMARK    5  A    between atoms: C6_6  and  C7_7
REMARK    6  A    between atoms: C7_7  and  C8_8
ROOT
HETATM    1  C4  UNL     1     -23.355  36.702 -33.139  1.00  0.00     0.028 C
ENDROOT
BRANCH   1   2
HETATM    2  C3  UNL     1     -22.929  37.792 -34.010  1.00  0.00    -0.016 C
HETATM    3  C2  UNL     1     -21.738  38.212 -34.310  1.00  0.00    -0.013 C
HETATM    4  C1  UNL     1     -21.659  39.381 -35.258  1.00  0.00     0.052 C
BRANCH   3   5
HETATM    5  C15 UNL     1     -20.492  37.684 -33.821  1.00  0.00     0.169 A
HETATM    6  N1  UNL     1     -19.279  37.707 -34.364  1.00  0.00    -0.278 N
HETATM    7  N2  UNL     1     -18.445  37.099 -33.550  1.00  0.00    -0.281 N
ATOM      8  H1  UNL     1     -19.036  38.126 -35.262  1.00  0.00     0.189 HD
HETATM    9  C16 UNL     1     -19.122  36.682 -32.478  1.00  0.00     0.136 A
ATOM     10  H2  UNL     1     -17.447  36.968 -33.711  1.00  0.00     0.189 HD
HETATM   11  C17 UNL     1     -18.642  35.945 -31.274  1.00  0.00     0.099 C
HETATM   12  O1  UNL     1     -20.355  37.046 -32.663  1.00  0.00    -0.278 OA
ENDBRANCH   3   5
ENDBRANCH   1   2
BRANCH   1  13
HETATM   13  C5  UNL     1     -24.804  36.371 -33.419  1.00  0.00     0.004 C
BRANCH  13  14
HETATM   14  C6  UNL     1     -25.533  36.051 -32.099  1.00  0.00     0.001 C
BRANCH  14  15
HETATM   15  C7  UNL     1     -26.750  35.316 -32.463  1.00  0.00     0.009 C
BRANCH  15  16
HETATM   16  C8  UNL     1     -28.068  35.971 -32.484  1.00  0.00     0.040 C
HETATM   17  C9  UNL     1     -29.116  35.471 -31.548  1.00  0.00    -0.011 C
HETATM   18  C10 UNL     1     -28.703  34.424 -30.568  1.00  0.00     0.010 C
HETATM   19  C11 UNL     1     -30.374  34.968 -32.243  1.00  0.00     0.005 C
HETATM   20  C12 UNL     1     -30.978  36.033 -33.123  1.00  0.00     0.004 C
HETATM   21  C13 UNL     1     -29.946  37.031 -33.594  1.00  0.00     0.056 C
HETATM   22  C14 UNL     1     -28.606  36.340 -33.851  1.00  0.00     0.164 C
HETATM   23  F1  UNL     1     -27.769  37.297 -34.387  1.00  0.00    -0.230 F
HETATM   24 BR1  UNL     1     -28.910  34.932 -35.061  1.00  0.00    -0.048 Br
ENDBRANCH  15  16
ENDBRANCH  14  15
ENDBRANCH  13  14
ENDBRANCH   1  13
TORSDOF 6
ENDMDL