MODEL 4
REMARK VINA RESULT: -10.242136800      1.167      1.316
REMARK  7 active torsions:
REMARK  status: ('A' for Active; 'I' for Inactive)
REMARK    1  A    between atoms: C3_3  and  C5_5
REMARK    2  A    between atoms: C3_3  and  O1_12
REMARK    3  A    between atoms: C5_5  and  C6_6
REMARK    4  A    between atoms: O1_12  and  C12_13
REMARK    5  A    between atoms: C12_13  and  C13_15
REMARK    6  A    between atoms: C15_17  and  O3_18
REMARK    7  A    between atoms: C19_22  and  C20_23
ROOT
HETATM    1  C1  UNL     1     -26.588  36.290 -29.033  1.00  0.00     0.015 C
HETATM    2  C2  UNL     1     -26.793  35.920 -30.166  1.00  0.00    -0.079 C
HETATM    3  C3  UNL     1     -27.064  35.445 -31.554  1.00  0.00     0.129 C
HETATM    4  C4  UNL     1     -26.567  34.052 -31.656  1.00  0.00     0.061 C
ENDROOT
BRANCH   3   5
HETATM    5  C5  UNL     1     -28.483  35.700 -31.886  1.00  0.00     0.056 C
BRANCH   5   6
HETATM    6  C6  UNL     1     -28.828  35.762 -33.328  1.00  0.00    -0.011 C
HETATM    7  C7  UNL     1     -29.997  36.603 -33.709  1.00  0.00     0.005 C
HETATM    8  C8  UNL     1     -30.814  35.964 -34.837  1.00  0.00     0.000 C
HETATM    9  C9  UNL     1     -29.886  35.451 -35.930  1.00  0.00     0.000 C
HETATM   10  C10 UNL     1     -28.923  34.423 -35.367  1.00  0.00     0.000 C
HETATM   11  C11 UNL     1     -29.099  34.340 -33.846  1.00  0.00     0.005 C
ENDBRANCH   5   6
ENDBRANCH   3   5
BRANCH   3  12
HETATM   12  O1  UNL     1     -26.175  36.258 -32.346  1.00  0.00    -0.293 OA
BRANCH  12  13
HETATM   13  C12 UNL     1     -25.231  35.779 -33.204  1.00  0.00     0.295 C
HETATM   14  O2  UNL     1     -25.582  35.240 -34.265  1.00  0.00    -0.259 OA
BRANCH  13  15
HETATM   15  C13 UNL     1     -23.802  35.922 -32.836  1.00  0.00     0.043 A
HETATM   16  C14 UNL     1     -23.025  36.938 -33.346  1.00  0.00     0.055 A
HETATM   17  C15 UNL     1     -21.690  37.078 -33.008  1.00  0.00     0.075 A
HETATM   18  C17 UNL     1     -21.127  36.171 -32.133  1.00  0.00    -0.014 A
HETATM   19  C18 UNL     1     -19.683  36.304 -31.752  1.00  0.00     0.052 C
HETATM   20  C19 UNL     1     -21.870  35.128 -31.591  1.00  0.00     0.057 A
HETATM   21  C21 UNL     1     -23.193  35.044 -31.967  1.00  0.00     0.034 A
BRANCH  17  22
HETATM   22  O3  UNL     1     -20.916  38.123 -33.540  1.00  0.00    -0.355 OA
HETATM   23  C16 UNL     1     -21.512  38.967 -34.507  1.00  0.00     0.210 C
ENDBRANCH  17  22
BRANCH  20  24
HETATM   24  C20 UNL     1     -21.261  34.150 -30.645  1.00  0.00     0.418 C
HETATM   25  F1  UNL     1     -20.386  33.289 -31.282  1.00  0.00    -0.166 F
HETATM   26  F2  UNL     1     -22.299  33.343 -30.175  1.00  0.00    -0.166 F
HETATM   27  F3  UNL     1     -20.720  34.761 -29.549  1.00  0.00    -0.166 F
ENDBRANCH  20  24
ENDBRANCH  13  15
ENDBRANCH  12  13
ENDBRANCH   3  12
TORSDOF 7
ENDMDL