MODEL 2
REMARK VINA RESULT: -9.519704995      4.612      7.685
REMARK  7 active torsions:
REMARK  status: ('A' for Active; 'I' for Inactive)
REMARK    1  A    between atoms: C2_2  and  C3_3
REMARK    2  A    between atoms: C3_3  and  C4_4
REMARK    3  A    between atoms: C8_8  and  C9_9
REMARK    4  A    between atoms: C9_9  and  C10_11
REMARK    5  A    between atoms: C10_11  and  C11_12
REMARK    6  A    between atoms: C11_12  and  C14_15
REMARK    7  A    between atoms: C16_17  and  C17_18
ROOT
HETATM    1  C9  UNL     1     -25.180  36.280 -32.981  1.00  0.00     0.142 C
HETATM    2  O1  UNL     1     -24.612  35.648 -32.139  1.00  0.00    -0.297 OA
ENDROOT
BRANCH   1   3
HETATM    3  C8  UNL     1     -26.682  36.134 -33.091  1.00  0.00     0.147 C
HETATM    4  C7  UNL     1     -27.282  37.290 -33.831  1.00  0.00    -0.010 C
HETATM    5  C6  UNL     1     -28.485  37.135 -34.369  1.00  0.00    -0.020 C
HETATM    6  C3  UNL     1     -29.222  35.839 -34.243  1.00  0.00    -0.017 C
HETATM    7  C20 UNL     1     -28.245  34.782 -34.644  1.00  0.00     0.093 C
HETATM    8  C19 UNL     1     -27.014  34.911 -33.831  1.00  0.00     0.142 C
HETATM    9  O2  UNL     1     -26.291  33.924 -33.822  1.00  0.00    -0.297 OA
BRANCH   6  10
HETATM   10  C2  UNL     1     -30.403  35.978 -35.199  1.00  0.00     0.009 C
HETATM   11  C1  UNL     1     -30.061  35.652 -36.623  1.00  0.00     0.006 C
ENDBRANCH   6  10
BRANCH   6  12
HETATM   12  C4  UNL     1     -29.831  35.626 -32.886  1.00  0.00     0.009 C
HETATM   13  C5  UNL     1     -31.340  35.903 -33.002  1.00  0.00     0.006 C
ENDBRANCH   6  12
ENDBRANCH   1   3
BRANCH   1  14
HETATM   14  C10 UNL     1     -24.563  37.184 -33.905  1.00  0.00     0.093 C
BRANCH  14  15
HETATM   15  C11 UNL     1     -23.524  36.673 -34.852  1.00  0.00    -0.007 C
HETATM   16  C12 UNL     1     -23.629  35.221 -35.142  1.00  0.00     0.021 C
HETATM   17  C13 UNL     1     -23.552  37.412 -36.183  1.00  0.00     0.021 C
BRANCH  15  18
HETATM   18  C14 UNL     1     -22.198  37.014 -34.219  1.00  0.00    -0.009 A
HETATM   19  C15 UNL     1     -21.570  36.240 -33.251  1.00  0.00     0.032 A
HETATM   20  C16 UNL     1     -20.381  36.661 -32.810  1.00  0.00     0.055 A
HETATM   21  C18 UNL     1     -19.871  37.812 -33.340  1.00  0.00     0.066 A
HETATM   22  S1  UNL     1     -21.103  38.266 -34.447  1.00  0.00    -0.105 SA
BRANCH  20  23
HETATM   23  C17 UNL     1     -19.591  35.892 -31.749  1.00  0.00     0.418 C
HETATM   24  F1  UNL     1     -20.477  35.425 -30.842  1.00  0.00    -0.166 F
HETATM   25  F2  UNL     1     -19.017  34.766 -32.384  1.00  0.00    -0.166 F
HETATM   26  F3  UNL     1     -18.594  36.642 -31.236  1.00  0.00    -0.166 F
ENDBRANCH  20  23
ENDBRANCH  15  18
ENDBRANCH  14  15
ENDBRANCH   1  14
TORSDOF 7
ENDMDL