MODEL 3
REMARK VINA RESULT: -6.654401864      1.078      1.215
REMARK  6 active torsions:
REMARK  status: ('A' for Active; 'I' for Inactive)
REMARK    1  A    between atoms: C2_2  and  C3_3
REMARK    2  A    between atoms: C3_3  and  N1_4
REMARK    3  A    between atoms: N1_4  and  C6_7
REMARK    4  A    between atoms: C6_7  and  C7_8
REMARK    5  A    between atoms: C7_8  and  S1_9
REMARK    6  A    between atoms: S1_9  and  N2_12
ROOT
HETATM    1  N2  UNL     1      17.860 -12.510  20.416  1.00  0.00    -0.116 N
ATOM      2  H2  UNL     1      18.175 -11.769  19.789  1.00  0.00     0.197 HD
HETATM    3  C8  UNL     1      18.658 -12.891  21.345  1.00  0.00     0.692 A
HETATM    4  N3  UNL     1      19.907 -12.413  21.602  1.00  0.00    -0.193 N
ATOM      5  H3  UNL     1      20.390 -11.677  21.087  1.00  0.00     0.184 HD
HETATM    6  C9  UNL     1      20.385 -13.089  22.658  1.00  0.00     0.054 A
HETATM    7  C10 UNL     1      19.446 -13.995  23.075  1.00  0.00     0.087 A
HETATM    8  N4  UNL     1      18.395 -13.846  22.247  1.00  0.00    -0.190 N
ATOM      9  H4  UNL     1      17.529 -14.382  22.298  1.00  0.00     0.184 HD
HETATM   10  C11 UNL     1      19.619 -14.917  24.214  1.00  0.00     0.196 C
HETATM   11  C12 UNL     1      19.683 -16.328  23.630  1.00  0.00     0.056 C
HETATM   12  C13 UNL     1      18.411 -14.768  25.116  1.00  0.00     0.056 C
HETATM   13  N5  UNL     1      20.825 -14.660  24.946  1.00  0.00     0.099 N
HETATM   14  C14 UNL     1      21.256 -15.831  25.696  1.00  0.00     0.311 C
HETATM   15  C15 UNL     1      21.926 -14.275  24.096  1.00  0.00     0.279 C
HETATM   16  C16 UNL     1      21.685 -12.983  23.362  1.00  0.00     0.090 C
ENDROOT
BRANCH   1  17
HETATM   17  S1  UNL     1      16.276 -13.175  20.158  1.00  0.00     0.245 S
HETATM   18  O1  UNL     1      16.456 -14.670  20.248  1.00  0.00    -0.205 OA
HETATM   19  O2  UNL     1      15.857 -12.780  18.797  1.00  0.00    -0.205 OA
BRANCH  17  20
HETATM   20  C7  UNL     1      15.207 -12.624  21.453  1.00  0.00     0.192 C
BRANCH  20  21
HETATM   21  C6  UNL     1      14.890 -11.189  21.479  1.00  0.00     0.253 C
BRANCH  21  22
HETATM   22  N1  UNL     1      13.635 -10.720  21.041  1.00  0.00    -0.074 N
HETATM   23  C4  UNL     1      13.607 -10.186  19.708  1.00  0.00     0.272 C
HETATM   24  C5  UNL     1      12.521 -11.642  21.236  1.00  0.00     0.272 C
BRANCH  22  25
HETATM   25  C3  UNL     1      13.301  -9.580  21.932  1.00  0.00     0.236 C
BRANCH  25  26
HETATM   26  C2  UNL     1      11.855  -9.569  22.311  1.00  0.00     0.023 C
HETATM   27  C1  UNL     1      11.774  -8.860  23.671  1.00  0.00     0.007 C
ENDBRANCH  25  26
ENDBRANCH  22  25
ENDBRANCH  21  22
ENDBRANCH  20  21
ENDBRANCH  17  20
ENDBRANCH   1  17
TORSDOF 6
ENDMDL