MODEL 2
REMARK VINA RESULT: -6.334071101      2.053      2.513
REMARK  7 active torsions:
REMARK  status: ('A' for Active; 'I' for Inactive)
REMARK    1  A    between atoms: C2_2  and  C3_3
REMARK    2  A    between atoms: C3_3  and  C4_4
REMARK    3  A    between atoms: C4_4  and  N1_5
REMARK    4  A    between atoms: N1_5  and  C6_7
REMARK    5  A    between atoms: C6_7  and  C7_8
REMARK    6  A    between atoms: C9_10  and  O1_11
REMARK    7  A    between atoms: N2_22  and  N3_24
ROOT
HETATM    1  C7  UNL     1      18.006 -12.340  22.850  1.00  0.00     0.011 C
HETATM    2  C8  UNL     1      19.134 -12.862  21.961  1.00  0.00     0.039 C
HETATM    3  C9  UNL     1      19.001 -11.909  20.794  1.00  0.00     0.127 C
HETATM    4  C11 UNL     1      17.571 -11.425  20.749  1.00  0.00     0.037 C
HETATM    5  C12 UNL     1      16.871 -12.060  21.958  1.00  0.00     0.011 C
HETATM    6  C13 UNL     1      16.112 -13.176  21.372  1.00  0.00     0.068 C
HETATM    7  C14 UNL     1      16.625 -13.389  19.938  1.00  0.00     0.032 C
HETATM    8  C15 UNL     1      16.897 -11.985  19.526  1.00  0.00     0.020 A
HETATM    9  C16 UNL     1      16.590 -11.295  18.374  1.00  0.00    -0.060 A
HETATM   10  C17 UNL     1      16.937 -10.739  17.032  1.00  0.00     0.045 C
HETATM   11  C18 UNL     1      15.545 -11.374  19.258  1.00  0.00    -0.010 A
HETATM   12  C19 UNL     1      14.507 -11.527  20.286  1.00  0.00     0.101 C
HETATM   13  N2  UNL     1      13.522 -10.716  20.374  1.00  0.00    -0.303 N
ATOM     14  H2  UNL     1      12.810 -10.837  21.094  1.00  0.00     0.186 HD
HETATM   15  C20 UNL     1      14.697 -12.668  21.186  1.00  0.00     0.182 C
HETATM   16  O2  UNL     1      13.707 -13.165  21.752  1.00  0.00    -0.290 OA
ENDROOT
BRANCH   1  17
HETATM   17  C6  UNL     1      17.793 -13.158  24.060  1.00  0.00     0.126 C
BRANCH  17  18
HETATM   18  N1  UNL     1      18.986 -13.715  24.608  1.00  0.00    -0.397 N
HETATM   19  C5  UNL     1      19.334 -14.993  24.200  1.00  0.00     0.148 C
BRANCH  18  20
HETATM   20  C4  UNL     1      19.664 -13.032  25.611  1.00  0.00     0.057 C
BRANCH  20  21
HETATM   21  C3  UNL     1      20.656 -11.995  25.157  1.00  0.00     0.044 C
BRANCH  21  22
HETATM   22  C2  UNL     1      22.044 -12.619  25.243  1.00  0.00     0.001 C
HETATM   23  C1  UNL     1      22.461 -12.979  23.847  1.00  0.00     0.005 C
ENDBRANCH  21  22
ENDBRANCH  20  21
ENDBRANCH  18  20
ENDBRANCH  17  18
ENDBRANCH   1  17
BRANCH   3  24
HETATM   24  O1  UNL     1      19.404 -12.501  19.620  1.00  0.00    -0.390 OA
HETATM   25  C10 UNL     1      20.341 -11.713  18.965  1.00  0.00     0.202 C
ENDBRANCH   3  24
BRANCH  13  26
HETATM   26  N3  UNL     1      13.443  -9.668  19.466  1.00  0.00    -0.345 N
ATOM     27  H32 UNL     1      13.288  -8.718  19.802  1.00  0.00     0.176 HD
ATOM     28  H31 UNL     1      13.544  -9.876  18.472  1.00  0.00     0.176 HD
ENDBRANCH  13  26
TORSDOF 7
ENDMDL