MODEL 3
REMARK VINA RESULT: -6.057320556      2.623      5.026
REMARK  9 active torsions:
REMARK  status: ('A' for Active; 'I' for Inactive)
REMARK    1  A    between atoms: C2_2  and  C3_3
REMARK    2  A    between atoms: C2_2  and  C9_10
REMARK    3  A    between atoms: C2_2  and  C10_15
REMARK    4  A    between atoms: C4_4  and  C5_5
REMARK    5  A    between atoms: C5_5  and  N1_6
REMARK    6  A    between atoms: C9_10  and  N2_11
REMARK    7  A    between atoms: C10_15  and  N3_16
REMARK       I    between atoms: N3_16  and  C11_18
REMARK       I    between atoms: C11_18  and  N4_20
REMARK    8  A    between atoms: C13_22  and  C15_25
REMARK    9  A    between atoms: C15_25  and  N6_26
ROOT
HETATM    1  N3  UNL     1      18.705 -11.898  21.567  1.00  0.00    -0.321 N
ATOM      2  H3  UNL     1      18.288 -11.573  22.439  1.00  0.00     0.169 HD
HETATM    3  C11 UNL     1      19.769 -12.778  21.678  1.00  0.00     0.323 C
HETATM    4  O1  UNL     1      20.426 -13.278  20.724  1.00  0.00    -0.247 OA
HETATM    5  N4  UNL     1      20.181 -13.172  23.004  1.00  0.00    -0.305 N
HETATM    6  C12 UNL     1      20.058 -13.132  24.459  1.00  0.00     0.178 A
HETATM    7  C13 UNL     1      21.090 -13.957  23.896  1.00  0.00     0.166 A
HETATM    8  C14 UNL     1      22.454 -13.394  23.802  1.00  0.00     0.094 C
HETATM    9  N5  UNL     1      23.530 -12.929  23.723  1.00  0.00    -0.194 NA
ENDROOT
BRANCH   7  10
HETATM   10  C15 UNL     1      21.018 -15.436  23.695  1.00  0.00     0.284 C
BRANCH  10  11
HETATM   11  N6  UNL     1      21.091 -16.218  24.884  1.00  0.00    -0.075 N
HETATM   12  C16 UNL     1      21.780 -17.473  24.544  1.00  0.00     0.271 C
HETATM   13  C17 UNL     1      21.808 -15.609  25.957  1.00  0.00     0.271 C
HETATM   14  C18 UNL     1      19.745 -16.554  25.380  1.00  0.00     0.271 C
ENDBRANCH  10  11
ENDBRANCH   7  10
BRANCH   1  15
HETATM   15  C10 UNL     1      18.140 -11.407  20.378  1.00  0.00     0.089 C
BRANCH  15  16
HETATM   16  C2  UNL     1      16.719 -11.647  20.057  1.00  0.00     0.075 C
HETATM   17  C1  UNL     1      16.375 -11.539  18.575  1.00  0.00     0.037 C
BRANCH  16  18
HETATM   18  C3  UNL     1      16.536 -13.140  20.309  1.00  0.00    -0.088 C
HETATM   19  C4  UNL     1      16.369 -14.317  20.504  1.00  0.00    -0.077 C
BRANCH  19  20
HETATM   20  C5  UNL     1      16.159 -15.736  20.763  1.00  0.00     0.329 C
BRANCH  20  21
HETATM   21  N1  UNL     1      17.096 -16.191  21.770  1.00  0.00    -0.069 N
HETATM   22  C6  UNL     1      16.728 -17.504  22.221  1.00  0.00     0.272 C
HETATM   23  C7  UNL     1      18.427 -16.267  21.173  1.00  0.00     0.272 C
HETATM   24  C8  UNL     1      17.159 -15.282  22.885  1.00  0.00     0.272 C
ENDBRANCH  20  21
ENDBRANCH  19  20
ENDBRANCH  16  18
BRANCH  16  25
HETATM   25  C9  UNL     1      15.656 -11.014  20.868  1.00  0.00     0.257 C
BRANCH  25  26
HETATM   26  N2  UNL     1      15.445  -9.622  20.429  1.00  0.00    -0.077 N
ATOM     27  H23 UNL     1      15.822  -9.455  19.496  1.00  0.00     0.274 HD
ATOM     28  H22 UNL     1      14.464  -9.429  20.231  1.00  0.00     0.274 HD
ATOM     29  H21 UNL     1      15.830  -8.976  21.118  1.00  0.00     0.274 HD
ENDBRANCH  25  26
ENDBRANCH  16  25
ENDBRANCH  15  16
ENDBRANCH   1  15
TORSDOF 9
ENDMDL