MODEL 2
REMARK VINA RESULT: -7.293691871      2.631      3.632
REMARK  6 active torsions:
REMARK  status: ('A' for Active; 'I' for Inactive)
REMARK    1  A    between atoms: N1_2  and  C2_3
REMARK    2  A    between atoms: N1_2  and  S1_7
REMARK    3  A    between atoms: C2_3  and  C3_4
REMARK    4  A    between atoms: S1_7  and  N2_10
REMARK    5  A    between atoms: N2_10  and  C6_12
REMARK    6  A    between atoms: C14_20  and  C15_21
ROOT
HETATM    1  C6  UNL     1      18.256 -12.928  21.611  1.00  0.00     0.102 C
HETATM    2  C7  UNL     1      18.167 -13.216  23.073  1.00  0.00     0.010 C
HETATM    3  C8  UNL     1      17.868 -14.650  23.403  1.00  0.00     0.007 C
HETATM    4  C9  UNL     1      18.495 -15.641  22.488  1.00  0.00     0.005 C
HETATM    5  C10 UNL     1      19.917 -15.339  22.122  1.00  0.00    -0.013 C
HETATM    6  C11 UNL     1      19.937 -14.614  20.805  1.00  0.00     0.011 C
HETATM    7  C12 UNL     1      19.626 -13.157  21.024  1.00  0.00     0.011 C
HETATM    8  C13 UNL     1      20.734 -12.592  21.870  1.00  0.00     0.025 C
HETATM    9  C14 UNL     1      20.634 -13.185  23.233  1.00  0.00     0.040 C
HETATM   10  C16 UNL     1      20.676 -14.685  23.213  1.00  0.00     0.023 C
HETATM   11  C17 UNL     1      19.350 -12.694  23.860  1.00  0.00     0.025 C
ENDROOT
BRANCH   1  12
HETATM   12  N2  UNL     1      17.943 -11.526  21.405  1.00  0.00    -0.297 N
ATOM     13  H2  UNL     1      18.479 -10.738  21.770  1.00  0.00     0.174 HD
BRANCH  12  14
HETATM   14  S1  UNL     1      16.498 -11.409  20.430  1.00  0.00     0.320 S
HETATM   15  O1  UNL     1      16.617 -10.153  19.611  1.00  0.00    -0.182 OA
HETATM   16  O2  UNL     1      16.476 -12.591  19.455  1.00  0.00    -0.182 OA
BRANCH  14  17
HETATM   17  N1  UNL     1      15.163 -11.459  21.462  1.00  0.00    -0.278 N
HETATM   18  C1  UNL     1      14.514 -12.691  21.653  1.00  0.00     0.170 C
BRANCH  17  19
HETATM   19  C2  UNL     1      14.404 -10.272  21.476  1.00  0.00     0.081 C
BRANCH  19  20
HETATM   20  C3  UNL     1      12.910 -10.438  21.517  1.00  0.00     0.025 A
HETATM   21  C4  UNL     1      12.117 -10.065  22.718  1.00  0.00     0.010 A
HETATM   22  C5  UNL     1      12.101  -9.121  21.546  1.00  0.00     0.010 A
ENDBRANCH  19  20
ENDBRANCH  17  19
ENDBRANCH  14  17
ENDBRANCH  12  14
ENDBRANCH   1  12
BRANCH   9  23
HETATM   23  C15 UNL     1      21.771 -12.718  24.055  1.00  0.00     0.239 C
HETATM   24  N3  UNL     1      23.103 -13.124  23.785  1.00  0.00    -0.061 NA
HETATM   25  O3  UNL     1      21.559 -11.946  25.013  1.00  0.00    -0.276 OA
ENDBRANCH   9  23
TORSDOF 6
ENDMDL