MODEL 2
REMARK VINA RESULT: -7.268217392      1.213      1.630
REMARK  10 active torsions:
REMARK  status: ('A' for Active; 'I' for Inactive)
REMARK    1  A    between atoms: C3_3  and  N1_4
REMARK    2  A    between atoms: N1_4  and  C5_6
REMARK    3  A    between atoms: C5_6  and  C6_7
REMARK    4  A    between atoms: C7_8  and  C8_9
REMARK    5  A    between atoms: C10_13  and  N3_14
REMARK    6  A    between atoms: N3_14  and  C11_16
REMARK    7  A    between atoms: C13_18  and  N4_19
REMARK       I    between atoms: N4_19  and  C14_21
REMARK    8  A    between atoms: C14_21  and  C15_23
REMARK    9  A    between atoms: C15_23  and  C16_24
REMARK   10  A    between atoms: C16_24  and  C17_25
ROOT
HETATM    1  C1  UNL     1      20.754 -11.904  26.585  1.00  0.00     0.013 C
HETATM    2  C2  UNL     1      21.165 -12.957  26.129  1.00  0.00    -0.087 C
HETATM    3  C3  UNL     1      21.674 -14.224  25.604  1.00  0.00     0.365 C
ENDROOT
BRANCH   3   4
HETATM    4  N1  UNL     1      21.187 -14.407  24.236  1.00  0.00     0.105 N
HETATM    5  C4  UNL     1      21.592 -15.688  23.735  1.00  0.00     0.312 C
BRANCH   4   6
HETATM    6  C5  UNL     1      21.709 -13.337  23.442  1.00  0.00     0.366 C
BRANCH   6   7
HETATM    7  C6  UNL     1      20.706 -12.975  22.432  1.00  0.00    -0.069 C
HETATM    8  C7  UNL     1      19.857 -12.663  21.607  1.00  0.00    -0.046 C
BRANCH   8   9
HETATM    9  C8  UNL     1      18.860 -12.274  20.651  1.00  0.00     0.104 A
HETATM   10  C9  UNL     1      19.178 -11.559  19.518  1.00  0.00     0.128 A
HETATM   11  N2  UNL     1      18.262 -11.175  18.594  1.00  0.00    -0.347 N
HETATM   12  C10 UNL     1      16.978 -11.509  18.794  1.00  0.00     0.146 A
ATOM     13  H2  UNL     1      18.542 -10.646  17.768  1.00  0.00     0.167 HD
HETATM   14  C13 UNL     1      16.603 -12.240  19.938  1.00  0.00     0.153 A
HETATM   15  N5  UNL     1      17.548 -12.591  20.814  1.00  0.00    -0.331 N
ATOM     16  H5  UNL     1      17.274 -13.120  21.642  1.00  0.00     0.168 HD
BRANCH  12  17
HETATM   17  N3  UNL     1      16.108 -11.151  17.934  1.00  0.00    -0.374 N
ATOM     18  H3  UNL     1      15.180 -10.893  18.268  1.00  0.00     0.161 HD
BRANCH  17  19
HETATM   19  C11 UNL     1      16.360 -11.090  16.517  1.00  0.00     0.117 C
HETATM   20  C12 UNL     1      15.088 -11.153  15.686  1.00  0.00     0.026 C
ENDBRANCH  17  19
ENDBRANCH  12  17
BRANCH  14  21
HETATM   21  N4  UNL     1      15.377 -12.510  20.046  1.00  0.00    -0.310 N
HETATM   22  C14 UNL     1      14.475 -12.070  21.031  1.00  0.00     0.223 C
HETATM   23  O1  UNL     1      14.777 -12.150  22.234  1.00  0.00    -0.273 OA
ATOM     24  H4  UNL     1      14.992 -13.124  19.330  1.00  0.00     0.170 HD
BRANCH  22  25
HETATM   25  C15 UNL     1      13.147 -11.506  20.654  1.00  0.00     0.104 C
BRANCH  25  26
HETATM   26  C16 UNL     1      12.430 -11.107  21.922  1.00  0.00     0.026 C
BRANCH  26  27
HETATM   27  C17 UNL     1      12.190  -9.610  21.967  1.00  0.00     0.060 C
HETATM   28  C18 UNL     1      13.463  -8.882  21.618  1.00  0.00     0.023 C
HETATM   29  C19 UNL     1      11.688  -9.247  23.287  1.00  0.00    -0.113 C
HETATM   30  C20 UNL     1      11.284  -8.952  24.379  1.00  0.00     0.012 C
ENDBRANCH  26  27
ENDBRANCH  25  26
ENDBRANCH  22  25
ENDBRANCH  14  21
ENDBRANCH   8   9
ENDBRANCH   6   7
ENDBRANCH   4   6
ENDBRANCH   3   4
TORSDOF 10
ENDMDL