MODEL 1
REMARK VINA RESULT: -7.211056133      0.000      0.000
REMARK  7 active torsions:
REMARK  status: ('A' for Active; 'I' for Inactive)
REMARK    1  A    between atoms: C2_2  and  C3_3
REMARK    2  A    between atoms: C3_3  and  N1_4
REMARK    3  A    between atoms: N1_4  and  C4_5
REMARK    4  A    between atoms: C4_5  and  C5_6
REMARK    5  A    between atoms: C6_7  and  C7_8
REMARK    6  A    between atoms: C8_9  and  O1_10
REMARK    7  A    between atoms: N3_14  and  C9_15
ROOT
HETATM    1  C7  UNL     1      17.417 -12.741  20.937  1.00  0.00     0.159 C
HETATM    2  C8  UNL     1      16.183 -12.495  21.817  1.00  0.00     0.259 C
HETATM    3  N2  UNL     1      15.867 -11.092  21.877  1.00  0.00    -0.307 N
ATOM      4  H2  UNL     1      16.371 -10.447  22.484  1.00  0.00     0.183 HD
HETATM    5  N3  UNL     1      14.841 -10.680  21.062  1.00  0.00    -0.317 N
HETATM    6  C12 UNL     1      14.888 -11.142  19.712  1.00  0.00     0.245 C
HETATM    7  C13 UNL     1      16.293 -11.137  19.253  1.00  0.00     0.239 C
HETATM    8  O2  UNL     1      16.594 -10.410  18.279  1.00  0.00    -0.271 OA
HETATM    9  N4  UNL     1      17.378 -11.869  19.783  1.00  0.00    -0.343 N
HETATM   10  C14 UNL     1      18.630 -11.735  19.084  1.00  0.00     0.153 C
ENDROOT
BRANCH   1  11
HETATM   11  C6  UNL     1      18.636 -12.425  21.723  1.00  0.00     0.000 C
HETATM   12  C5  UNL     1      19.544 -13.348  22.031  1.00  0.00    -0.001 C
BRANCH  12  13
HETATM   13  C4  UNL     1      20.753 -13.055  22.805  1.00  0.00     0.264 C
BRANCH  13  14
HETATM   14  N1  UNL     1      20.954 -13.940  23.949  1.00  0.00    -0.064 N
HETATM   15  C15 UNL     1      21.754 -15.065  23.490  1.00  0.00     0.238 C
HETATM   16  C16 UNL     1      22.074 -16.019  24.614  1.00  0.00     0.028 C
HETATM   17  C17 UNL     1      20.965 -16.221  25.587  1.00  0.00     0.003 C
HETATM   18  C18 UNL     1      19.665 -15.754  25.041  1.00  0.00     0.028 C
HETATM   19  C19 UNL     1      19.680 -14.451  24.327  1.00  0.00     0.238 C
BRANCH  14  20
HETATM   20  C3  UNL     1      21.705 -13.236  24.916  1.00  0.00     0.237 C
BRANCH  20  21
HETATM   21  C2  UNL     1      21.167 -11.936  25.392  1.00  0.00     0.023 C
HETATM   22  C1  UNL     1      20.788 -12.048  26.857  1.00  0.00     0.007 C
ENDBRANCH  20  21
ENDBRANCH  14  20
ENDBRANCH  13  14
ENDBRANCH  12  13
ENDBRANCH   1  11
BRANCH   2  23
HETATM   23  O1  UNL     1      16.556 -12.901  23.100  1.00  0.00    -0.373 OA
ATOM     24  H1  UNL     1      16.993 -13.737  22.982  1.00  0.00     0.212 HD
ENDBRANCH   2  23
BRANCH   5  25
HETATM   25  C9  UNL     1      13.564 -10.608  21.651  1.00  0.00     0.094 C
HETATM   26  C10 UNL     1      12.583 -11.661  21.130  1.00  0.00     0.033 C
HETATM   27  C11 UNL     1      12.887  -9.277  21.573  1.00  0.00     0.033 C
ENDBRANCH   5  25
TORSDOF 7
ENDMDL