MODEL 5
REMARK VINA RESULT: -6.539993778      1.230      1.674
REMARK  8 active torsions:
REMARK  status: ('A' for Active; 'I' for Inactive)
REMARK    1  A    between atoms: N1_2  and  C3_4
REMARK    2  A    between atoms: C3_4  and  C4_5
REMARK       I    between atoms: C4_5  and  N2_7
REMARK    3  A    between atoms: C5_9  and  N3_10
REMARK    4  A    between atoms: C5_9  and  O2_18
REMARK    5  A    between atoms: N3_10  and  C6_12
REMARK    6  A    between atoms: C6_12  and  C7_13
REMARK    7  A    between atoms: C7_13  and  N4_14
REMARK    8  A    between atoms: O2_18  and  C11_19
ROOT
HETATM    1  C4  UNL     1      14.881 -10.268  20.728  1.00  0.00     0.253 C
HETATM    2  O1  UNL     1      15.254  -9.103  20.475  1.00  0.00    -0.271 OA
HETATM    3  N2  UNL     1      15.777 -11.267  21.109  1.00  0.00    -0.291 N
ATOM      4  H2  UNL     1      15.717 -11.597  22.072  1.00  0.00     0.172 HD
HETATM    5  C5  UNL     1      16.643 -11.796  20.387  1.00  0.00     0.222 C
ENDROOT
BRANCH   5   6
HETATM    6  N3  UNL     1      16.887 -11.475  19.012  1.00  0.00    -0.354 N
ATOM      7  H3  UNL     1      17.643 -10.842  18.747  1.00  0.00     0.163 HD
BRANCH   6   8
HETATM    8  C6  UNL     1      16.030 -12.074  18.010  1.00  0.00     0.151 C
BRANCH   8   9
HETATM    9  C7  UNL     1      15.389 -11.126  17.069  1.00  0.00     0.255 C
BRANCH   9  10
HETATM   10  N4  UNL     1      15.799 -11.152  15.709  1.00  0.00    -0.077 N
HETATM   11  C8  UNL     1      14.929 -10.271  14.901  1.00  0.00     0.271 C
HETATM   12  C9  UNL     1      17.149 -10.607  15.622  1.00  0.00     0.271 C
HETATM   13  C10 UNL     1      15.818 -12.432  15.072  1.00  0.00     0.271 C
ENDBRANCH   9  10
ENDBRANCH   8   9
ENDBRANCH   6   8
ENDBRANCH   5   6
BRANCH   5  14
HETATM   14  O2  UNL     1      17.433 -12.792  21.005  1.00  0.00    -0.316 OA
BRANCH  14  15
HETATM   15  C11 UNL     1      18.720 -12.510  21.523  1.00  0.00     0.141 C
HETATM   16  C12 UNL     1      19.739 -13.051  20.568  1.00  0.00     0.034 C
HETATM   17  C13 UNL     1      20.154 -14.397  21.104  1.00  0.00     0.009 C
HETATM   18  C14 UNL     1      19.607 -14.482  22.492  1.00  0.00     0.005 A
HETATM   19  C15 UNL     1      20.111 -13.484  23.514  1.00  0.00    -0.033 A
HETATM   20  C18 UNL     1      18.851 -13.267  22.815  1.00  0.00    -0.006 A
HETATM   21  C16 UNL     1      21.357 -12.688  23.203  1.00  0.00     0.016 C
HETATM   22  C17 UNL     1      19.995 -13.990  24.942  1.00  0.00     0.016 C
HETATM   23  C19 UNL     1      17.565 -13.317  23.628  1.00  0.00     0.019 C
ENDBRANCH  14  15
ENDBRANCH   5  14
BRANCH   1  24
HETATM   24  C3  UNL     1      13.430 -10.579  20.618  1.00  0.00     0.373 C
BRANCH  24  25
HETATM   25  N1  UNL     1      12.777 -10.812  21.875  1.00  0.00     0.088 N
HETATM   26  C1  UNL     1      11.956 -12.008  21.720  1.00  0.00     0.310 C
HETATM   27  C2  UNL     1      11.866  -9.735  22.186  1.00  0.00     0.310 C
ENDBRANCH  24  25
ENDBRANCH   1  24
TORSDOF 8
ENDMDL