MODEL 1
REMARK VINA RESULT: -7.002524622      0.000      0.000
REMARK  6 active torsions:
REMARK  status: ('A' for Active; 'I' for Inactive)
REMARK    1  A    between atoms: C2_2  and  C3_3
REMARK    2  A    between atoms: C3_3  and  N1_5
REMARK       I    between atoms: C5_7  and  N3_9
REMARK    3  A    between atoms: N4_15  and  C11_16
REMARK    4  A    between atoms: C11_16  and  C12_17
REMARK    5  A    between atoms: C12_17  and  N5_18
REMARK    6  A    between atoms: N5_18  and  S1_20
ROOT
HETATM    1  N1  UNL     1      19.932 -13.182  23.683  1.00  0.00    -0.360 N
ATOM      2  H1  UNL     1      19.690 -12.392  23.086  1.00  0.00     0.162 HD
HETATM    3  C5  UNL     1      19.125 -14.133  23.584  1.00  0.00     0.194 C
HETATM    4  N2  UNL     1      19.316 -15.317  24.350  1.00  0.00    -0.063 NA
HETATM    5  N3  UNL     1      18.012 -14.049  22.711  1.00  0.00    -0.273 N
HETATM    6  C6  UNL     1      17.109 -15.141  22.612  1.00  0.00     0.147 C
HETATM    7  C7  UNL     1      16.216 -15.146  21.435  1.00  0.00    -0.015 C
HETATM    8  C8  UNL     1      16.799 -16.089  20.382  1.00  0.00     0.018 C
HETATM    9  C9  UNL     1      14.889 -15.775  21.862  1.00  0.00     0.018 C
HETATM   10  C10 UNL     1      15.906 -13.836  20.804  1.00  0.00     0.137 C
HETATM   11  N4  UNL     1      16.944 -12.863  20.854  1.00  0.00    -0.331 N
HETATM   12  C14 UNL     1      17.842 -12.864  21.960  1.00  0.00     0.327 C
HETATM   13  O3  UNL     1      18.450 -11.803  22.223  1.00  0.00    -0.247 OA
ENDROOT
BRANCH   1  14
HETATM   14  C3  UNL     1      21.096 -12.965  24.437  1.00  0.00     0.079 C
HETATM   15  C4  UNL     1      22.377 -13.013  23.628  1.00  0.00     0.032 C
BRANCH  14  16
HETATM   16  C2  UNL     1      21.089 -11.755  25.340  1.00  0.00     0.020 C
HETATM   17  C1  UNL     1      20.788 -12.179  26.770  1.00  0.00     0.007 C
ENDBRANCH  14  16
ENDBRANCH   1  14
BRANCH  11  18
HETATM   18  C11 UNL     1      17.054 -11.903  19.778  1.00  0.00     0.148 C
BRANCH  18  19
HETATM   19  C12 UNL     1      15.750 -11.206  19.472  1.00  0.00     0.151 C
BRANCH  19  20
HETATM   20  N5  UNL     1      15.624 -10.083  20.371  1.00  0.00    -0.318 N
ATOM     21  H5  UNL     1      16.415  -9.596  20.792  1.00  0.00     0.172 HD
BRANCH  20  22
HETATM   22  S1  UNL     1      13.967  -9.666  20.645  1.00  0.00     0.222 S
HETATM   23  C13 UNL     1      13.026 -11.190  20.771  1.00  0.00     0.185 C
HETATM   24  O1  UNL     1      13.900  -8.999  21.990  1.00  0.00    -0.206 OA
HETATM   25  O2  UNL     1      13.424  -8.827  19.552  1.00  0.00    -0.206 OA
ENDBRANCH  20  22
ENDBRANCH  19  20
ENDBRANCH  18  19
ENDBRANCH  11  18
TORSDOF 6
ENDMDL