MODEL 1
REMARK VINA RESULT: -6.610195020      0.000      0.000
REMARK  6 active torsions:
REMARK  status: ('A' for Active; 'I' for Inactive)
REMARK       I    between atoms: N1_2  and  C2_4
REMARK       I    between atoms: C2_4  and  N3_8
REMARK    1  A    between atoms: N4_11  and  C4_12
REMARK    2  A    between atoms: C4_12  and  C5_13
REMARK    3  A    between atoms: C5_13  and  C6_14
REMARK    4  A    between atoms: C6_14  and  C7_15
REMARK    5  A    between atoms: C7_15  and  C8_16
REMARK    6  A    between atoms: C8_16  and  S1_17
ROOT
HETATM    1  C1  UNL     1      17.848 -15.651  24.943  1.00  0.00     0.165 C
HETATM    2  N1  UNL     1      19.077 -15.615  24.190  1.00  0.00    -0.231 N
ATOM      3  H1  UNL     1      19.965 -15.483  24.675  1.00  0.00     0.177 HD
HETATM    4  C2  UNL     1      19.060 -15.762  22.783  1.00  0.00     0.679 C
HETATM    5  N2  UNL     1      19.572 -16.804  22.233  1.00  0.00    -0.234 N
ATOM      6  H21 UNL     1      19.560 -16.909  21.219  1.00  0.00     0.174 HD
ATOM      7  H22 UNL     1      19.988 -17.522  22.826  1.00  0.00     0.174 HD
HETATM    8  N3  UNL     1      18.471 -14.746  21.944  1.00  0.00    -0.106 N
HETATM    9  C3  UNL     1      17.383 -14.887  21.038  1.00  0.00     0.347 C
HETATM   10  O1  UNL     1      16.966 -15.981  20.566  1.00  0.00    -0.246 OA
HETATM   11  N4  UNL     1      16.872 -13.571  20.777  1.00  0.00    -0.267 N
HETATM   12  C11 UNL     1      17.667 -12.652  21.537  1.00  0.00     0.265 C
HETATM   13  O2  UNL     1      17.284 -11.491  21.788  1.00  0.00    -0.269 OA
HETATM   14  C12 UNL     1      18.896 -13.382  21.882  1.00  0.00     0.204 C
HETATM   15  C13 UNL     1      19.680 -12.873  23.009  1.00  0.00     0.166 C
HETATM   16  O3  UNL     1      19.539 -12.463  24.161  1.00  0.00    -0.295 OA
HETATM   17  C14 UNL     1      20.914 -13.033  22.190  1.00  0.00     0.089 C
HETATM   18  C15 UNL     1      20.044 -13.085  20.955  1.00  0.00     0.035 C
HETATM   19  C16 UNL     1      19.935 -11.731  20.274  1.00  0.00     0.014 C
ENDROOT
BRANCH  11  20
HETATM   20  C4  UNL     1      15.768 -13.334  19.903  1.00  0.00     0.137 C
BRANCH  20  21
HETATM   21  C5  UNL     1      15.975 -12.277  18.882  1.00  0.00     0.020 C
BRANCH  21  22
HETATM   22  C6  UNL     1      15.023 -11.136  19.173  1.00  0.00     0.002 C
BRANCH  22  23
HETATM   23  C7  UNL     1      14.038 -11.480  20.268  1.00  0.00     0.009 C
BRANCH  23  24
HETATM   24  C8  UNL     1      13.978 -10.286  21.197  1.00  0.00     0.062 C
BRANCH  24  25
HETATM   25  S1  UNL     1      12.326  -9.974  21.764  1.00  0.00    -0.228 SA
HETATM   26  C9  UNL     1      11.699 -11.524  22.408  1.00  0.00     0.078 C
HETATM   27  C10 UNL     1      12.367  -8.841  23.146  1.00  0.00     0.078 C
ENDBRANCH  24  25
ENDBRANCH  23  24
ENDBRANCH  22  23
ENDBRANCH  21  22
ENDBRANCH  20  21
ENDBRANCH  11  20
TORSDOF 6
ENDMDL