MODEL 3
REMARK VINA RESULT: -6.129745688      3.943      6.135
REMARK  9 active torsions:
REMARK  status: ('A' for Active; 'I' for Inactive)
REMARK    1  A    between atoms: C2_2  and  C3_3
REMARK    2  A    between atoms: C3_3  and  C4_4
REMARK    3  A    between atoms: C3_3  and  N1_6
REMARK    4  A    between atoms: N2_10  and  C8_11
REMARK    5  A    between atoms: C11_14  and  C12_15
REMARK    6  A    between atoms: C11_14  and  C19_22
REMARK    7  A    between atoms: C13_16  and  C14_17
REMARK    8  A    between atoms: C15_18  and  C16_19
REMARK    9  A    between atoms: C19_22  and  N3_23
ROOT
HETATM    1  N1  UNL     1      19.514 -14.378  23.577  1.00  0.00    -0.358 N
HETATM    2  C6  UNL     1      18.749 -15.446  24.054  1.00  0.00     0.162 C
HETATM    3  C7  UNL     1      17.702 -15.920  23.102  1.00  0.00     0.258 C
HETATM    4  O1  UNL     1      16.562 -16.223  23.501  1.00  0.00    -0.267 OA
HETATM    5  N2  UNL     1      18.064 -16.010  21.715  1.00  0.00    -0.344 N
HETATM    6  C10 UNL     1      19.241 -15.224  21.376  1.00  0.00     0.172 C
HETATM    7  C11 UNL     1      19.263 -13.963  22.277  1.00  0.00     0.129 C
ENDROOT
BRANCH   7   8
HETATM    8  C12 UNL     1      17.904 -13.401  22.089  1.00  0.00    -0.057 C
HETATM    9  C13 UNL     1      16.792 -12.938  21.914  1.00  0.00    -0.012 C
BRANCH   9  10
HETATM   10  C14 UNL     1      15.505 -12.400  21.685  1.00  0.00    -0.015 C
HETATM   11  C15 UNL     1      14.403 -11.948  21.468  1.00  0.00    -0.088 C
BRANCH  11  12
HETATM   12  C16 UNL     1      13.054 -11.411  21.181  1.00  0.00     0.066 A
HETATM   13  C17 UNL     1      11.981 -11.797  22.119  1.00  0.00     0.018 A
HETATM   14  C18 UNL     1      12.514 -10.388  22.162  1.00  0.00     0.018 A
ENDBRANCH  11  12
ENDBRANCH   9  10
ENDBRANCH   7   8
BRANCH   7  15
HETATM   15  C19 UNL     1      20.226 -13.050  21.601  1.00  0.00     0.168 C
BRANCH  15  16
HETATM   16  N3  UNL     1      19.947 -12.817  20.199  1.00  0.00    -0.364 N
HETATM   17  C20 UNL     1      20.342 -11.756  19.585  1.00  0.00     0.197 C
HETATM   18  N4  UNL     1      21.074 -10.799  20.336  1.00  0.00    -0.067 NA
HETATM   19  N5  UNL     1      20.087 -11.501  18.223  1.00  0.00    -0.067 NA
ATOM     20  H3  UNL     1      19.419 -13.519  19.679  1.00  0.00     0.161 HD
ENDBRANCH  15  16
ENDBRANCH   7  15
BRANCH   1  21
HETATM   21  C3  UNL     1      20.399 -13.728  24.408  1.00  0.00     0.085 C
BRANCH  21  22
HETATM   22  C2  UNL     1      21.336 -14.676  25.123  1.00  0.00     0.021 C
HETATM   23  C1  UNL     1      22.558 -15.076  24.392  1.00  0.00     0.007 C
ENDBRANCH  21  22
BRANCH  21  24
HETATM   24  C4  UNL     1      19.832 -12.726  25.411  1.00  0.00     0.021 C
HETATM   25  C5  UNL     1      20.871 -12.211  26.370  1.00  0.00     0.007 C
ENDBRANCH  21  24
ENDBRANCH   1  21
BRANCH   5  26
HETATM   26  C8  UNL     1      17.305 -16.811  20.799  1.00  0.00     0.122 C
HETATM   27  C9  UNL     1      16.280 -15.973  20.036  1.00  0.00     0.026 C
ENDBRANCH   5  26
TORSDOF 9
ENDMDL