MODEL 1
REMARK VINA RESULT: -8.373204498      0.000      0.000
REMARK  8 active torsions:
REMARK  status: ('A' for Active; 'I' for Inactive)
REMARK    1  A    between atoms: O1_2  and  C2_3
REMARK    2  A    between atoms: C5_6  and  C6_7
REMARK    3  A    between atoms: C6_7  and  N1_8
REMARK    4  A    between atoms: C9_17  and  S1_18
REMARK    5  A    between atoms: S1_18  and  N5_21
REMARK    6  A    between atoms: N5_21  and  N6_23
REMARK    7  A    between atoms: C10_28  and  O4_29
REMARK    8  A    between atoms: C12_31  and  O5_32
ROOT
HETATM    1  N1  UNL     1      10.367  10.355  -1.817  1.00  0.00    -0.222 N
ATOM      2  H1  UNL     1       9.600   9.723  -1.586  1.00  0.00     0.178 HD
HETATM    3  C7  UNL     1      11.234  10.659  -0.887  1.00  0.00     0.682 A
HETATM    4  N2  UNL     1      12.263  11.488  -1.136  1.00  0.00    -0.163 N
ATOM      5  H2  UNL     1      12.373  11.889  -2.067  1.00  0.00     0.187 HD
HETATM    6  C8  UNL     1      13.161  11.797  -0.157  1.00  0.00     0.208 A
HETATM    7  N3  UNL     1      14.241  12.675  -0.449  1.00  0.00    -0.063 NA
HETATM    8  N4  UNL     1      13.015  11.268   1.072  1.00  0.00    -0.305 N
ATOM      9  H4  UNL     1      13.687  11.500   1.804  1.00  0.00     0.170 HD
HETATM   10  C9  UNL     1      11.993  10.437   1.344  1.00  0.00     0.242 A
HETATM   11  N7  UNL     1      11.141  10.163   0.359  1.00  0.00    -0.164 N
ATOM     12  H7  UNL     1      10.365   9.534   0.563  1.00  0.00     0.186 HD
ENDROOT
BRANCH   1  13
HETATM   13  C6  UNL     1      10.453  10.874  -3.144  1.00  0.00     0.179 C
BRANCH  13  14
HETATM   14  C5  UNL     1       9.108  10.825  -3.763  1.00  0.00    -0.004 A
HETATM   15  C4  UNL     1       8.193   9.814  -3.550  1.00  0.00     0.014 A
HETATM   16  C3  UNL     1       6.950   9.808  -4.148  1.00  0.00     0.040 A
HETATM   17  C2  UNL     1       6.588  10.836  -4.988  1.00  0.00     0.104 A
HETATM   18  C12 UNL     1       7.487  11.844  -5.207  1.00  0.00     0.135 A
HETATM   19  C10 UNL     1       8.725  11.841  -4.605  1.00  0.00     0.112 A
BRANCH  17  20
HETATM   20  O1  UNL     1       5.320  10.836  -5.601  1.00  0.00    -0.353 OA
HETATM   21  C1  UNL     1       4.547   9.670  -5.686  1.00  0.00     0.210 C
ENDBRANCH  17  20
BRANCH  18  22
HETATM   22  O5  UNL     1       7.137  12.890  -6.052  1.00  0.00    -0.351 OA
HETATM   23  C13 UNL     1       7.421  12.788  -7.419  1.00  0.00     0.210 C
ENDBRANCH  18  22
BRANCH  19  24
HETATM   24  O4  UNL     1       9.643  12.871  -4.829  1.00  0.00    -0.352 OA
HETATM   25  C11 UNL     1       9.464  14.078  -4.135  1.00  0.00     0.210 C
ENDBRANCH  19  24
ENDBRANCH  13  14
ENDBRANCH   1  13
BRANCH  10  26
HETATM   26  S1  UNL     1      11.770   9.728   2.935  1.00  0.00     0.308 S
HETATM   27  O2  UNL     1      11.499  10.862   3.910  1.00  0.00    -0.196 OA
HETATM   28  O3  UNL     1      13.020   9.027   3.374  1.00  0.00    -0.196 OA
BRANCH  26  29
HETATM   29  N5  UNL     1      10.476   8.626   2.954  1.00  0.00    -0.227 N
ATOM     30  H5  UNL     1       9.585   8.787   2.485  1.00  0.00     0.199 HD
BRANCH  29  31
HETATM   31  N6  UNL     1      10.777   7.473   3.686  1.00  0.00    -0.336 N
ATOM     32  H62 UNL     1      11.732   7.180   3.895  1.00  0.00     0.177 HD
ATOM     33  H61 UNL     1       9.937   6.974   3.979  1.00  0.00     0.177 HD
ENDBRANCH  29  31
ENDBRANCH  26  29
ENDBRANCH  10  26
TORSDOF 8
ENDMDL