MODEL 3
REMARK VINA RESULT: -7.360431758      1.373      1.662
REMARK  12 active torsions:
REMARK  status: ('A' for Active; 'I' for Inactive)
REMARK    1  A    between atoms: C2_2  and  C3_3
REMARK    2  A    between atoms: C3_3  and  O1_4
REMARK    3  A    between atoms: C5_9  and  N1_10
REMARK    4  A    between atoms: C5_9  and  C6_14
REMARK       I    between atoms: C6_14  and  N2_16
REMARK    5  A    between atoms: N2_16  and  C7_18
REMARK    6  A    between atoms: C7_18  and  C8_19
REMARK    7  A    between atoms: C7_18  and  C10_32
REMARK    8  A    between atoms: N3_20  and  O5_22
REMARK    9  A    between atoms: O5_22  and  C9_23
REMARK   10  A    between atoms: C9_23  and  N4_24
REMARK   11  A    between atoms: C9_23  and  N5_28
REMARK   12  A    between atoms: C14_36  and  N6_37
ROOT
HETATM    1  C6  UNL     1       9.546  11.958  -3.909  1.00  0.00     0.282 C
HETATM    2  O4  UNL     1      10.387  11.956  -4.838  1.00  0.00    -0.268 OA
HETATM    3  N2  UNL     1       9.963  12.395  -2.646  1.00  0.00    -0.347 N
ATOM      4  H2  UNL     1       9.285  12.401  -1.884  1.00  0.00     0.163 HD
ENDROOT
BRANCH   1   5
HETATM    5  C5  UNL     1       8.164  11.497  -4.206  1.00  0.00     0.314 C
HETATM    6  O3  UNL     1       7.489  12.545  -4.861  1.00  0.00    -0.271 OA
HETATM    7  C4  UNL     1       6.942  12.427  -6.122  1.00  0.00     0.298 C
HETATM    8  C3  UNL     1       7.250  11.226  -6.887  1.00  0.00     0.171 C
HETATM    9  O2  UNL     1       6.212  13.319  -6.577  1.00  0.00    -0.262 OA
HETATM   10  C14 UNL     1       7.071  10.043  -5.973  1.00  0.00     0.205 C
HETATM   11  C13 UNL     1       8.110  10.187  -4.885  1.00  0.00     0.115 C
BRANCH   8  12
HETATM   12  C2  UNL     1       6.584  11.122  -8.210  1.00  0.00     0.046 C
HETATM   13  C1  UNL     1       7.467  11.066  -9.402  1.00  0.00     0.009 C
ENDBRANCH   8  12
BRANCH   8  14
HETATM   14  O1  UNL     1       8.643  11.287  -7.154  1.00  0.00    -0.377 OA
ATOM     15  H1  UNL     1       8.945  12.109  -6.787  1.00  0.00     0.211 HD
ENDBRANCH   8  14
BRANCH  10  16
HETATM   16  N6  UNL     1       5.753   9.895  -5.436  1.00  0.00    -0.147 N
HETATM   17  O6  UNL     1       5.523   8.974  -4.598  1.00  0.00    -0.536 OA
HETATM   18  O7  UNL     1       4.685  10.679  -5.751  1.00  0.00    -0.536 OA
ENDBRANCH  10  16
BRANCH   5  19
HETATM   19  N1  UNL     1       7.500  11.357  -2.900  1.00  0.00    -0.037 N
ATOM     20  H13 UNL     1       6.497  11.539  -2.929  1.00  0.00     0.278 HD
ATOM     21  H12 UNL     1       7.438  10.393  -2.573  1.00  0.00     0.278 HD
ATOM     22  H11 UNL     1       8.010  11.973  -2.267  1.00  0.00     0.278 HD
ENDBRANCH   5  19
ENDBRANCH   1   5
BRANCH   3  23
HETATM   23  C7  UNL     1      11.310  12.838  -2.377  1.00  0.00     0.128 C
BRANCH  23  24
HETATM   24  C8  UNL     1      11.844  12.295  -1.116  1.00  0.00     0.112 C
HETATM   25  N3  UNL     1      11.401  11.198  -0.616  1.00  0.00    -0.276 N
ATOM     26  H3  UNL     1      10.662  10.705  -1.117  1.00  0.00     0.193 HD
BRANCH  25  27
HETATM   27  O5  UNL     1      11.860  10.654   0.547  1.00  0.00    -0.220 OA
BRANCH  27  28
HETATM   28  C9  UNL     1      11.067  10.588   1.722  1.00  0.00     0.542 C
BRANCH  28  29
HETATM   29  N4  UNL     1       9.660  10.824   1.410  1.00  0.00    -0.025 N
ATOM     30  H43 UNL     1       9.549  11.480   0.637  1.00  0.00     0.279 HD
ATOM     31  H42 UNL     1       9.226  10.007   0.981  1.00  0.00     0.279 HD
ATOM     32  H41 UNL     1       9.152  11.130   2.241  1.00  0.00     0.279 HD
ENDBRANCH  28  29
BRANCH  28  33
HETATM   33  N5  UNL     1      11.179   9.339   2.423  1.00  0.00    -0.025 N
ATOM     34  H53 UNL     1      10.771   8.580   1.876  1.00  0.00     0.279 HD
ATOM     35  H52 UNL     1      12.149   9.026   2.450  1.00  0.00     0.279 HD
ATOM     36  H51 UNL     1      10.781   9.360   3.362  1.00  0.00     0.279 HD
ENDBRANCH  28  33
ENDBRANCH  27  28
ENDBRANCH  25  27
ENDBRANCH  23  24
BRANCH  23  37
HETATM   37  C10 UNL     1      11.392  14.365  -2.368  1.00  0.00     0.005 C
HETATM   38  C11 UNL     1      12.042  14.878  -1.125  1.00  0.00     0.012 C
HETATM   39  C12 UNL     1      12.190  14.789  -3.596  1.00  0.00     0.012 C
ENDBRANCH  23  37
ENDBRANCH   3  23
TORSDOF 12
ENDMDL