MODEL 3
REMARK VINA RESULT: -7.770377742      2.832      8.575
REMARK  8 active torsions:
REMARK  status: ('A' for Active; 'I' for Inactive)
REMARK    1  A    between atoms: C3_4  and  O1_5
REMARK    2  A    between atoms: O1_5  and  C4_6
REMARK    3  A    between atoms: C4_6  and  C5_7
REMARK    4  A    between atoms: C5_7  and  O2_8
REMARK    5  A    between atoms: O2_8  and  C6_9
REMARK    6  A    between atoms: C6_9  and  C7_10
REMARK    7  A    between atoms: C7_10  and  O3_11
REMARK    8  A    between atoms: C8_15  and  N3_16
ROOT
HETATM    1  N1  UNL     1      16.044  11.005   1.893  1.00  0.00    -0.191 NA
HETATM    2  C1  UNL     1      15.101  11.132   1.231  1.00  0.00     0.105 C
HETATM    3  C2  UNL     1      13.916  11.279   0.416  1.00  0.00     0.112 A
HETATM    4  C3  UNL     1      14.015  11.751  -0.903  1.00  0.00     0.166 A
HETATM    5  N2  UNL     1      12.884  11.869  -1.617  1.00  0.00    -0.320 N
ATOM      6  H2  UNL     1      12.970  12.213  -2.573  1.00  0.00     0.169 HD
HETATM    7  C8  UNL     1      11.653  11.572  -1.179  1.00  0.00     0.131 A
HETATM    8  C13 UNL     1      11.535  11.108   0.110  1.00  0.00     0.022 A
HETATM    9  C14 UNL     1      12.664  10.970   0.882  1.00  0.00     0.068 A
HETATM   10  C15 UNL     1      12.257  10.466   2.190  1.00  0.00     0.254 A
HETATM   11  O5  UNL     1      13.047  10.226   3.140  1.00  0.00    -0.268 OA
HETATM   12  N7  UNL     1      10.863  10.305   2.182  1.00  0.00    -0.352 N
ATOM     13  H7  UNL     1      10.302   9.966   2.964  1.00  0.00     0.163 HD
HETATM   14  C16 UNL     1      10.345  10.698   0.890  1.00  0.00     0.166 A
ENDROOT
BRANCH   4  15
HETATM   15  O1  UNL     1      15.273  12.051  -1.345  1.00  0.00    -0.332 OA
BRANCH  15  16
HETATM   16  C4  UNL     1      15.767  13.284  -1.816  1.00  0.00     0.203 C
BRANCH  16  17
HETATM   17  C5  UNL     1      15.703  14.399  -0.811  1.00  0.00     0.194 C
BRANCH  17  18
HETATM   18  O2  UNL     1      14.586  15.071  -0.715  1.00  0.00    -0.387 OA
BRANCH  18  19
HETATM   19  C6  UNL     1      13.673  15.467  -1.550  1.00  0.00     0.193 C
BRANCH  19  20
HETATM   20  C7  UNL     1      12.264  15.740  -1.141  1.00  0.00     0.190 C
BRANCH  20  21
HETATM   21  O3  UNL     1      11.753  14.613  -0.421  1.00  0.00    -0.399 OA
ATOM     22  H3  UNL     1      11.103  14.908   0.205  1.00  0.00     0.209 HD
ENDBRANCH  20  21
ENDBRANCH  19  20
ENDBRANCH  18  19
ENDBRANCH  17  18
ENDBRANCH  16  17
ENDBRANCH  15  16
ENDBRANCH   4  15
BRANCH   7  23
HETATM   23  N3  UNL     1      10.495  11.721  -1.992  1.00  0.00    -0.261 N
HETATM   24  C9  UNL     1      10.030  10.913  -3.102  1.00  0.00     0.188 C
HETATM   25  C10 UNL     1       8.554  11.214  -3.148  1.00  0.00     0.162 A
HETATM   26  C11 UNL     1       7.663  10.013  -3.330  1.00  0.00     0.162 A
HETATM   27  C12 UNL     1       8.045  11.793  -4.383  1.00  0.00     0.247 A
HETATM   28  N5  UNL     1       8.347  11.957  -1.931  1.00  0.00    -0.102 NA
HETATM   29  N4  UNL     1       7.260  10.636  -4.594  1.00  0.00    -0.357 N
ATOM     30  H4  UNL     1       6.639  10.343  -5.349  1.00  0.00     0.162 HD
HETATM   31  O4  UNL     1       8.209  12.852  -5.016  1.00  0.00    -0.271 OA
HETATM   32  N6  UNL     1       9.512  12.739  -1.879  1.00  0.00    -0.026 NA
ENDBRANCH   7  23
TORSDOF 8
ENDMDL