MODEL 4
REMARK VINA RESULT: -7.991015756      1.604      1.752
REMARK  10 active torsions:
REMARK  status: ('A' for Active; 'I' for Inactive)
REMARK    1  A    between atoms: N1_1  and  S1_4
REMARK    2  A    between atoms: S1_4  and  O3_7
REMARK    3  A    between atoms: O3_7  and  C1_8
REMARK    4  A    between atoms: C1_8  and  C2_9
REMARK    5  A    between atoms: C2_9  and  O4_10
REMARK    6  A    between atoms: O4_10  and  N2_11
REMARK    7  A    between atoms: N2_11  and  N3_13
REMARK    8  A    between atoms: C5_20  and  C6_21
REMARK    9  A    between atoms: C6_21  and  C7_22
REMARK   10  A    between atoms: C10_25  and  O7_26
ROOT
HETATM    1  N3  UNL     1      11.262  10.935  -2.293  1.00  0.00    -0.147 N
HETATM    2  C3  UNL     1      12.108  10.674  -3.431  1.00  0.00     0.353 A
HETATM    3  O5  UNL     1      13.306  10.390  -3.133  1.00  0.00    -0.244 OA
HETATM    4  N4  UNL     1      11.656  10.727  -4.757  1.00  0.00    -0.273 N
ATOM      5  H4  UNL     1      12.309  10.530  -5.515  1.00  0.00     0.173 HD
HETATM    6  C4  UNL     1      10.278  11.057  -5.072  1.00  0.00     0.265 A
HETATM    7  O6  UNL     1       9.953  11.091  -6.261  1.00  0.00    -0.267 OA
HETATM    8  C5  UNL     1       9.395  11.325  -3.968  1.00  0.00     0.103 A
HETATM    9  C13 UNL     1       9.909  11.258  -2.571  1.00  0.00     0.287 A
HETATM   10  O8  UNL     1       9.086  11.506  -1.626  1.00  0.00    -0.265 OA
ENDROOT
BRANCH   1  11
HETATM   11  N2  UNL     1      11.712  10.915  -1.014  1.00  0.00    -0.194 N
ATOM     12  H2  UNL     1      11.579  10.041  -0.505  1.00  0.00     0.216 HD
BRANCH  11  13
HETATM   13  O4  UNL     1      12.270  11.838  -0.385  1.00  0.00    -0.262 OA
BRANCH  13  14
HETATM   14  C2  UNL     1      13.517  11.865   0.119  1.00  0.00     0.230 C
BRANCH  14  15
HETATM   15  C1  UNL     1      13.527  10.864   1.306  1.00  0.00     0.220 C
BRANCH  15  16
HETATM   16  O3  UNL     1      12.234  10.719   1.805  1.00  0.00    -0.258 OA
BRANCH  16  17
HETATM   17  S1  UNL     1      12.141   9.768   3.161  1.00  0.00     0.355 S
HETATM   18  O1  UNL     1      11.882  10.531   4.422  1.00  0.00    -0.176 OA
HETATM   19  O2  UNL     1      13.408   8.956   3.388  1.00  0.00    -0.176 OA
BRANCH  17  20
HETATM   20  N1  UNL     1      10.846   8.647   2.940  1.00  0.00    -0.306 N
ATOM     21  H12 UNL     1       9.858   8.893   2.885  1.00  0.00     0.171 HD
ATOM     22  H11 UNL     1      11.246   7.711   2.876  1.00  0.00     0.171 HD
ENDBRANCH  17  20
ENDBRANCH  16  17
ENDBRANCH  15  16
ENDBRANCH  14  15
ENDBRANCH  13  14
ENDBRANCH  11  13
ENDBRANCH   1  11
BRANCH   8  23
HETATM   23  C6  UNL     1       8.133  11.621  -4.153  1.00  0.00     0.034 C
BRANCH  23  24
HETATM   24  C7  UNL     1       7.115  10.721  -4.622  1.00  0.00    -0.035 A
HETATM   25  C8  UNL     1       6.130  11.097  -5.534  1.00  0.00     0.014 A
HETATM   26  C9  UNL     1       5.212  10.154  -5.913  1.00  0.00     0.037 A
HETATM   27  C10 UNL     1       5.180   8.839  -5.457  1.00  0.00     0.065 A
HETATM   28  C11 UNL     1       6.167   8.501  -4.555  1.00  0.00     0.037 A
HETATM   29  C12 UNL     1       7.116   9.396  -4.137  1.00  0.00     0.014 A
BRANCH  27  30
HETATM   30  O7  UNL     1       4.199   7.957  -5.907  1.00  0.00    -0.361 OA
ATOM     31  H7  UNL     1       3.290   8.080  -5.658  1.00  0.00     0.217 HD
ENDBRANCH  27  30
ENDBRANCH  23  24
ENDBRANCH   8  23
TORSDOF 10
ENDMDL