MODEL 1
REMARK VINA RESULT: -7.628436891      0.000      0.000
REMARK  8 active torsions:
REMARK  status: ('A' for Active; 'I' for Inactive)
REMARK    1  A    between atoms: O1_2  and  C2_3
REMARK    2  A    between atoms: C5_6  and  N1_7
REMARK    3  A    between atoms: N1_7  and  S1_9
REMARK    4  A    between atoms: S1_9  and  C6_12
REMARK    5  A    between atoms: C7_16  and  N3_17
REMARK    6  A    between atoms: C8_24  and  N5_25
REMARK    7  A    between atoms: N5_25  and  O4_26
REMARK    8  A    between atoms: O4_26  and  S2_27
ROOT
HETATM    1  C6  UNL     1      11.027  10.545  -1.175  1.00  0.00     0.380 C
HETATM    2  N2  UNL     1       9.790  10.252  -1.919  1.00  0.00     0.001 N
ATOM      3  H21 UNL     1       9.670   9.259  -2.122  1.00  0.00     0.283 HD
ATOM      4  H22 UNL     1       9.816  10.581  -2.884  1.00  0.00     0.283 HD
HETATM    5  C7  UNL     1       8.700  10.808  -1.164  1.00  0.00     0.581 C
HETATM    6  N4  UNL     1       9.281  11.511  -0.034  1.00  0.00     0.002 N
ATOM      7  H41 UNL     1       8.659  11.655   0.761  1.00  0.00     0.283 HD
ATOM      8  H42 UNL     1       9.466  12.503  -0.181  1.00  0.00     0.283 HD
HETATM    9  C8  UNL     1      10.448  10.689   0.224  1.00  0.00     0.358 C
ENDROOT
BRANCH   1  10
HETATM   10  S1  UNL     1      11.603  12.106  -1.756  1.00  0.00     0.264 S
HETATM   11  O2  UNL     1      10.464  12.810  -2.471  1.00  0.00    -0.203 OA
HETATM   12  O3  UNL     1      12.705  11.797  -2.770  1.00  0.00    -0.203 OA
BRANCH  10  13
HETATM   13  N1  UNL     1      12.284  13.097  -0.562  1.00  0.00    -0.283 N
ATOM     14  H1  UNL     1      12.106  12.849   0.411  1.00  0.00     0.178 HD
BRANCH  13  15
HETATM   15  C5  UNL     1      13.068  14.226  -0.806  1.00  0.00     0.042 A
HETATM   16  C4  UNL     1      14.421  14.236  -0.700  1.00  0.00     0.033 A
HETATM   17  C3  UNL     1      15.166  15.391  -0.987  1.00  0.00     0.039 A
HETATM   18  C2  UNL     1      14.525  16.529  -1.381  1.00  0.00     0.068 A
HETATM   19  C11 UNL     1      13.157  16.561  -1.501  1.00  0.00     0.039 A
HETATM   20  C10 UNL     1      12.446  15.417  -1.213  1.00  0.00     0.033 A
BRANCH  18  21
HETATM   21  O1  UNL     1      15.300  17.669  -1.662  1.00  0.00    -0.356 OA
HETATM   22  C1  UNL     1      14.722  18.786  -2.334  1.00  0.00     0.210 C
ENDBRANCH  18  21
ENDBRANCH  13  15
ENDBRANCH  10  13
ENDBRANCH   1  10
BRANCH   9  23
HETATM   23  N5  UNL     1      11.386  11.317   1.124  1.00  0.00    -0.045 NA
BRANCH  23  24
HETATM   24  O4  UNL     1      11.031  11.042   2.375  1.00  0.00    -0.158 OA
BRANCH  24  25
HETATM   25  S2  UNL     1      12.140  10.058   3.166  1.00  0.00     0.278 S
HETATM   26  C9  UNL     1      13.626   9.856   2.214  1.00  0.00     0.195 C
HETATM   27  O5  UNL     1      11.477   8.732   3.405  1.00  0.00    -0.198 OA
HETATM   28  O6  UNL     1      12.532  10.618   4.500  1.00  0.00    -0.198 OA
ENDBRANCH  24  25
ENDBRANCH  23  24
ENDBRANCH   9  23
BRANCH   5  29
HETATM   29  N3  UNL     1       7.827  11.651  -1.953  1.00  0.00    -0.026 N
ATOM     30  H33 UNL     1       8.269  12.550  -2.145  1.00  0.00     0.278 HD
ATOM     31  H32 UNL     1       7.744  11.297  -2.905  1.00  0.00     0.278 HD
ATOM     32  H31 UNL     1       6.907  11.783  -1.535  1.00  0.00     0.278 HD
ENDBRANCH   5  29
TORSDOF 8
ENDMDL