MODEL 5
REMARK VINA RESULT: -8.478535608      2.966      4.827
REMARK  11 active torsions:
REMARK  status: ('A' for Active; 'I' for Inactive)
REMARK    1  A    between atoms: C2_2  and  N1_3
REMARK    2  A    between atoms: N1_3  and  C3_5
REMARK    3  A    between atoms: C4_8  and  N3_9
REMARK    4  A    between atoms: N3_9  and  N4_11
REMARK    5  A    between atoms: N4_11  and  N5_12
REMARK    6  A    between atoms: N4_11  and  O1_15
REMARK    7  A    between atoms: C5_19  and  N7_20
REMARK    8  A    between atoms: N7_20  and  N8_22
REMARK    9  A    between atoms: C6_24  and  C7_25
REMARK   10  A    between atoms: C6_24  and  C8_28
REMARK   11  A    between atoms: C11_31  and  N10_32
ROOT
HETATM    1  C3  UNL     1      13.145  10.544   1.516  1.00  0.00     0.707 A
HETATM    2  N2  UNL     1      12.734   9.745   2.517  1.00  0.00    -0.020 N
ATOM      3  H2  UNL     1      13.425   9.205   3.038  1.00  0.00     0.203 HD
HETATM    4  C4  UNL     1      11.424   9.639   2.849  1.00  0.00     0.725 A
HETATM    5  N6  UNL     1      10.528  10.363   2.147  1.00  0.00    -0.019 N
ATOM      6  H6  UNL     1       9.539  10.293   2.387  1.00  0.00     0.203 HD
HETATM    7  C5  UNL     1      10.899  11.170   1.144  1.00  0.00     0.726 A
HETATM    8  N11 UNL     1      12.210  11.241   0.850  1.00  0.00    -0.020 N
ATOM      9  H11 UNL     1      12.507  11.850   0.088  1.00  0.00     0.203 HD
ENDROOT
BRANCH   7  10
HETATM   10  N7  UNL     1       9.997  11.831   0.514  1.00  0.00    -0.130 N
ATOM     11  H7  UNL     1       9.033  11.814   0.848  1.00  0.00     0.205 HD
BRANCH  10  12
HETATM   12  N8  UNL     1      10.318  12.558  -0.602  1.00  0.00    -0.281 N
HETATM   13  C6  UNL     1       9.802  12.367  -1.789  1.00  0.00     0.123 C
ATOM     14  H8  UNL     1      11.008  13.302  -0.499  1.00  0.00     0.188 HD
BRANCH  13  15
HETATM   15  C7  UNL     1       8.841  11.327  -1.917  1.00  0.00     0.283 C
HETATM   16  N9  UNL     1       7.467  11.495  -1.643  1.00  0.00    -0.056 NA
HETATM   17  O2  UNL     1       9.230  10.154  -2.305  1.00  0.00    -0.269 OA
ENDBRANCH  13  15
BRANCH  13  18
HETATM   18  C8  UNL     1      10.286  13.252  -2.829  1.00  0.00    -0.003 A
HETATM   19  C9  UNL     1       9.632  13.607  -3.967  1.00  0.00     0.016 A
HETATM   20  C10 UNL     1      10.202  14.475  -4.904  1.00  0.00     0.037 A
HETATM   21  C11 UNL     1      11.449  15.021  -4.739  1.00  0.00     0.102 A
HETATM   22  C12 UNL     1      12.110  14.660  -3.586  1.00  0.00     0.037 A
HETATM   23  C13 UNL     1      11.561  13.812  -2.664  1.00  0.00     0.016 A
BRANCH  21  24
HETATM   24  N10 UNL     1      12.026  15.902  -5.694  1.00  0.00    -0.116 N
HETATM   25  O3  UNL     1      11.446  16.092  -6.770  1.00  0.00    -0.532 OA
HETATM   26  O4  UNL     1      13.207  16.543  -5.445  1.00  0.00    -0.532 OA
ENDBRANCH  21  24
ENDBRANCH  13  18
ENDBRANCH  10  12
ENDBRANCH   7  10
BRANCH   4  27
HETATM   27  N3  UNL     1      10.963   8.803   3.901  1.00  0.00    -0.108 N
ATOM     28  H3  UNL     1      10.933   9.151   4.859  1.00  0.00     0.203 HD
BRANCH  27  29
HETATM   29  N4  UNL     1      10.551   7.501   3.612  1.00  0.00     0.004 NA
BRANCH  29  30
HETATM   30  N5  UNL     1       9.177   7.417   3.420  1.00  0.00    -0.322 NA
ATOM     31  H52 UNL     1       8.952   7.745   2.481  1.00  0.00     0.175 HD
ATOM     32  H51 UNL     1       8.834   6.461   3.514  1.00  0.00     0.175 HD
ENDBRANCH  29  30
BRANCH  29  33
HETATM   33  O1  UNL     1      10.903   6.704   4.656  1.00  0.00    -0.276 OA
ATOM     34  H1  UNL     1      10.393   6.966   5.414  1.00  0.00     0.241 HD
ENDBRANCH  29  33
ENDBRANCH  27  29
ENDBRANCH   4  27
BRANCH   1  35
HETATM   35  N1  UNL     1      14.407  10.583   1.269  1.00  0.00    -0.225 N
ATOM     36  H1  UNL     1      15.039  10.080   1.890  1.00  0.00     0.177 HD
BRANCH  35  37
HETATM   37  C2  UNL     1      14.970  11.308   0.149  1.00  0.00     0.133 C
HETATM   38  C1  UNL     1      16.446  11.565   0.317  1.00  0.00     0.027 C
ENDBRANCH  35  37
ENDBRANCH   1  35
TORSDOF 11
ENDMDL