MODEL 2
REMARK VINA RESULT: -7.003440289      2.673      7.969
REMARK  9 active torsions:
REMARK  status: ('A' for Active; 'I' for Inactive)
REMARK    1  A    between atoms: C2_2  and  C3_3
REMARK       I    between atoms: C3_3  and  N1_5
REMARK    2  A    between atoms: N1_5  and  N2_7
REMARK       I    between atoms: N2_7  and  C5_9
REMARK    3  A    between atoms: C5_9  and  C6_11
REMARK    4  A    between atoms: C7_15  and  N4_16
REMARK    5  A    between atoms: C8_22  and  C9_23
REMARK    6  A    between atoms: C9_23  and  C10_25
REMARK    7  A    between atoms: C10_25  and  C11_27
REMARK    8  A    between atoms: C11_27  and  O5_29
REMARK    9  A    between atoms: C11_27  and  C13_31
ROOT
HETATM    1  C6  UNL     1      11.414  12.982  -0.305  1.00  0.00     0.347 C
HETATM    2  N3  UNL     1      10.886  11.860   0.447  1.00  0.00    -0.007 N
ATOM      3  H31 UNL     1      10.932  12.051   1.448  1.00  0.00     0.283 HD
ATOM      4  H32 UNL     1      11.523  11.065   0.389  1.00  0.00     0.283 HD
HETATM    5  C7  UNL     1       9.570  11.464   0.080  1.00  0.00     0.481 C
HETATM    6  N5  UNL     1       9.420  10.780  -1.140  1.00  0.00    -0.354 N
ATOM      7  H5  UNL     1       8.790   9.985  -1.240  1.00  0.00     0.158 HD
HETATM    8  C8  UNL     1      10.220  11.276  -2.250  1.00  0.00     0.223 C
HETATM    9  S1  UNL     1      10.494  13.031  -1.926  1.00  0.00    -0.093 SA
ENDROOT
BRANCH   8  10
HETATM   10  C9  UNL     1       9.622  10.946  -3.534  1.00  0.00     0.230 C
HETATM   11  O3  UNL     1      10.420  10.476  -4.422  1.00  0.00    -0.286 OA
BRANCH  10  12
HETATM   12  C10 UNL     1       8.243  11.083  -3.933  1.00  0.00     0.239 C
HETATM   13  O4  UNL     1       7.267  10.760  -3.185  1.00  0.00    -0.285 OA
BRANCH  12  14
HETATM   14  C11 UNL     1       7.854  11.624  -5.275  1.00  0.00     0.181 C
HETATM   15  C12 UNL     1       8.310  13.035  -5.377  1.00  0.00     0.063 C
BRANCH  14  16
HETATM   16  O5  UNL     1       8.513  10.869  -6.285  1.00  0.00    -0.374 OA
ATOM     17  H5  UNL     1       7.994  10.099  -6.485  1.00  0.00     0.211 HD
ENDBRANCH  14  16
BRANCH  14  18
HETATM   18  C13 UNL     1       6.384  11.428  -5.447  1.00  0.00     0.164 C
HETATM   19  C14 UNL     1       5.834  10.070  -5.765  1.00  0.00     0.095 C
HETATM   20  O6  UNL     1       5.661  12.388  -5.320  1.00  0.00    -0.295 OA
ENDBRANCH  14  18
ENDBRANCH  12  14
ENDBRANCH  10  12
ENDBRANCH   8  10
BRANCH   5  21
HETATM   21  N4  UNL     1       9.039  10.638   1.150  1.00  0.00    -0.033 N
ATOM     22  H43 UNL     1       9.180   9.641   0.987  1.00  0.00     0.278 HD
ATOM     23  H42 UNL     1       9.578  10.714   2.012  1.00  0.00     0.278 HD
ATOM     24  H41 UNL     1       8.056  10.882   1.275  1.00  0.00     0.278 HD
ENDBRANCH   5  21
BRANCH   1  25
HETATM   25  C5  UNL     1      12.805  12.596  -0.652  1.00  0.00     0.279 C
HETATM   26  N2  UNL     1      13.817  13.529  -0.850  1.00  0.00    -0.261 N
HETATM   27  C4  UNL     1      15.144  13.112  -1.224  1.00  0.00     0.181 C
HETATM   28  O2  UNL     1      13.122  11.354  -0.779  1.00  0.00    -0.268 OA
BRANCH  26  29
HETATM   29  N1  UNL     1      13.575  14.899  -0.689  1.00  0.00    -0.266 N
HETATM   30  C3  UNL     1      13.329  15.636  -1.887  1.00  0.00     0.235 C
HETATM   31  O1  UNL     1      13.324  15.093  -3.025  1.00  0.00    -0.272 OA
ATOM     32  H1  UNL     1      13.574  15.344   0.229  1.00  0.00     0.190 HD
BRANCH  30  33
HETATM   33  C2  UNL     1      13.067  17.085  -1.795  1.00  0.00     0.100 C
HETATM   34  C1  UNL     1      14.407  17.840  -1.753  1.00  0.00     0.014 C
ENDBRANCH  30  33
ENDBRANCH  26  29
ENDBRANCH   1  25
TORSDOF 9
ENDMDL