MODEL 2
REMARK VINA RESULT: -7.669522298      1.796      8.593
REMARK  12 active torsions:
REMARK  status: ('A' for Active; 'I' for Inactive)
REMARK    1  A    between atoms: O1_2  and  C2_3
REMARK    2  A    between atoms: C2_3  and  C3_5
REMARK    3  A    between atoms: C3_5  and  N1_6
REMARK       I    between atoms: N1_6  and  C4_8
REMARK       I    between atoms: C4_8  and  N2_10
REMARK    4  A    between atoms: N2_10  and  C5_12
REMARK    5  A    between atoms: C5_12  and  C6_13
REMARK    6  A    between atoms: C5_12  and  C7_16
REMARK    7  A    between atoms: C6_13  and  O4_14
REMARK    8  A    between atoms: C7_16  and  O6_18
REMARK    9  A    between atoms: O6_18  and  C8_19
REMARK   10  A    between atoms: C8_19  and  C9_21
REMARK   11  A    between atoms: C12_24  and  N3_25
REMARK   12  A    between atoms: C13_28  and  N4_29
ROOT
HETATM    1  C7  UNL     1      10.201  12.393  -2.740  1.00  0.00     0.291 C
HETATM    2  O5  UNL     1      10.228  13.137  -3.752  1.00  0.00    -0.262 OA
ENDROOT
BRANCH   1   3
HETATM    3  C5  UNL     1      11.414  11.664  -2.308  1.00  0.00     0.210 C
BRANCH   3   4
HETATM    4  N2  UNL     1      11.178  10.730  -1.262  1.00  0.00    -0.327 N
HETATM    5  C4  UNL     1      11.379  11.105   0.084  1.00  0.00     0.317 C
HETATM    6  N1  UNL     1      11.147  10.179   1.124  1.00  0.00    -0.334 N
HETATM    7  O3  UNL     1      11.777  12.298   0.334  1.00  0.00    -0.247 OA
ATOM      8  H1  UNL     1      10.832   9.231   0.917  1.00  0.00     0.164 HD
ATOM      9  H2  UNL     1      10.862   9.787  -1.485  1.00  0.00     0.165 HD
BRANCH   6  10
HETATM   10  C3  UNL     1      11.366  10.602   2.487  1.00  0.00     0.235 C
BRANCH  10  11
HETATM   11  C2  UNL     1      12.014   9.558   3.282  1.00  0.00     0.276 C
HETATM   12  O2  UNL     1      13.249   9.377   3.166  1.00  0.00    -0.263 OA
BRANCH  11  13
HETATM   13  O1  UNL     1      11.243   8.795   4.143  1.00  0.00    -0.325 OA
HETATM   14  C1  UNL     1      10.470   7.711   3.681  1.00  0.00     0.213 C
ENDBRANCH  11  13
ENDBRANCH  10  11
ENDBRANCH   6  10
ENDBRANCH   3   4
BRANCH   3  15
HETATM   15  C6  UNL     1      11.941  10.921  -3.515  1.00  0.00     0.199 C
BRANCH  15  16
HETATM   16  O4  UNL     1      10.934  10.287  -4.219  1.00  0.00    -0.398 OA
ATOM     17  H4  UNL     1      11.113   9.363  -4.348  1.00  0.00     0.209 HD
ENDBRANCH  15  16
ENDBRANCH   3  15
ENDBRANCH   1   3
BRANCH   1  18
HETATM   18  O6  UNL     1       9.023  12.267  -2.040  1.00  0.00    -0.238 OA
BRANCH  18  19
HETATM   19  C8  UNL     1       8.112  11.232  -2.204  1.00  0.00     0.317 C
HETATM   20  O7  UNL     1       7.877  10.537  -1.181  1.00  0.00    -0.257 OA
BRANCH  19  21
HETATM   21  C9  UNL     1       7.454  10.937  -3.455  1.00  0.00     0.110 A
HETATM   22  C10 UNL     1       7.178   9.641  -3.785  1.00  0.00     0.038 A
HETATM   23  C11 UNL     1       6.540   9.359  -4.993  1.00  0.00     0.042 A
HETATM   24  C12 UNL     1       6.190  10.381  -5.848  1.00  0.00     0.146 A
HETATM   25  C13 UNL     1       6.496  11.666  -5.457  1.00  0.00     0.133 A
HETATM   26  N5  UNL     1       7.114  11.923  -4.284  1.00  0.00    -0.336 N
ATOM     27  H5  UNL     1       7.324  12.888  -4.029  1.00  0.00     0.168 HD
BRANCH  24  28
HETATM   28  N3  UNL     1       5.541  10.080  -7.077  1.00  0.00    -0.112 N
HETATM   29  O8  UNL     1       4.369   9.688  -7.118  1.00  0.00    -0.532 OA
HETATM   30  O9  UNL     1       6.232  10.230  -8.250  1.00  0.00    -0.532 OA
ENDBRANCH  24  28
BRANCH  25  31
HETATM   31  N4  UNL     1       6.160  12.625  -6.277  1.00  0.00    -0.383 N
ATOM     32  H42 UNL     1       5.183  12.872  -6.436  1.00  0.00     0.157 HD
ATOM     33  H41 UNL     1       6.921  13.112  -6.749  1.00  0.00     0.157 HD
ENDBRANCH  25  31
ENDBRANCH  19  21
ENDBRANCH  18  19
ENDBRANCH   1  18
TORSDOF 12
ENDMDL