MODEL 4
REMARK VINA RESULT: -7.357465111      2.099      5.906
REMARK  10 active torsions:
REMARK  status: ('A' for Active; 'I' for Inactive)
REMARK    1  A    between atoms: C2_2  and  O1_3
REMARK    2  A    between atoms: O1_3  and  C3_4
REMARK    3  A    between atoms: C3_4  and  C4_6
REMARK    4  A    between atoms: C4_6  and  O3_7
REMARK    5  A    between atoms: O3_7  and  N1_8
REMARK    6  A    between atoms: C5_10  and  C6_12
REMARK    7  A    between atoms: C6_12  and  C7_13
REMARK    8  A    between atoms: C7_13  and  N3_14
REMARK    9  A    between atoms: C10_23  and  N5_24
REMARK   10  A    between atoms: C11_29  and  C12_30
ROOT
HETATM    1  C4  UNL     1      11.055  12.496  -1.313  1.00  0.00     0.258 C
HETATM    2  C8  UNL     1      11.640  13.771  -1.880  1.00  0.00     0.155 C
HETATM    3  S1  UNL     1      13.420  13.658  -1.905  1.00  0.00    -0.104 SA
HETATM    4  C9  UNL     1      13.926  12.533  -0.620  1.00  0.00     0.115 A
HETATM    5  N4  UNL     1      15.229  12.315  -0.439  1.00  0.00    -0.184 N
ATOM      6  H4  UNL     1      15.906  12.798  -1.030  1.00  0.00     0.185 HD
HETATM    7  C10 UNL     1      15.664  11.469   0.507  1.00  0.00     0.677 A
HETATM    8  N6  UNL     1      14.780  10.838   1.277  1.00  0.00    -0.185 N
ATOM      9  H6  UNL     1      15.116  10.197   1.995  1.00  0.00     0.184 HD
HETATM   10  C11 UNL     1      13.427  11.028   1.130  1.00  0.00     0.143 A
HETATM   11  C13 UNL     1      12.993  11.897   0.160  1.00  0.00     0.098 A
HETATM   12  N8  UNL     1      11.593  12.167  -0.032  1.00  0.00    -0.344 N
ATOM     13  H8  UNL     1      10.966  12.123   0.772  1.00  0.00     0.163 HD
ENDROOT
BRANCH   1  14
HETATM   14  C3  UNL     1      11.294  11.356  -2.234  1.00  0.00     0.318 C
HETATM   15  O2  UNL     1      11.334  10.175  -1.821  1.00  0.00    -0.259 OA
BRANCH  14  16
HETATM   16  O1  UNL     1      11.487  11.542  -3.607  1.00  0.00    -0.318 OA
BRANCH  16  17
HETATM   17  C2  UNL     1      12.475  10.804  -4.309  1.00  0.00     0.174 C
HETATM   18  C1  UNL     1      13.170  11.778  -5.247  1.00  0.00     0.034 C
ENDBRANCH  16  17
ENDBRANCH  14  16
ENDBRANCH   1  14
BRANCH   1  19
HETATM   19  O3  UNL     1       9.666  12.679  -1.222  1.00  0.00    -0.234 OA
BRANCH  19  20
HETATM   20  N1  UNL     1       8.867  12.356  -2.292  1.00  0.00    -0.254 N
HETATM   21  C5  UNL     1       8.049  11.357  -2.266  1.00  0.00     0.115 C
HETATM   22  N2  UNL     1       7.941  10.543  -1.106  1.00  0.00    -0.086 NA
ATOM     23  H1  UNL     1       8.924  12.925  -3.137  1.00  0.00     0.195 HD
BRANCH  21  24
HETATM   24  C6  UNL     1       7.187  11.011  -3.426  1.00  0.00     0.102 C
BRANCH  24  25
HETATM   25  C7  UNL     1       7.601   9.655  -3.943  1.00  0.00     0.236 C
BRANCH  25  26
HETATM   26  N3  UNL     1       9.014   9.496  -4.058  1.00  0.00    -0.079 N
ATOM     27  H33 UNL     1       9.309   8.597  -3.678  1.00  0.00     0.274 HD
ATOM     28  H32 UNL     1       9.283   9.364  -5.033  1.00  0.00     0.274 HD
ATOM     29  H31 UNL     1       9.545  10.258  -3.637  1.00  0.00     0.274 HD
ENDBRANCH  25  26
ENDBRANCH  24  25
ENDBRANCH  21  24
ENDBRANCH  19  20
ENDBRANCH   1  19
BRANCH  10  30
HETATM   30  C12 UNL     1      12.551  10.281   1.971  1.00  0.00     0.284 C
HETATM   31  N7  UNL     1      12.987   9.900   3.288  1.00  0.00    -0.056 NA
HETATM   32  O4  UNL     1      11.417   9.916   1.668  1.00  0.00    -0.269 OA
ENDBRANCH  10  30
BRANCH   7  33
HETATM   33  N5  UNL     1      16.945  11.299   0.635  1.00  0.00    -0.234 N
ATOM     34  H52 UNL     1      17.518  11.895   1.231  1.00  0.00     0.174 HD
ATOM     35  H51 UNL     1      17.384  10.538   0.116  1.00  0.00     0.174 HD
ENDBRANCH   7  33
TORSDOF 10
ENDMDL