MODEL 1
REMARK VINA RESULT: -6.424660519      0.000      0.000
REMARK  10 active torsions:
REMARK  status: ('A' for Active; 'I' for Inactive)
REMARK    1  A    between atoms: S1_2  and  C2_3
REMARK    2  A    between atoms: N3_9  and  S2_11
REMARK    3  A    between atoms: S2_11  and  N4_14
REMARK       I    between atoms: N4_14  and  C4_16
REMARK    4  A    between atoms: C4_16  and  C5_18
REMARK    5  A    between atoms: C5_18  and  C6_19
REMARK    6  A    between atoms: C5_18  and  C7_24
REMARK    7  A    between atoms: C6_19  and  N5_20
REMARK    8  A    between atoms: C7_24  and  O4_25
REMARK    9  A    between atoms: C7_24  and  O5_27
REMARK   10  A    between atoms: O5_27  and  C8_28
ROOT
HETATM    1  N4  UNL     1       8.084  12.015  -4.563  1.00  0.00    -0.237 N
ATOM      2  H4  UNL     1       7.967  12.807  -3.931  1.00  0.00     0.183 HD
HETATM    3  C4  UNL     1       9.346  11.416  -4.754  1.00  0.00     0.242 C
HETATM    4  O3  UNL     1       9.438  10.447  -5.548  1.00  0.00    -0.272 OA
ENDROOT
BRANCH   1   5
HETATM    5  S2  UNL     1       6.728  11.355  -5.442  1.00  0.00     0.327 S
HETATM    6  O1  UNL     1       6.336  10.073  -4.765  1.00  0.00    -0.182 OA
HETATM    7  O2  UNL     1       5.570  12.337  -5.315  1.00  0.00    -0.182 OA
BRANCH   5   8
HETATM    8  N3  UNL     1       7.193  11.141  -7.070  1.00  0.00    -0.245 N
HETATM    9  C3  UNL     1       6.334  10.712  -7.969  1.00  0.00     0.176 A
HETATM   10  N2  UNL     1       5.049  10.393  -7.786  1.00  0.00    -0.278 N
HETATM   11  S3  UNL     1       6.529  10.421  -9.643  1.00  0.00    -0.026 SA
HETATM   12  N1  UNL     1       4.371  10.000  -8.781  1.00  0.00    -0.286 N
ATOM     13  H2  UNL     1       4.623  10.465  -6.862  1.00  0.00     0.189 HD
HETATM   14  C2  UNL     1       4.915   9.904  -9.975  1.00  0.00     0.129 A
ATOM     15  H1  UNL     1       3.389   9.753  -8.655  1.00  0.00     0.188 HD
ATOM     16  H3  UNL     1       8.153  11.348  -7.350  1.00  0.00     0.182 HD
BRANCH  14  17
HETATM   17  S1  UNL     1       4.174   9.376 -11.534  1.00  0.00    -0.108 SA
HETATM   18  C1  UNL     1       5.313   8.107 -12.212  1.00  0.00     0.097 C
ENDBRANCH  14  17
ENDBRANCH   5   8
ENDBRANCH   1   5
BRANCH   3  19
HETATM   19  C5  UNL     1      10.610  11.851  -4.071  1.00  0.00     0.159 C
BRANCH  19  20
HETATM   20  C6  UNL     1      11.756  11.396  -4.909  1.00  0.00     0.248 C
BRANCH  20  21
HETATM   21  N5  UNL     1      12.365  10.184  -4.449  1.00  0.00    -0.078 N
ATOM     22  H53 UNL     1      11.654   9.485  -4.234  1.00  0.00     0.274 HD
ATOM     23  H52 UNL     1      12.847   9.710  -5.214  1.00  0.00     0.274 HD
ATOM     24  H51 UNL     1      12.992  10.313  -3.656  1.00  0.00     0.274 HD
ENDBRANCH  20  21
ENDBRANCH  19  20
BRANCH  19  25
HETATM   25  C7  UNL     1      10.668  11.329  -2.680  1.00  0.00     0.282 C
BRANCH  25  26
HETATM   26  O4  UNL     1      10.060  10.056  -2.643  1.00  0.00    -0.370 OA
ATOM     27  H4  UNL     1       9.226  10.126  -2.192  1.00  0.00     0.212 HD
ENDBRANCH  25  26
BRANCH  25  28
HETATM   28  O5  UNL     1       9.936  12.148  -1.803  1.00  0.00    -0.274 OA
BRANCH  28  29
HETATM   29  C8  UNL     1       8.903  11.605  -1.004  1.00  0.00     0.375 C
HETATM   30  N6  UNL     1       7.584  11.445  -1.506  1.00  0.00    -0.032 NA
HETATM   31  O6  UNL     1       9.193  11.267   0.178  1.00  0.00    -0.242 OA
ENDBRANCH  28  29
ENDBRANCH  25  28
ENDBRANCH  19  25
ENDBRANCH   3  19
TORSDOF 10
ENDMDL