MODEL 3
REMARK VINA RESULT: -5.813407125      4.244      5.130
REMARK  7 active torsions:
REMARK  status: ('A' for Active; 'I' for Inactive)
REMARK    1  A    between atoms: C3_3  and  C4_4
REMARK    2  A    between atoms: C6_6  and  N1_7
REMARK    3  A    between atoms: N1_7  and  S1_9
REMARK    4  A    between atoms: S1_9  and  S2_12
REMARK    5  A    between atoms: S2_12  and  C8_13
REMARK    6  A    between atoms: C8_13  and  N2_15
REMARK    7  A    between atoms: N3_20  and  C13_22
ROOT
HETATM    1  C4  UNL     1      28.655  -5.120  -9.667  1.00  0.00     0.035 C
HETATM    2  C5  UNL     1      29.946  -5.251  -9.558  1.00  0.00     0.137 C
HETATM    3  C6  UNL     1      30.648  -6.519  -9.210  1.00  0.00     0.150 C
HETATM    4  C10 UNL     1      32.082  -6.220  -9.263  1.00  0.00     0.060 C
HETATM    5  C11 UNL     1      32.189  -4.736  -9.332  1.00  0.00     0.245 C
HETATM    6  N3  UNL     1      30.899  -4.199  -9.738  1.00  0.00    -0.043 N
HETATM    7  C12 UNL     1      30.662  -3.057  -8.894  1.00  0.00     0.279 C
ENDROOT
BRANCH   3   8
HETATM    8  N1  UNL     1      30.195  -7.566 -10.095  1.00  0.00    -0.333 N
ATOM      9  H1  UNL     1      30.206  -7.447 -11.109  1.00  0.00     0.170 HD
BRANCH   8  10
HETATM   10  S1  UNL     1      29.596  -9.122  -9.322  1.00  0.00     0.080 S
HETATM   11  C7  UNL     1      29.976  -9.643  -7.608  1.00  0.00     0.149 C
HETATM   12  O1  UNL     1      28.477 -10.258 -10.472  1.00  0.00    -0.239 OA
BRANCH  10  13
HETATM   13  S2  UNL     1      31.186  -9.917 -10.315  1.00  0.00     0.011 SA
BRANCH  13  14
HETATM   14  C8  UNL     1      31.659  -9.320 -11.755  1.00  0.00     0.147 C
HETATM   15  S3  UNL     1      33.182  -8.680 -11.974  1.00  0.00    -0.052 SA
BRANCH  14  16
HETATM   16  N2  UNL     1      30.841  -9.301 -12.908  1.00  0.00    -0.379 N
HETATM   17  C9  UNL     1      31.413  -9.332 -14.259  1.00  0.00     0.147 C
ATOM     18  H2  UNL     1      29.827  -9.263 -12.799  1.00  0.00     0.160 HD
ENDBRANCH  14  16
ENDBRANCH  13  14
ENDBRANCH  10  13
ENDBRANCH   8  10
ENDBRANCH   3   8
BRANCH   1  19
HETATM   19  C3  UNL     1      27.940  -3.907 -10.004  1.00  0.00    -0.002 C
HETATM   20  C2  UNL     1      26.652  -3.791  -9.692  1.00  0.00    -0.031 C
HETATM   21  C1  UNL     1      25.885  -2.571 -10.019  1.00  0.00     0.036 C
ENDBRANCH   1  19
BRANCH   6  22
HETATM   22  C13 UNL     1      30.911  -3.867 -11.148  1.00  0.00     0.239 C
HETATM   23  C14 UNL     1      32.249  -3.466 -11.679  1.00  0.00     0.035 C
ENDBRANCH   6  22
TORSDOF 7
ENDMDL