MODEL 5
REMARK VINA RESULT: -7.478408947      2.498      3.856
REMARK  6 active torsions:
REMARK  status: ('A' for Active; 'I' for Inactive)
REMARK    1  A    between atoms: C4_5  and  C5_6
REMARK    2  A    between atoms: C5_6  and  N2_7
REMARK    3  A    between atoms: N2_7  and  C6_9
REMARK    4  A    between atoms: C7_12  and  C8_13
REMARK    5  A    between atoms: C15_22  and  N5_23
REMARK    6  A    between atoms: N5_23  and  C16_25
ROOT
HETATM    1  C6  UNL     1      30.525  -6.462 -10.189  1.00  0.00     0.694 A
HETATM    2  N3  UNL     1      30.858  -6.535 -11.484  1.00  0.00    -0.179 N
ATOM      3  H3  UNL     1      30.162  -6.241 -12.169  1.00  0.00     0.185 HD
HETATM    4  C7  UNL     1      32.040  -6.968 -11.946  1.00  0.00     0.118 A
HETATM    5  N4  UNL     1      32.926  -7.348 -10.980  1.00  0.00    -0.179 N
ATOM      6  H4  UNL     1      33.845  -7.689 -11.261  1.00  0.00     0.185 HD
HETATM    7  C15 UNL     1      32.629  -7.288  -9.668  1.00  0.00     0.694 A
HETATM    8  N6  UNL     1      31.427  -6.846  -9.262  1.00  0.00    -0.022 N
ATOM      9  H6  UNL     1      31.199  -6.801  -8.269  1.00  0.00     0.203 HD
ENDROOT
BRANCH   1  10
HETATM   10  N2  UNL     1      29.351  -6.025  -9.906  1.00  0.00    -0.225 N
ATOM     11  H2  UNL     1      28.642  -6.722  -9.678  1.00  0.00     0.177 HD
BRANCH  10  12
HETATM   12  C5  UNL     1      28.945  -4.658  -9.881  1.00  0.00     0.143 C
BRANCH  12  13
HETATM   13  C4  UNL     1      27.611  -4.552  -9.143  1.00  0.00     0.010 C
HETATM   14  C3  UNL     1      27.745  -3.611  -7.991  1.00  0.00     0.026 C
HETATM   15  C2  UNL     1      27.823  -2.209  -8.526  1.00  0.00     0.122 C
HETATM   16  N1  UNL     1      26.671  -1.875  -9.282  1.00  0.00    -0.398 N
HETATM   17  C1  UNL     1      25.606  -1.267  -8.563  1.00  0.00     0.148 C
HETATM   18  C20 UNL     1      26.313  -2.754 -10.322  1.00  0.00     0.058 C
HETATM   19  C19 UNL     1      26.489  -4.202 -10.074  1.00  0.00     0.050 C
ENDBRANCH  12  13
ENDBRANCH  10  12
ENDBRANCH   1  10
BRANCH   4  20
HETATM   20  C8  UNL     1      32.457  -7.070 -13.336  1.00  0.00     0.059 C
HETATM   21  C9  UNL     1      31.615  -6.285 -14.323  1.00  0.00     0.017 C
HETATM   22  C10 UNL     1      31.603  -7.086 -15.593  1.00  0.00    -0.013 C
HETATM   23  C11 UNL     1      30.523  -8.133 -15.435  1.00  0.00     0.005 C
HETATM   24  C14 UNL     1      32.838  -7.985 -15.399  1.00  0.00     0.010 C
HETATM   25  C12 UNL     1      31.068  -8.901 -14.217  1.00  0.00     0.006 C
HETATM   26  C13 UNL     1      32.443  -8.424 -13.960  1.00  0.00    -0.003 C
ENDBRANCH   4  20
BRANCH   7  27
HETATM   27  N5  UNL     1      33.462  -7.645  -8.750  1.00  0.00    -0.221 N
ATOM     28  H5  UNL     1      34.344  -7.139  -8.670  1.00  0.00     0.178 HD
BRANCH  27  29
HETATM   29  C16 UNL     1      33.201  -8.730  -7.827  1.00  0.00     0.099 A
HETATM   30  C17 UNL     1      33.090 -10.101  -8.374  1.00  0.00     0.028 A
HETATM   31  C18 UNL     1      34.352  -9.692  -7.669  1.00  0.00     0.028 A
ENDBRANCH  27  29
ENDBRANCH   7  27
TORSDOF 6
ENDMDL