MODEL 5
REMARK VINA RESULT: -7.302435364      2.046      2.589
REMARK  4 active torsions:
REMARK  status: ('A' for Active; 'I' for Inactive)
REMARK    1  A    between atoms: C6_6  and  N1_7
REMARK    2  A    between atoms: C9_10  and  C10_11
REMARK       I    between atoms: C10_11  and  N2_13
REMARK    3  A    between atoms: N2_13  and  C11_15
REMARK    4  A    between atoms: C13_17  and  N3_18
ROOT
HETATM    1  C10 UNL     1      31.543  -7.650  -8.662  1.00  0.00     0.223 C
HETATM    2  O1  UNL     1      32.628  -7.293  -8.102  1.00  0.00    -0.273 OA
HETATM    3  N2  UNL     1      31.636  -8.448  -9.806  1.00  0.00    -0.356 N
ATOM      4  H2  UNL     1      30.741  -8.685 -10.232  1.00  0.00     0.162 HD
ENDROOT
BRANCH   1   5
HETATM    5  C9  UNL     1      30.284  -7.197  -8.055  1.00  0.00     0.107 C
HETATM    6  C8  UNL     1      29.251  -8.289  -8.293  1.00  0.00     0.046 C
HETATM    7  C7  UNL     1      29.499  -9.206  -7.065  1.00  0.00     0.273 C
HETATM    8  N1  UNL     1      29.712  -8.260  -5.983  1.00  0.00     0.093 N
HETATM    9  C19 UNL     1      30.281  -7.074  -6.569  1.00  0.00     0.287 C
BRANCH   8  10
HETATM   10  C6  UNL     1      28.535  -7.940  -5.256  1.00  0.00     0.223 C
HETATM   11  C5  UNL     1      28.381  -6.491  -4.985  1.00  0.00     0.036 C
HETATM   12  C4  UNL     1      28.233  -6.091  -3.545  1.00  0.00     0.002 C
HETATM   13  C3  UNL     1      26.817  -6.284  -3.003  1.00  0.00     0.004 C
HETATM   14  C2  UNL     1      26.822  -7.672  -2.397  1.00  0.00    -0.019 C
HETATM   15  C1  UNL     1      25.697  -7.952  -1.459  1.00  0.00     0.010 C
HETATM   16  C21 UNL     1      26.879  -8.618  -3.593  1.00  0.00     0.006 C
HETATM   17  C20 UNL     1      28.345  -8.781  -4.011  1.00  0.00     0.036 C
ENDBRANCH   8  10
ENDBRANCH   1   5
BRANCH   3  18
HETATM   18  C11 UNL     1      32.772  -8.984 -10.476  1.00  0.00     0.088 A
HETATM   19  C12 UNL     1      33.308  -8.074 -11.603  1.00  0.00     0.061 A
HETATM   20  C13 UNL     1      32.964  -9.138 -12.627  1.00  0.00     0.227 A
HETATM   21  C18 UNL     1      32.470 -10.014 -11.512  1.00  0.00     0.061 A
BRANCH  20  22
HETATM   22  N3  UNL     1      32.016  -8.739 -13.597  1.00  0.00     0.096 N
HETATM   23  C14 UNL     1      31.729  -9.764 -14.542  1.00  0.00     0.300 C
HETATM   24  C15 UNL     1      31.090  -9.163 -15.812  1.00  0.00     0.262 C
HETATM   25  N4  UNL     1      30.261  -8.039 -15.444  1.00  0.00    -0.072 N
HETATM   26  C16 UNL     1      31.113  -6.960 -14.971  1.00  0.00     0.262 C
ATOM     27  H42 UNL     1      29.646  -7.744 -16.202  1.00  0.00     0.277 HD
ATOM     28  H41 UNL     1      29.542  -8.292 -14.766  1.00  0.00     0.277 HD
HETATM   29  C17 UNL     1      32.344  -7.491 -14.230  1.00  0.00     0.300 C
ENDBRANCH  20  22
ENDBRANCH   3  18
TORSDOF 4
ENDMDL