MODEL 1
REMARK VINA RESULT: -8.109105265      0.000      0.000
REMARK  6 active torsions:
REMARK  status: ('A' for Active; 'I' for Inactive)
REMARK    1  A    between atoms: C2_2  and  C5_5
REMARK    2  A    between atoms: C8_8  and  N1_9
REMARK    3  A    between atoms: N2_12  and  S1_13
REMARK    4  A    between atoms: S1_13  and  C11_16
REMARK    5  A    between atoms: C13_18  and  C14_19
REMARK    6  A    between atoms: C14_19  and  N3_20
ROOT
HETATM    1  N1  UNL     1      32.801  -8.212 -11.756  1.00  0.00    -0.406 N
HETATM    2  C9  UNL     1      32.551  -7.549 -10.550  1.00  0.00     0.132 C
HETATM    3  C10 UNL     1      32.120  -8.587  -9.508  1.00  0.00     0.127 C
HETATM    4  N2  UNL     1      31.329  -9.625 -10.119  1.00  0.00    -0.202 NA
HETATM    5  C16 UNL     1      32.055 -10.396 -11.074  1.00  0.00     0.127 C
HETATM    6  C17 UNL     1      33.117  -9.588 -11.744  1.00  0.00     0.132 C
ENDROOT
BRANCH   4   7
HETATM    7  S1  UNL     1      30.534 -10.608  -8.979  1.00  0.00     0.259 S
HETATM    8  O1  UNL     1      31.350 -11.823  -8.658  1.00  0.00    -0.204 OA
HETATM    9  O2  UNL     1      29.261 -11.116  -9.642  1.00  0.00    -0.204 OA
BRANCH   7  10
HETATM   10  C11 UNL     1      30.123  -9.714  -7.531  1.00  0.00     0.144 A
HETATM   11  C12 UNL     1      28.923  -9.055  -7.284  1.00  0.00     0.053 A
HETATM   12  C13 UNL     1      28.967  -8.462  -6.033  1.00  0.00    -0.015 A
HETATM   13  C15 UNL     1      30.215  -8.773  -5.527  1.00  0.00     0.097 A
HETATM   14  N4  UNL     1      30.884  -9.517  -6.435  1.00  0.00    -0.355 N
ATOM     15  H4  UNL     1      31.830  -9.878  -6.309  1.00  0.00     0.166 HD
BRANCH  12  16
HETATM   16  C14 UNL     1      27.869  -7.667  -5.411  1.00  0.00     0.269 C
BRANCH  16  17
HETATM   17  N3  UNL     1      26.800  -8.534  -5.014  1.00  0.00    -0.075 N
ATOM     18  H33 UNL     1      26.672  -9.307  -5.667  1.00  0.00     0.274 HD
ATOM     19  H32 UNL     1      27.037  -9.077  -4.183  1.00  0.00     0.274 HD
ATOM     20  H31 UNL     1      25.942  -7.996  -4.887  1.00  0.00     0.274 HD
ENDBRANCH  16  17
ENDBRANCH  12  16
ENDBRANCH   7  10
ENDBRANCH   4   7
BRANCH   1  21
HETATM   21  C8  UNL     1      32.241  -7.744 -12.955  1.00  0.00     0.079 C
HETATM   22  C7  UNL     1      32.455  -6.307 -13.301  1.00  0.00     0.025 C
HETATM   23  C6  UNL     1      32.467  -6.247 -14.802  1.00  0.00     0.007 C
HETATM   24  C5  UNL     1      32.522  -7.628 -15.350  1.00  0.00    -0.005 C
HETATM   25  C18 UNL     1      32.639  -8.545 -14.187  1.00  0.00     0.030 C
BRANCH  24  26
HETATM   26  C2  UNL     1      31.373  -7.948 -16.274  1.00  0.00    -0.048 C
HETATM   27  C1  UNL     1      31.205  -9.453 -16.337  1.00  0.00     0.015 C
HETATM   28  C3  UNL     1      30.091  -7.366 -15.759  1.00  0.00     0.015 C
HETATM   29  C4  UNL     1      31.592  -7.456 -17.675  1.00  0.00     0.015 C
ENDBRANCH  24  26
ENDBRANCH   1  21
TORSDOF 6
ENDMDL