MODEL 4
REMARK VINA RESULT: -7.081099687      3.261      7.193
REMARK  4 active torsions:
REMARK  status: ('A' for Active; 'I' for Inactive)
REMARK    1  A    between atoms: C9_9  and  C10_10
REMARK    2  A    between atoms: C10_10  and  N1_11
REMARK       I    between atoms: N1_11  and  C11_13
REMARK       I    between atoms: C11_13  and  N2_15
REMARK    3  A    between atoms: N2_15  and  C12_17
REMARK    4  A    between atoms: C12_17  and  N3_18
ROOT
HETATM    1  C10 UNL     1      31.010  -9.111 -11.275  1.00  0.00     0.078 C
ENDROOT
BRANCH   1   2
HETATM    2  C9  UNL     1      32.120  -8.353 -11.996  1.00  0.00     0.023 C
HETATM    3  C8  UNL     1      32.457  -9.260 -13.161  1.00  0.00     0.018 C
HETATM    4  C7  UNL     1      33.376  -8.697 -14.175  1.00  0.00     0.001 C
HETATM    5  C6  UNL     1      32.850  -8.327 -15.501  1.00  0.00     0.000 C
HETATM    6  C5  UNL     1      31.410  -8.662 -15.713  1.00  0.00     0.004 C
HETATM    7  C4  UNL     1      30.522  -7.683 -14.997  1.00  0.00     0.027 C
HETATM    8  C3  UNL     1      31.289  -6.477 -14.548  1.00  0.00    -0.024 C
HETATM    9  C2  UNL     1      31.801  -6.202 -13.379  1.00  0.00    -0.080 C
HETATM   10  C1  UNL     1      32.516  -4.882 -13.277  1.00  0.00     0.043 C
HETATM   11  C20 UNL     1      31.766  -6.998 -12.157  1.00  0.00     0.053 C
HETATM   12  C19 UNL     1      32.624  -6.267 -11.104  1.00  0.00     0.177 C
HETATM   13  O2  UNL     1      33.070  -7.242 -10.247  1.00  0.00    -0.389 OA
HETATM   14  C18 UNL     1      33.294  -8.373 -11.004  1.00  0.00     0.183 C
ENDBRANCH   1   2
BRANCH   1  15
HETATM   15  N1  UNL     1      30.269  -8.406 -10.321  1.00  0.00    -0.322 N
HETATM   16  C11 UNL     1      30.040  -9.024  -9.050  1.00  0.00     0.321 C
HETATM   17  O1  UNL     1      30.491 -10.184  -8.780  1.00  0.00    -0.247 OA
HETATM   18  N2  UNL     1      29.299  -8.380  -8.026  1.00  0.00    -0.317 N
ATOM     19  H2  UNL     1      28.921  -7.450  -8.206  1.00  0.00     0.166 HD
ATOM     20  H1  UNL     1      29.902  -7.476 -10.525  1.00  0.00     0.169 HD
BRANCH  18  21
HETATM   21  C12 UNL     1      29.061  -8.981  -6.756  1.00  0.00     0.399 C
BRANCH  21  22
HETATM   22  N3  UNL     1      29.481  -8.146  -5.647  1.00  0.00     0.109 N
HETATM   23  C13 UNL     1      29.952  -8.914  -4.551  1.00  0.00     0.304 C
HETATM   24  C14 UNL     1      28.997  -9.086  -3.426  1.00  0.00     0.302 C
HETATM   25  N4  UNL     1      27.648  -8.938  -3.971  1.00  0.00     0.087 N
HETATM   26  C15 UNL     1      26.646  -9.385  -3.037  1.00  0.00     0.310 C
HETATM   27  C16 UNL     1      27.518  -7.511  -4.275  1.00  0.00     0.302 C
HETATM   28  C17 UNL     1      28.455  -7.199  -5.387  1.00  0.00     0.304 C
ENDBRANCH  21  22
ENDBRANCH  18  21
ENDBRANCH   1  15
TORSDOF 4
ENDMDL