MODEL 2
REMARK VINA RESULT: -7.244862534      4.835      6.058
REMARK  5 active torsions:
REMARK  status: ('A' for Active; 'I' for Inactive)
REMARK    1  A    between atoms: C1_2  and  C2_3
REMARK       I    between atoms: C1_2  and  N1_9
REMARK    2  A    between atoms: C11_13  and  C12_14
REMARK    3  A    between atoms: C12_14  and  N2_15
REMARK    4  A    between atoms: N2_15  and  C13_18
REMARK    5  A    between atoms: C14_19  and  O2_20
ROOT
HETATM    1  C12 UNL     1      30.510  -6.184 -10.033  1.00  0.00     0.239 C
ENDROOT
BRANCH   1   2
HETATM    2  C11 UNL     1      29.479  -5.967  -8.911  1.00  0.00     0.029 C
HETATM    3  C10 UNL     1      30.133  -5.495  -7.662  1.00  0.00     0.009 C
HETATM    4  C9  UNL     1      29.812  -4.092  -7.254  1.00  0.00     0.020 C
HETATM    5  C8  UNL     1      28.278  -4.001  -7.239  1.00  0.00     0.126 C
HETATM    6  N1  UNL     1      27.901  -4.062  -8.648  1.00  0.00    -0.351 N
HETATM    7  C1  UNL     1      27.078  -3.052  -9.217  1.00  0.00     0.224 C
HETATM    8  C21 UNL     1      28.367  -5.152  -9.449  1.00  0.00     0.132 C
HETATM    9  O1  UNL     1      26.776  -3.103 -10.423  1.00  0.00    -0.273 OA
BRANCH   7  10
HETATM   10  C2  UNL     1      26.584  -1.952  -8.389  1.00  0.00     0.078 C
HETATM   11  C3  UNL     1      27.160  -0.621  -8.852  1.00  0.00     0.014 C
HETATM   12  C4  UNL     1      26.248   0.512  -8.458  1.00  0.00     0.001 C
HETATM   13  C5  UNL     1      25.441   0.204  -7.210  1.00  0.00     0.000 C
HETATM   14  C6  UNL     1      24.569  -0.999  -7.375  1.00  0.00     0.001 C
HETATM   15  C7  UNL     1      25.064  -1.794  -8.558  1.00  0.00     0.014 C
ENDBRANCH   7  10
ENDBRANCH   1   2
BRANCH   1  16
HETATM   16  N2  UNL     1      30.435  -7.516 -10.548  1.00  0.00    -0.068 N
ATOM     17  H22 UNL     1      29.518  -7.697 -10.956  1.00  0.00     0.277 HD
ATOM     18  H21 UNL     1      31.012  -7.616 -11.383  1.00  0.00     0.277 HD
BRANCH  16  19
HETATM   19  C13 UNL     1      30.771  -8.525  -9.564  1.00  0.00     0.220 C
HETATM   20  C14 UNL     1      29.656  -9.494  -9.464  1.00  0.00     0.166 C
HETATM   21  C15 UNL     1      29.952 -10.772  -8.753  1.00  0.00     0.150 C
HETATM   22  N3  UNL     1      31.312 -11.154  -8.685  1.00  0.00    -0.410 N
HETATM   23  C16 UNL     1      31.890 -11.548  -9.943  1.00  0.00     0.117 C
HETATM   24  C20 UNL     1      32.152 -10.358  -7.862  1.00  0.00     0.117 C
HETATM   25  C17 UNL     1      32.028 -10.319 -10.809  1.00  0.00     0.026 C
HETATM   26  C18 UNL     1      32.094  -9.109  -9.946  1.00  0.00     0.022 C
HETATM   27  C19 UNL     1      32.966  -9.424  -8.728  1.00  0.00     0.026 C
BRANCH  20  28
HETATM   28  O2  UNL     1      29.060  -9.723 -10.726  1.00  0.00    -0.392 OA
ATOM     29  H2  UNL     1      28.772  -8.910 -11.124  1.00  0.00     0.210 HD
ENDBRANCH  20  28
ENDBRANCH  16  19
ENDBRANCH   1  16
TORSDOF 5
ENDMDL