MODEL 5
REMARK VINA RESULT: -8.074054257      2.141      3.017
REMARK  4 active torsions:
REMARK  status: ('A' for Active; 'I' for Inactive)
REMARK    1  A    between atoms: N2_9  and  C6_10
REMARK    2  A    between atoms: C6_10  and  C7_11
REMARK    3  A    between atoms: N3_21  and  C16_22
REMARK    4  A    between atoms: C16_22  and  C17_23
ROOT
HETATM    1  O1  UNL     1      29.493  -9.611  -7.060  1.00  0.00    -0.247 OA
HETATM    2  C1  UNL     1      29.974  -8.437  -7.111  1.00  0.00     0.326 A
HETATM    3  N1  UNL     1      29.449  -7.297  -7.777  1.00  0.00    -0.324 N
ATOM      4  H1  UNL     1      28.595  -7.293  -8.336  1.00  0.00     0.165 HD
HETATM    5  C2  UNL     1      30.285  -6.155  -7.555  1.00  0.00     0.117 A
HETATM    6  C3  UNL     1      30.884  -5.603  -8.816  1.00  0.00     0.042 C
HETATM    7  C4  UNL     1      29.926  -4.795  -9.629  1.00  0.00     0.023 C
HETATM    8  C5  UNL     1      29.496  -3.521  -8.882  1.00  0.00     0.122 C
HETATM    9  N2  UNL     1      28.311  -3.689  -8.167  1.00  0.00    -0.393 N
HETATM   10  C13 UNL     1      28.232  -4.748  -7.220  1.00  0.00     0.125 C
HETATM   11  C14 UNL     1      29.592  -5.099  -6.724  1.00  0.00     0.061 C
HETATM   12  C15 UNL     1      31.404  -6.697  -6.743  1.00  0.00     0.256 A
HETATM   13  O2  UNL     1      32.386  -5.974  -6.380  1.00  0.00    -0.270 OA
HETATM   14  N3  UNL     1      31.176  -8.061  -6.477  1.00  0.00    -0.264 N
ENDROOT
BRANCH  14  15
HETATM   15  C16 UNL     1      32.059  -8.890  -5.681  1.00  0.00     0.178 C
BRANCH  15  16
HETATM   16  C17 UNL     1      33.361  -9.103  -6.386  1.00  0.00    -0.006 A
HETATM   17  C18 UNL     1      33.620  -9.799  -7.538  1.00  0.00     0.117 A
HETATM   18  N4  UNL     1      34.929  -9.697  -7.755  1.00  0.00    -0.312 N
HETATM   19  N5  UNL     1      35.527  -8.988  -6.831  1.00  0.00    -0.312 N
ATOM     20  H4  UNL     1      35.410 -10.122  -8.547  1.00  0.00     0.186 HD
HETATM   21  C19 UNL     1      34.572  -8.605  -5.964  1.00  0.00     0.117 A
ATOM     22  H5  UNL     1      36.522  -8.769  -6.779  1.00  0.00     0.186 HD
ENDBRANCH  15  16
ENDBRANCH  14  15
BRANCH   9  23
HETATM   23  C6  UNL     1      27.249  -2.791  -8.192  1.00  0.00     0.062 C
BRANCH  23  24
HETATM   24  C7  UNL     1      26.296  -2.942  -9.336  1.00  0.00     0.024 C
HETATM   25  C8  UNL     1      24.993  -2.232  -8.975  1.00  0.00     0.010 C
HETATM   26  C9  UNL     1      23.856  -3.215  -8.796  1.00  0.00     0.001 C
HETATM   27  C10 UNL     1      23.581  -3.980 -10.075  1.00  0.00     0.000 C
HETATM   28  C11 UNL     1      24.867  -4.418 -10.737  1.00  0.00     0.001 C
HETATM   29  C12 UNL     1      26.024  -4.356  -9.728  1.00  0.00     0.010 C
ENDBRANCH  23  24
ENDBRANCH   9  23
TORSDOF 4
ENDMDL