MODEL 3
REMARK VINA RESULT: -6.581714979      2.780      7.213
REMARK  7 active torsions:
REMARK  status: ('A' for Active; 'I' for Inactive)
REMARK    1  A    between atoms: C2_2  and  C3_3
REMARK       I    between atoms: C3_3  and  N1_5
REMARK    2  A    between atoms: C6_8  and  N2_9
REMARK    3  A    between atoms: N3_11  and  C8_12
REMARK    4  A    between atoms: C8_12  and  C11_15
REMARK    5  A    between atoms: C16_20  and  C17_21
REMARK    6  A    between atoms: C17_21  and  C18_22
REMARK    7  A    between atoms: C18_22  and  O2_23
ROOT
HETATM    1  N2  UNL     1      32.556  -8.699  -8.804  1.00  0.00    -0.378 N
HETATM    2  C7  UNL     1      31.313  -9.153  -8.258  1.00  0.00     0.395 C
HETATM    3  N3  UNL     1      30.995  -8.302  -7.130  1.00  0.00     0.117 N
HETATM    4  C15 UNL     1      31.827  -7.135  -7.288  1.00  0.00     0.300 C
HETATM    5  C16 UNL     1      33.087  -7.661  -8.012  1.00  0.00     0.111 C
ENDROOT
BRANCH   1   6
HETATM    6  C6  UNL     1      32.624  -8.562 -10.206  1.00  0.00     0.084 C
HETATM    7  C5  UNL     1      32.377  -7.198 -10.773  1.00  0.00     0.045 C
HETATM    8  C4  UNL     1      32.726  -7.212 -12.249  1.00  0.00     0.127 C
HETATM    9  N1  UNL     1      31.937  -8.181 -12.987  1.00  0.00    -0.352 N
HETATM   10  C3  UNL     1      31.302  -7.782 -14.171  1.00  0.00     0.219 C
HETATM   11  C20 UNL     1      31.888  -9.503 -12.410  1.00  0.00     0.127 C
HETATM   12  O1  UNL     1      31.431  -6.579 -14.573  1.00  0.00    -0.273 OA
HETATM   13  C19 UNL     1      31.632  -9.492 -10.914  1.00  0.00     0.045 C
BRANCH  10  14
HETATM   14  C2  UNL     1      30.468  -8.653 -15.028  1.00  0.00     0.098 C
HETATM   15  C1  UNL     1      31.308  -9.305 -16.118  1.00  0.00     0.014 C
ENDBRANCH  10  14
ENDBRANCH   1   6
BRANCH   5  16
HETATM   16  C17 UNL     1      34.072  -8.204  -7.012  1.00  0.00     0.053 C
BRANCH  16  17
HETATM   17  C18 UNL     1      34.361  -9.662  -7.161  1.00  0.00     0.166 C
BRANCH  17  18
HETATM   18  O2  UNL     1      35.481  -9.938  -7.906  1.00  0.00    -0.401 OA
ATOM     19  H2  UNL     1      36.282  -9.992  -7.397  1.00  0.00     0.209 HD
ENDBRANCH  17  18
ENDBRANCH  16  17
ENDBRANCH   5  16
BRANCH   3  20
HETATM   20  C8  UNL     1      29.611  -8.075  -6.943  1.00  0.00     0.161 C
HETATM   21  C9  UNL     1      29.119  -6.833  -7.670  1.00  0.00     0.049 C
HETATM   22  C10 UNL     1      28.868  -9.232  -7.639  1.00  0.00     0.049 C
BRANCH  20  23
HETATM   23  C11 UNL     1      29.122  -8.056  -5.528  1.00  0.00    -0.016 C
HETATM   24  C12 UNL     1      29.194  -6.735  -4.818  1.00  0.00     0.017 C
HETATM   25  C13 UNL     1      27.652  -8.499  -5.456  1.00  0.00     0.017 C
HETATM   26  C14 UNL     1      29.901  -9.034  -4.645  1.00  0.00     0.017 C
ENDBRANCH  20  23
ENDBRANCH   3  20
TORSDOF 7
ENDMDL