MODEL 5
REMARK VINA RESULT: -6.942703314      1.101      2.088
REMARK  7 active torsions:
REMARK  status: ('A' for Active; 'I' for Inactive)
REMARK    1  A    between atoms: O1_2  and  C2_3
REMARK    2  A    between atoms: C2_3  and  C3_5
REMARK    3  A    between atoms: C3_5  and  N1_6
REMARK    4  A    between atoms: N1_6  and  C4_8
REMARK    5  A    between atoms: C4_8  and  N2_10
REMARK    6  A    between atoms: N2_10  and  C5_12
REMARK    7  A    between atoms: N3_15  and  C8_16
ROOT
HETATM    1  C5  UNL     1      30.990  -7.273  -7.530  1.00  0.00     0.093 C
HETATM    2  C6  UNL     1      31.080  -7.956  -6.171  1.00  0.00     0.070 C
HETATM    3  C7  UNL     1      29.775  -8.700  -6.003  1.00  0.00     0.066 C
HETATM    4  N3  UNL     1      28.762  -7.768  -5.742  1.00  0.00    -0.364 N
HETATM    5  C18 UNL     1      28.779  -6.602  -6.506  1.00  0.00     0.066 C
HETATM    6  C19 UNL     1      29.666  -6.580  -7.701  1.00  0.00     0.070 C
ENDROOT
BRANCH   1   7
HETATM    7  N2  UNL     1      31.084  -8.320  -8.523  1.00  0.00    -0.362 N
ATOM      8  H2  UNL     1      30.320  -8.995  -8.557  1.00  0.00     0.162 HD
BRANCH   7   9
HETATM    9  C4  UNL     1      32.132  -8.492  -9.446  1.00  0.00     0.168 C
HETATM   10  S1  UNL     1      32.750  -7.183 -10.221  1.00  0.00    -0.041 SA
BRANCH   9  11
HETATM   11  N1  UNL     1      32.664  -9.775  -9.699  1.00  0.00    -0.358 N
ATOM     12  H1  UNL     1      33.533 -10.052  -9.243  1.00  0.00     0.162 HD
BRANCH  11  13
HETATM   13  C3  UNL     1      31.998 -10.716 -10.599  1.00  0.00     0.233 C
BRANCH  13  14
HETATM   14  C2  UNL     1      31.397 -11.781  -9.771  1.00  0.00     0.276 C
HETATM   15  O2  UNL     1      31.715 -12.989  -9.833  1.00  0.00    -0.263 OA
BRANCH  14  16
HETATM   16  O1  UNL     1      30.416 -11.410  -8.869  1.00  0.00    -0.325 OA
HETATM   17  C1  UNL     1      29.097 -11.026  -9.256  1.00  0.00     0.213 C
ENDBRANCH  14  16
ENDBRANCH  13  14
ENDBRANCH  11  13
ENDBRANCH   9  11
ENDBRANCH   7   9
ENDBRANCH   1   7
BRANCH   4  18
HETATM   18  C8  UNL     1      27.943  -7.889  -4.618  1.00  0.00     0.036 C
HETATM   19  C9  UNL     1      27.676  -6.514  -4.002  1.00  0.00     0.036 C
HETATM   20  C10 UNL     1      26.819  -6.636  -2.775  1.00  0.00    -0.012 C
HETATM   21  C11 UNL     1      25.510  -7.336  -3.054  1.00  0.00     0.009 C
HETATM   22  C15 UNL     1      27.558  -7.469  -1.744  1.00  0.00     0.009 C
HETATM   23  C12 UNL     1      25.801  -8.701  -3.639  1.00  0.00    -0.012 C
HETATM   24  C13 UNL     1      26.550  -9.570  -2.662  1.00  0.00     0.009 C
HETATM   25  C17 UNL     1      26.576  -8.483  -4.913  1.00  0.00     0.036 C
HETATM   26  C14 UNL     1      27.820  -8.847  -2.293  1.00  0.00    -0.012 C
HETATM   27  C16 UNL     1      28.665  -8.678  -3.538  1.00  0.00     0.036 C
ENDBRANCH   4  18
TORSDOF 7
ENDMDL