MODEL 1
REMARK VINA RESULT: -8.327658855      0.000      0.000
REMARK  4 active torsions:
REMARK  status: ('A' for Active; 'I' for Inactive)
REMARK       I    between atoms: C1_2  and  N1_3
REMARK    1  A    between atoms: C1_2  and  C8_11
REMARK    2  A    between atoms: N1_3  and  C2_5
REMARK    3  A    between atoms: C2_5  and  C3_6
REMARK    4  A    between atoms: N2_16  and  C13_17
ROOT
HETATM    1  C8  UNL     1      30.791  -8.809 -10.124  1.00  0.00     0.172 C
HETATM    2  C9  UNL     1      31.574  -8.726  -8.831  1.00  0.00     0.054 C
HETATM    3  C10 UNL     1      30.674  -9.348  -7.812  1.00  0.00     0.037 C
HETATM    4  C11 UNL     1      29.595  -8.342  -7.446  1.00  0.00     0.061 C
HETATM    5  C12 UNL     1      28.946  -8.928  -6.178  1.00  0.00     0.275 C
HETATM    6  N2  UNL     1      29.861  -8.634  -5.113  1.00  0.00     0.093 N
HETATM    7  C18 UNL     1      31.208  -9.049  -5.379  1.00  0.00     0.275 C
HETATM    8  C19 UNL     1      31.366  -9.898  -6.608  1.00  0.00     0.061 C
HETATM    9  N3  UNL     1      30.004 -10.372  -8.591  1.00  0.00    -0.351 N
ATOM     10  H3  UNL     1      29.790 -11.325  -8.296  1.00  0.00     0.163 HD
HETATM   11  C20 UNL     1      29.706  -9.782  -9.847  1.00  0.00     0.231 C
HETATM   12  O3  UNL     1      28.721 -10.039 -10.569  1.00  0.00    -0.273 OA
ENDROOT
BRANCH   1  13
HETATM   13  C1  UNL     1      31.627  -9.400 -11.189  1.00  0.00     0.231 C
HETATM   14  O1  UNL     1      32.713  -9.934 -10.888  1.00  0.00    -0.273 OA
HETATM   15  N1  UNL     1      31.214  -9.365 -12.537  1.00  0.00    -0.360 N
ATOM     16  H1  UNL     1      30.322  -8.922 -12.756  1.00  0.00     0.162 HD
BRANCH  15  17
HETATM   17  C2  UNL     1      31.985  -9.922 -13.621  1.00  0.00     0.127 C
BRANCH  17  18
HETATM   18  C3  UNL     1      31.743  -9.190 -14.913  1.00  0.00     0.003 C
HETATM   19  C4  UNL     1      32.649  -7.994 -15.095  1.00  0.00     0.006 C
HETATM   20  C5  UNL     1      31.869  -7.214 -16.158  1.00  0.00     0.000 C
HETATM   21  C6  UNL     1      30.414  -7.451 -15.831  1.00  0.00     0.000 C
HETATM   22  C7  UNL     1      30.377  -8.511 -14.758  1.00  0.00     0.006 C
ENDBRANCH  17  18
ENDBRANCH  15  17
ENDBRANCH   1  13
BRANCH   6  23
HETATM   23  C13 UNL     1      29.392  -9.027  -3.804  1.00  0.00     0.227 C
HETATM   24  C14 UNL     1      30.246  -8.411  -2.730  1.00  0.00     0.062 C
HETATM   25  C15 UNL     1      29.536  -7.339  -1.946  1.00  0.00     0.169 C
HETATM   26  O2  UNL     1      28.225  -7.673  -1.629  1.00  0.00    -0.391 OA
HETATM   27  C16 UNL     1      27.508  -7.664  -2.826  1.00  0.00     0.169 C
HETATM   28  C17 UNL     1      27.923  -8.893  -3.594  1.00  0.00     0.062 C
ENDBRANCH   6  23
TORSDOF 4
ENDMDL