MODEL 3
REMARK VINA RESULT: -6.655421381      2.382      3.121
REMARK  3 active torsions:
REMARK  status: ('A' for Active; 'I' for Inactive)
REMARK    1  A    between atoms: C3_4  and  N1_5
REMARK    2  A    between atoms: N1_5  and  C4_7
REMARK    3  A    between atoms: C4_7  and  C5_8
ROOT
HETATM    1  C1  UNL     1      -0.731   2.785 -10.019  1.00  0.00     0.057 C
HETATM    2  C2  UNL     1      -0.618   1.459  -9.271  1.00  0.00    -0.012 A
HETATM    3  S1  UNL     1      -0.788   1.137  -7.642  1.00  0.00    -0.075 SA
HETATM    4  C3  UNL     1      -0.476  -0.578  -7.633  1.00  0.00     0.095 A
HETATM    5  C8  UNL     1      -0.254  -0.832  -8.946  1.00  0.00     0.085 A
HETATM    6  C9  UNL     1      -0.095  -2.226  -9.443  1.00  0.00     0.103 C
HETATM    7  N4  UNL     1      -0.016  -3.323  -9.860  1.00  0.00    -0.191 NA
HETATM    8  C10 UNL     1      -0.324   0.247  -9.815  1.00  0.00    -0.026 A
HETATM    9  C11 UNL     1       0.059   0.126 -11.275  1.00  0.00     0.051 C
ENDROOT
BRANCH   4  10
HETATM   10  N1  UNL     1      -0.468  -1.340  -6.447  1.00  0.00    -0.357 N
ATOM     11  H1  UNL     1      -0.122  -2.286  -6.611  1.00  0.00     0.166 HD
BRANCH  10  12
HETATM   12  C4  UNL     1      -0.810  -1.144  -5.103  1.00  0.00     0.121 C
BRANCH  12  13
HETATM   13  C5  UNL     1       0.298  -1.520  -4.185  1.00  0.00     0.090 A
HETATM   14  N2  UNL     1       0.631  -2.709  -3.689  1.00  0.00    -0.295 N
HETATM   15  N3  UNL     1       1.843  -2.582  -3.106  1.00  0.00    -0.265 N
ATOM     16  H2  UNL     1       0.073  -3.561  -3.740  1.00  0.00     0.187 HD
HETATM   17  C6  UNL     1       2.286  -1.330  -3.222  1.00  0.00     0.283 A
ATOM     18  H3  UNL     1       2.348  -3.338  -2.643  1.00  0.00     0.190 HD
HETATM   19  O1  UNL     1       3.382  -0.838  -2.798  1.00  0.00    -0.265 OA
HETATM   20  C7  UNL     1       1.340  -0.619  -3.897  1.00  0.00     0.132 A
HETATM   21 CL1  UNL     1       1.244   1.081  -4.298  1.00  0.00    -0.076 Cl
ENDBRANCH  12  13
ENDBRANCH  10  12
ENDBRANCH   4  10
TORSDOF 3
ENDMDL