MODEL 1
REMARK VINA RESULT: -6.435252155      0.000      0.000
REMARK  4 active torsions:
REMARK  status: ('A' for Active; 'I' for Inactive)
REMARK    1  A    between atoms: C3_3  and  C4_4
REMARK    2  A    between atoms: C3_3  and  C7_14
REMARK    3  A    between atoms: N2_7  and  N3_9
REMARK    4  A    between atoms: N3_9  and  C6_11
ROOT
HETATM    1  C4  UNL     1      -0.104  -1.165  -8.091  1.00  0.00     0.141 C
HETATM    2  C5  UNL     1      -0.050  -2.210  -9.121  1.00  0.00     0.120 C
HETATM    3  N1  UNL     1      -0.016  -3.020  -9.944  1.00  0.00    -0.190 NA
HETATM    4  N2  UNL     1       0.333   0.010  -8.367  1.00  0.00    -0.288 N
ATOM      5  H2  UNL     1       0.306   0.751  -7.668  1.00  0.00     0.188 HD
ENDROOT
BRANCH   1   6
HETATM    6  C3  UNL     1      -0.666  -1.580  -6.813  1.00  0.00     0.033 C
HETATM    7  C2  UNL     1      -1.460  -2.657  -6.774  1.00  0.00    -0.014 C
HETATM    8  C1  UNL     1      -2.104  -3.208  -5.589  1.00  0.00     0.037 C
BRANCH   6   9
HETATM    9  C7  UNL     1      -0.403  -0.871  -5.566  1.00  0.00     0.090 A
HETATM   10  C8  UNL     1       0.430  -1.223  -4.530  1.00  0.00     0.042 A
HETATM   11  C9  UNL     1       0.324  -0.214  -3.582  1.00  0.00     0.053 A
HETATM   12  C10 UNL     1      -0.566   0.702  -4.079  1.00  0.00     0.145 A
HETATM   13 CL1  UNL     1      -1.098   2.186  -3.327  1.00  0.00    -0.057 Cl
HETATM   14  O1  UNL     1      -0.968   0.280  -5.243  1.00  0.00    -0.298 OA
ENDBRANCH   6   9
ENDBRANCH   1   6
BRANCH   4  15
HETATM   15  N3  UNL     1       0.847   0.254  -9.649  1.00  0.00    -0.278 N
ATOM     16  H3  UNL     1       1.798  -0.044  -9.866  1.00  0.00     0.189 HD
BRANCH  15  17
HETATM   17  C6  UNL     1       0.080   0.903 -10.651  1.00  0.00     0.199 C
HETATM   18  N4  UNL     1      -0.117   0.283 -11.911  1.00  0.00    -0.068 NA
HETATM   19  S1  UNL     1      -0.601   2.364 -10.415  1.00  0.00    -0.043 SA
ENDBRANCH  15  17
ENDBRANCH   4  15
TORSDOF 4
ENDMDL