MODEL 3
REMARK VINA RESULT: -5.241115461      1.212      2.282
REMARK  8 active torsions:
REMARK  status: ('A' for Active; 'I' for Inactive)
REMARK    1  A    between atoms: C2_2  and  C3_3
REMARK    2  A    between atoms: C3_3  and  O1_4
REMARK    3  A    between atoms: C3_3  and  C4_6
REMARK    4  A    between atoms: C5_11  and  S1_12
REMARK    5  A    between atoms: S1_12  and  C6_13
REMARK    6  A    between atoms: C6_13  and  N3_15
REMARK    7  A    between atoms: C9_18  and  N4_19
REMARK    8  A    between atoms: N4_19  and  N5_20
ROOT
HETATM    1  C4  UNL     1      -0.161  -1.362  -4.508  1.00  0.00     0.123 A
HETATM    2  N1  UNL     1      -0.826  -2.314  -5.167  1.00  0.00    -0.294 N
ATOM      3  H1  UNL     1      -1.012  -3.250  -4.809  1.00  0.00     0.187 HD
HETATM    4  N2  UNL     1      -1.210  -1.862  -6.359  1.00  0.00    -0.290 N
ATOM      5  H2  UNL     1      -1.737  -2.396  -7.051  1.00  0.00     0.187 HD
HETATM    6  C5  UNL     1      -0.796  -0.596  -6.509  1.00  0.00     0.137 A
HETATM    7  C9  UNL     1      -0.130  -0.270  -5.337  1.00  0.00     0.196 A
ENDROOT
BRANCH   6   8
HETATM    8  S1  UNL     1      -0.988   0.585  -7.816  1.00  0.00    -0.038 SA
BRANCH   8   9
HETATM    9  C6  UNL     1       0.275   0.579  -9.029  1.00  0.00     0.142 C
HETATM   10  S2  UNL     1       1.759   0.022  -8.766  1.00  0.00    -0.052 SA
BRANCH   9  11
HETATM   11  N3  UNL     1      -0.056   1.087 -10.338  1.00  0.00    -0.375 N
HETATM   12  C7  UNL     1      -0.496   2.474 -10.469  1.00  0.00     0.150 C
HETATM   13  C8  UNL     1       0.019   0.239 -11.498  1.00  0.00     0.150 C
ENDBRANCH   9  11
ENDBRANCH   8   9
ENDBRANCH   6   8
BRANCH   7  14
HETATM   14  N4  UNL     1       0.473   0.911  -5.058  1.00  0.00    -0.328 NA
BRANCH  14  15
HETATM   15  N5  UNL     1       0.990   1.885  -4.801  1.00  0.00    -0.280 N
ATOM     16  H52 UNL     1       1.177   0.984  -4.359  1.00  0.00     0.191 HD
ATOM     17  H51 UNL     1       1.440   2.775  -4.589  1.00  0.00     0.191 HD
ENDBRANCH  14  15
ENDBRANCH   7  14
BRANCH   1  18
HETATM   18  C3  UNL     1       0.360  -1.395  -3.135  1.00  0.00     0.074 C
BRANCH  18  19
HETATM   19  C2  UNL     1       1.573  -2.276  -2.930  1.00  0.00     0.062 C
HETATM   20  C1  UNL     1       2.853  -1.518  -3.235  1.00  0.00     0.012 C
ENDBRANCH  18  19
BRANCH  18  21
HETATM   21  O1  UNL     1       0.351  -0.216  -2.448  1.00  0.00    -0.362 OA
ATOM     22  H1  UNL     1      -0.425  -0.041  -1.928  1.00  0.00     0.217 HD
ENDBRANCH  18  21
ENDBRANCH   1  18
TORSDOF 8
ENDMDL