MODEL 2
REMARK VINA RESULT: -4.723936377      2.264      3.312
REMARK  4 active torsions:
REMARK  status: ('A' for Active; 'I' for Inactive)
REMARK    1  A    between atoms: C2_2  and  C3_6
REMARK    2  A    between atoms: C3_6  and  C4_7
REMARK    3  A    between atoms: C3_6  and  C5_9
REMARK    4  A    between atoms: C5_9  and  N2_11
ROOT
HETATM    1  C5  UNL     1      -0.683  -0.115  -8.622  1.00  0.00     0.098 C
HETATM    2  S2  UNL     1      -2.197   0.418  -8.906  1.00  0.00    -0.064 SA
ENDROOT
BRANCH   1   3
HETATM    3  C3  UNL     1       0.204  -0.446  -9.760  1.00  0.00     0.106 C
BRANCH   3   4
HETATM    4  C2  UNL     1       0.134   0.531 -10.849  1.00  0.00    -0.012 C
HETATM    5  C1  UNL     1       0.175   2.010 -10.639  1.00  0.00     0.063 C
HETATM    6  N1  UNL     1       0.031   0.116 -12.054  1.00  0.00    -0.405 N
ATOM      7  H12 UNL     1      -0.018   0.796 -12.812  1.00  0.00     0.155 HD
ATOM      8  H11 UNL     1       0.003  -0.894 -12.198  1.00  0.00     0.155 HD
ENDBRANCH   3   4
BRANCH   3   9
HETATM    9  C4  UNL     1      -0.090  -1.791 -10.280  1.00  0.00     0.128 C
HETATM   10  S1  UNL     1       0.623  -2.931  -9.815  1.00  0.00    -0.125 SA
ENDBRANCH   3   9
ENDBRANCH   1   3
BRANCH   1  11
HETATM   11  N2  UNL     1      -0.255  -0.246  -7.275  1.00  0.00    -0.270 N
HETATM   12  C6  UNL     1      -0.545  -1.260  -6.407  1.00  0.00     0.128 A
HETATM   13 CL1  UNL     1      -1.548  -2.612  -6.885  1.00  0.00    -0.062 Cl
HETATM   14  C7  UNL     1       0.054  -1.027  -5.189  1.00  0.00     0.133 A
HETATM   15  N3  UNL     1       0.715   0.134  -5.312  1.00  0.00    -0.340 N
HETATM   16  C8  UNL     1       0.523   0.591  -6.562  1.00  0.00     0.184 A
ATOM     17  H3  UNL     1       1.266   0.590  -4.585  1.00  0.00     0.167 HD
HETATM   18  S3  UNL     1       1.180   1.995  -7.088  1.00  0.00    -0.040 SA
ENDBRANCH   1  11
TORSDOF 4
ENDMDL