MODEL 2
REMARK VINA RESULT: -5.724205024      2.440      3.726
REMARK  3 active torsions:
REMARK  status: ('A' for Active; 'I' for Inactive)
REMARK    1  A    between atoms: C3_3  and  C5_5
REMARK    2  A    between atoms: C5_5  and  C6_6
REMARK    3  A    between atoms: C8_13  and  C9_14
ROOT
HETATM    1  C1  UNL     1      -0.811   2.663 -10.474  1.00  0.00     0.012 C
HETATM    2  C2  UNL     1      -0.365   2.322  -9.416  1.00  0.00    -0.110 C
HETATM    3  C3  UNL     1       0.188   1.885  -8.129  1.00  0.00     0.093 C
HETATM    4  C4  UNL     1       1.640   2.277  -7.991  1.00  0.00     0.026 C
ENDROOT
BRANCH   3   5
HETATM    5  C5  UNL     1       0.002   0.385  -8.033  1.00  0.00     0.119 A
HETATM    6  N2  UNL     1       0.830  -0.278  -9.035  1.00  0.00    -0.107 NA
HETATM    7  N3  UNL     1       1.768  -1.027  -8.320  1.00  0.00    -0.030 NA
HETATM    8  N4  UNL     1       1.522  -0.899  -6.950  1.00  0.00    -0.288 N
HETATM    9  C8  UNL     1       0.517  -0.098  -6.753  1.00  0.00     0.070 A
ATOM     10  H4  UNL     1       2.052  -1.366  -6.214  1.00  0.00     0.183 HD
BRANCH   5  11
HETATM   11  C6  UNL     1      -1.422   0.018  -8.284  1.00  0.00     0.160 C
HETATM   12  C7  UNL     1      -1.570  -1.436  -8.229  1.00  0.00     0.061 C
HETATM   13  N1  UNL     1      -1.705  -2.592  -8.176  1.00  0.00    -0.197 NA
ENDBRANCH   5  11
BRANCH   9  14
HETATM   14  C9  UNL     1       0.005   0.248  -5.430  1.00  0.00     0.052 A
HETATM   15  S1  UNL     1       0.166   1.743  -4.627  1.00  0.00    -0.098 SA
HETATM   16  C10 UNL     1      -0.666   1.375  -3.183  1.00  0.00     0.052 A
HETATM   17  C11 UNL     1      -1.048   0.076  -3.380  1.00  0.00     0.032 A
HETATM   18  C12 UNL     1      -0.704  -0.505  -4.536  1.00  0.00     0.053 A
HETATM   19 CL1  UNL     1      -1.121  -2.190  -4.952  1.00  0.00    -0.083 Cl
ENDBRANCH   9  14
ENDBRANCH   3   5
TORSDOF 3
ENDMDL