MODEL 3
REMARK VINA RESULT: -6.413011844      9.790     10.777
REMARK  3 active torsions:
REMARK  status: ('A' for Active; 'I' for Inactive)
REMARK    1  A    between atoms: C2_2  and  C4_4
REMARK    2  A    between atoms: C4_4  and  N1_5
REMARK       I    between atoms: N1_5  and  C5_7
REMARK       I    between atoms: C5_7  and  N2_9
REMARK    3  A    between atoms: N2_9  and  C6_11
ROOT
HETATM    1  C6  UNL     1      -0.658  -0.791  -7.896  1.00  0.00     0.104 A
HETATM    2  S1  UNL     1      -0.921   0.858  -8.249  1.00  0.00    -0.049 SA
HETATM    3  C7  UNL     1      -0.568   0.844  -9.916  1.00  0.00     0.130 A
HETATM    4  N3  UNL     1      -0.474   1.573 -11.074  1.00  0.00    -0.233 N
ATOM      5  H3  UNL     1      -0.651   2.570 -11.200  1.00  0.00     0.197 HD
HETATM    6  O2  UNL     1      -0.111   0.719 -11.966  1.00  0.00    -0.155 OA
HETATM    7  N4  UNL     1       0.032  -0.474 -11.487  1.00  0.00    -0.237 N
ATOM      8  H4  UNL     1       0.312  -1.295 -12.023  1.00  0.00     0.197 HD
HETATM    9  C8  UNL     1      -0.252  -0.460 -10.149  1.00  0.00     0.117 A
HETATM   10  C9  UNL     1      -0.297  -1.314  -9.105  1.00  0.00     0.099 A
HETATM   11 CL1  UNL     1       0.083  -3.055  -9.214  1.00  0.00    -0.079 Cl
ENDROOT
BRANCH   1  12
HETATM   12  N2  UNL     1      -0.791  -1.451  -6.621  1.00  0.00    -0.301 N
HETATM   13  C5  UNL     1       0.035  -0.975  -5.550  1.00  0.00     0.321 C
HETATM   14  N1  UNL     1      -0.064  -1.593  -4.283  1.00  0.00    -0.343 N
HETATM   15  O1  UNL     1       0.830  -0.034  -5.714  1.00  0.00    -0.247 OA
ATOM     16  H1  UNL     1      -0.717  -2.365  -4.145  1.00  0.00     0.164 HD
ATOM     17  H2  UNL     1      -1.444  -2.223  -6.487  1.00  0.00     0.171 HD
BRANCH  14  18
HETATM   18  C4  UNL     1       0.757  -1.138  -3.174  1.00  0.00     0.128 C
BRANCH  18  19
HETATM   19  C2  UNL     1       1.749  -2.204  -2.805  1.00  0.00    -0.005 C
HETATM   20  C1  UNL     1       3.143  -1.692  -3.066  1.00  0.00     0.011 C
HETATM   21  C3  UNL     1       1.585  -2.548  -1.355  1.00  0.00     0.011 C
ENDBRANCH  18  19
ENDBRANCH  14  18
ENDBRANCH   1  12
TORSDOF 3
ENDMDL