MODEL 5
REMARK VINA RESULT: -5.071584341      6.843      9.780
REMARK  4 active torsions:
REMARK  status: ('A' for Active; 'I' for Inactive)
REMARK    1  A    between atoms: C2_2  and  N1_3
REMARK    2  A    between atoms: C3_4  and  C4_5
REMARK    3  A    between atoms: C6_9  and  N3_10
REMARK    4  A    between atoms: C9_19  and  C10_20
ROOT
HETATM    1  N1  UNL     1      -0.168  -0.314  -4.608  1.00  0.00    -0.321 N
HETATM    2  C3  UNL     1       0.270  -0.515  -5.822  1.00  0.00     0.122 A
HETATM    3  N5  UNL     1       1.372  -1.311  -5.686  1.00  0.00    -0.339 N
ATOM      4  H5  UNL     1       1.938  -1.646  -6.465  1.00  0.00     0.167 HD
HETATM    5  C9  UNL     1       1.614  -1.595  -4.397  1.00  0.00     0.074 A
HETATM    6  C13 UNL     1       0.632  -0.963  -3.685  1.00  0.00     0.134 A
HETATM    7 CL1  UNL     1       0.495  -1.015  -1.955  1.00  0.00    -0.062 Cl
ENDROOT
BRANCH   2   8
HETATM    8  C4  UNL     1      -0.067   0.046  -7.126  1.00  0.00     0.047 A
HETATM    9  C5  UNL     1       0.511   1.334  -7.423  1.00  0.00     0.123 A
HETATM   10  N2  UNL     1       0.275   1.820  -8.619  1.00  0.00    -0.201 N
HETATM   11  C6  UNL     1      -0.461   1.197  -9.547  1.00  0.00     0.675 A
ATOM     12  H2  UNL     1       0.676   2.726  -8.856  1.00  0.00     0.183 HD
HETATM   13  N4  UNL     1      -1.012  -0.009  -9.289  1.00  0.00    -0.195 N
HETATM   14  C7  UNL     1      -0.810  -0.587  -8.068  1.00  0.00     0.038 A
ATOM     15  H4  UNL     1      -1.572  -0.482  -9.998  1.00  0.00     0.184 HD
HETATM   16  C8  UNL     1      -1.391  -1.967  -7.850  1.00  0.00     0.070 C
BRANCH  11  17
HETATM   17  N3  UNL     1      -0.658   1.711 -10.714  1.00  0.00    -0.234 N
ATOM     18  H32 UNL     1      -0.557   2.721 -10.812  1.00  0.00     0.174 HD
ATOM     19  H31 UNL     1      -0.919   1.136 -11.516  1.00  0.00     0.174 HD
ENDBRANCH  11  17
ENDBRANCH   2   8
BRANCH   1  20
HETATM   20  C2  UNL     1      -1.277   0.478  -4.102  1.00  0.00     0.127 C
HETATM   21  C1  UNL     1      -0.794   1.882  -3.720  1.00  0.00     0.027 C
ENDBRANCH   1  20
BRANCH   5  22
HETATM   22  C10 UNL     1       2.819  -2.284  -3.823  1.00  0.00    -0.058 C
HETATM   23  C11 UNL     1       3.568  -1.479  -2.832  1.00  0.00     0.045 C
HETATM   24  C12 UNL     1       3.589  -3.119  -4.792  1.00  0.00     0.045 C
ENDBRANCH   5  22
TORSDOF 4
ENDMDL