MODEL 5
REMARK VINA RESULT: -5.828400232      2.219      2.770
REMARK  4 active torsions:
REMARK  status: ('A' for Active; 'I' for Inactive)
REMARK    1  A    between atoms: C2_2  and  C3_3
REMARK    2  A    between atoms: C3_3  and  O1_5
REMARK    3  A    between atoms: C3_3  and  C5_7
REMARK    4  A    between atoms: C6_8  and  C7_9
ROOT
HETATM    1  C7  UNL     1       0.175   0.148  -7.948  1.00  0.00     0.041 A
HETATM    2  C8  UNL     1       0.620   1.166  -8.741  1.00  0.00     0.120 A
HETATM    3 CL1  UNL     1       1.147   2.665  -8.006  1.00  0.00    -0.063 Cl
HETATM    4  N1  UNL     1       0.677   1.077 -10.116  1.00  0.00    -0.298 N
ATOM      5  H1  UNL     1       1.015   1.857 -10.681  1.00  0.00     0.171 HD
HETATM    6  C9  UNL     1       0.278  -0.058 -10.684  1.00  0.00     0.328 A
HETATM    7  O2  UNL     1       0.319  -0.168 -11.933  1.00  0.00    -0.246 OA
HETATM    8  N2  UNL     1      -0.167  -1.086  -9.943  1.00  0.00    -0.294 N
HETATM    9  C10 UNL     1      -0.584  -2.286 -10.635  1.00  0.00     0.162 C
HETATM   10  C11 UNL     1      -0.237  -1.036  -8.606  1.00  0.00     0.119 A
HETATM   11  S1  UNL     1      -0.786  -2.314  -7.756  1.00  0.00    -0.059 SA
ENDROOT
BRANCH   1  12
HETATM   12  C6  UNL     1       0.081   0.154  -6.520  1.00  0.00     0.017 C
HETATM   13  C5  UNL     1      -0.673   0.791  -5.679  1.00  0.00     0.011 C
BRANCH  13  14
HETATM   14  C3  UNL     1      -0.538   0.586  -4.187  1.00  0.00     0.072 C
HETATM   15  C4  UNL     1       0.870   0.166  -3.812  1.00  0.00     0.050 C
BRANCH  14  16
HETATM   16  C2  UNL     1      -0.950   1.818  -3.434  1.00  0.00     0.037 C
HETATM   17  C1  UNL     1      -2.485   1.807  -3.331  1.00  0.00     0.008 C
ENDBRANCH  14  16
BRANCH  14  18
HETATM   18  O1  UNL     1      -1.406  -0.436  -3.772  1.00  0.00    -0.386 OA
ATOM     19  H1  UNL     1      -1.088  -0.727  -2.926  1.00  0.00     0.211 HD
ENDBRANCH  14  18
ENDBRANCH  13  14
ENDBRANCH   1  12
TORSDOF 4
ENDMDL