MODEL 2
REMARK VINA RESULT: -6.705917363      2.171      3.970
REMARK  4 active torsions:
REMARK  status: ('A' for Active; 'I' for Inactive)
REMARK    1  A    between atoms: C2_2  and  C3_3
REMARK    2  A    between atoms: C3_3  and  C6_6
REMARK    3  A    between atoms: C6_6  and  N1_7
REMARK    4  A    between atoms: C11_18  and  N5_19
ROOT
HETATM    1  N1  UNL     1      -0.418   0.131  -8.009  1.00  0.00    -0.306 N
HETATM    2  C7  UNL     1       0.276   1.142  -7.391  1.00  0.00     0.183 A
HETATM    3 CL1  UNL     1       0.930   2.623  -8.105  1.00  0.00    -0.044 Cl
HETATM    4  N2  UNL     1       0.334   0.806  -6.102  1.00  0.00    -0.327 N
ATOM      5  H2  UNL     1       0.792   1.363  -5.381  1.00  0.00     0.168 HD
HETATM    6  C8  UNL     1      -0.280  -0.344  -5.881  1.00  0.00     0.118 A
HETATM    7  C9  UNL     1      -0.531  -1.134  -4.770  1.00  0.00     0.160 A
HETATM    8  C10 UNL     1       0.002  -0.628  -3.517  1.00  0.00     0.120 C
HETATM    9  N3  UNL     1       0.420  -0.240  -2.512  1.00  0.00    -0.190 NA
HETATM   10  N4  UNL     1      -1.215  -2.286  -4.831  1.00  0.00    -0.180 N
ATOM     11  H4  UNL     1      -1.376  -2.837  -3.987  1.00  0.00     0.185 HD
HETATM   12  C11 UNL     1      -1.686  -2.706  -6.022  1.00  0.00     0.678 A
HETATM   13  N6  UNL     1      -1.447  -1.950  -7.095  1.00  0.00    -0.174 N
ATOM     14  H6  UNL     1      -1.811  -2.283  -7.988  1.00  0.00     0.186 HD
HETATM   15  C12 UNL     1      -0.774  -0.794  -7.104  1.00  0.00     0.155 A
ENDROOT
BRANCH  12  16
HETATM   16  N5  UNL     1      -2.351  -3.824  -6.093  1.00  0.00    -0.234 N
ATOM     17  H52 UNL     1      -1.965  -4.661  -6.530  1.00  0.00     0.174 HD
ATOM     18  H51 UNL     1      -3.291  -3.876  -5.699  1.00  0.00     0.174 HD
ENDBRANCH  12  16
BRANCH   1  19
HETATM   19  C6  UNL     1      -0.688   0.151  -9.403  1.00  0.00     0.142 C
BRANCH  19  20
HETATM   20  C3  UNL     1       0.114  -0.643 -10.352  1.00  0.00    -0.031 C
HETATM   21  C4  UNL     1       1.585  -0.721  -9.889  1.00  0.00     0.016 C
HETATM   22  C5  UNL     1       0.120   0.026 -11.699  1.00  0.00     0.016 C
BRANCH  20  23
HETATM   23  C2  UNL     1      -0.290  -2.085 -10.532  1.00  0.00     0.006 C
HETATM   24  C1  UNL     1       0.628  -3.072  -9.878  1.00  0.00     0.006 C
ENDBRANCH  20  23
ENDBRANCH  19  20
ENDBRANCH   1  19
TORSDOF 4
ENDMDL