MODEL 1
REMARK VINA RESULT: -4.928265319      0.000      0.000
REMARK  4 active torsions:
REMARK  status: ('A' for Active; 'I' for Inactive)
REMARK    1  A    between atoms: C2_2  and  C3_3
REMARK    2  A    between atoms: C2_2  and  N1_6
REMARK    3  A    between atoms: C8_11  and  N3_12
REMARK    4  A    between atoms: N5_18  and  C10_19
ROOT
HETATM    1  N1  UNL     1      -4.925   2.477   1.048  1.00  0.00    -0.322 N
HETATM    2  C6  UNL     1      -3.598   2.049   0.944  1.00  0.00     0.185 A
HETATM    3  N2  UNL     1      -2.878   2.646   1.891  1.00  0.00    -0.346 N
ATOM      4  H2  UNL     1      -1.878   2.514   2.044  1.00  0.00     0.167 HD
HETATM    5  C7  UNL     1      -3.674   3.450   2.614  1.00  0.00     0.122 A
HETATM    6  C8  UNL     1      -3.480   4.277   3.679  1.00  0.00     0.131 A
HETATM    7  N4  UNL     1      -4.483   4.972   4.212  1.00  0.00    -0.337 N
ATOM      8  H4  UNL     1      -4.342   5.592   5.009  1.00  0.00     0.168 HD
HETATM    9  C9  UNL     1      -5.691   4.816   3.644  1.00  0.00     0.188 A
HETATM   10  N5  UNL     1      -6.002   4.028   2.591  1.00  0.00    -0.304 N
HETATM   11  C13 UNL     1      -4.954   3.316   2.051  1.00  0.00     0.144 A
ENDROOT
BRANCH   1  12
HETATM   12  C2  UNL     1      -5.817   1.940   0.137  1.00  0.00     0.092 C
HETATM   13  C1  UNL     1      -4.945   1.767  -1.176  1.00  0.00     0.033 C
BRANCH  12  14
HETATM   14  C3  UNL     1      -6.044   0.412   0.460  1.00  0.00     0.009 A
HETATM   15  C4  UNL     1      -7.390  -0.128   0.441  1.00  0.00     0.007 A
HETATM   16  C5  UNL     1      -6.419  -0.464  -0.708  1.00  0.00     0.007 A
ENDBRANCH  12  14
ENDBRANCH   1  12
BRANCH  10  17
HETATM   17  C10 UNL     1      -7.286   3.887   2.027  1.00  0.00     0.109 C
HETATM   18  C11 UNL     1      -8.050   5.080   2.704  1.00  0.00     0.056 C
HETATM   19  C12 UNL     1      -8.183   2.799   2.519  1.00  0.00     0.056 C
HETATM   20 CL1  UNL     1      -7.601   4.553   0.414  1.00  0.00    -0.096 Cl
ENDBRANCH  10  17
BRANCH   6  21
HETATM   21  N3  UNL     1      -2.263   4.333   4.126  1.00  0.00    -0.383 N
ATOM     22  H32 UNL     1      -1.670   5.155   4.023  1.00  0.00     0.157 HD
ATOM     23  H31 UNL     1      -1.930   3.491   4.596  1.00  0.00     0.157 HD
ENDBRANCH   6  21
TORSDOF 4
ENDMDL