MODEL 4
REMARK VINA RESULT: -3.910881928     10.091     12.156
REMARK  2 active torsions:
REMARK  status: ('A' for Active; 'I' for Inactive)
REMARK       I    between atoms: N1_2  and  C2_4
REMARK       I    between atoms: C2_4  and  N2_5
REMARK    1  A    between atoms: C3_7  and  N3_9
REMARK    2  A    between atoms: N6_14  and  C5_16
ROOT
HETATM    1  C1  UNL     1      -1.397  -2.337  -7.329  1.00  0.00     0.165 C
HETATM    2  N1  UNL     1      -0.960  -1.071  -6.770  1.00  0.00    -0.231 N
ATOM      3  H1  UNL     1      -1.639  -0.383  -6.448  1.00  0.00     0.177 HD
HETATM    4  C2  UNL     1       0.438  -0.808  -6.681  1.00  0.00     0.676 C
HETATM    5  N2  UNL     1       1.197  -1.497  -5.710  1.00  0.00    -0.166 N
ATOM      6  H2  UNL     1       2.003  -2.031  -6.033  1.00  0.00     0.186 HD
HETATM    7  C3  UNL     1       0.951  -1.501  -4.464  1.00  0.00     0.195 C
HETATM    8 CL1  UNL     1       1.968  -2.395  -3.369  1.00  0.00    -0.044 Cl
HETATM    9  N6  UNL     1       1.011   0.025  -7.448  1.00  0.00    -0.220 N
ATOM     10  H6  UNL     1       2.014   0.153  -7.317  1.00  0.00     0.178 HD
ENDROOT
BRANCH   9  11
HETATM   11  C5  UNL     1       0.390   0.803  -8.479  1.00  0.00     0.116 C
HETATM   12  C6  UNL     1      -0.864   1.551  -8.076  1.00  0.00     0.044 C
HETATM   13  C7  UNL     1      -1.412   1.206  -9.449  1.00  0.00     0.076 C
HETATM   14 BR1  UNL     1      -0.853   2.521 -10.727  1.00  0.00    -0.090 Br
HETATM   15  C8  UNL     1      -0.492   0.002  -9.425  1.00  0.00     0.095 C
HETATM   16 BR2  UNL     1       0.335  -0.428 -11.101  1.00  0.00    -0.088 Br
ENDBRANCH   9  11
BRANCH   7  17
HETATM   17  N3  UNL     1      -0.150  -0.782  -3.950  1.00  0.00    -0.309 N
HETATM   18  C4  UNL     1      -0.221   0.499  -3.929  1.00  0.00     0.203 C
HETATM   19  N4  UNL     1      -1.354   1.165  -3.400  1.00  0.00    -0.066 NA
HETATM   20  N5  UNL     1       0.869   1.240  -4.452  1.00  0.00    -0.066 NA
ATOM     21  H3  UNL     1      -0.936  -1.311  -3.573  1.00  0.00     0.170 HD
ENDBRANCH   7  17
TORSDOF 2
ENDMDL