MODEL 4
REMARK VINA RESULT: -3.758820384      3.330      5.153
REMARK  2 active torsions:
REMARK  status: ('A' for Active; 'I' for Inactive)
REMARK       I    between atoms: C3_5  and  N2_6
REMARK       I    between atoms: C3_5  and  N5_13
REMARK       I    between atoms: N2_6  and  C4_8
REMARK    1  A    between atoms: C9_19  and  C10_20
REMARK    2  A    between atoms: C10_20  and  O1_21
ROOT
HETATM    1  C1  UNL     1      -6.831   0.122   0.206  1.00  0.00     0.124 C
HETATM    2  C2  UNL     1      -5.754   0.258   0.777  1.00  0.00    -0.059 C
HETATM    3  N1  UNL     1      -4.535   0.390   1.434  1.00  0.00    -0.160 N
ATOM      4  H1  UNL     1      -3.896  -0.403   1.493  1.00  0.00     0.194 HD
HETATM    5  C3  UNL     1      -4.219   1.514   1.964  1.00  0.00     0.691 C
HETATM    6  N2  UNL     1      -5.149   2.582   1.850  1.00  0.00    -0.163 N
ATOM      7  H2  UNL     1      -5.616   2.909   2.696  1.00  0.00     0.187 HD
HETATM    8  C4  UNL     1      -5.463   3.214   0.626  1.00  0.00     0.202 C
HETATM    9  N3  UNL     1      -4.534   3.075  -0.449  1.00  0.00    -0.063 NA
HETATM   10  N4  UNL     1      -6.511   3.900   0.410  1.00  0.00    -0.368 N
ATOM     11  H4  UNL     1      -6.627   4.309  -0.517  1.00  0.00     0.161 HD
HETATM   12  C5  UNL     1      -7.552   4.142   1.384  1.00  0.00     0.148 C
HETATM   13  N5  UNL     1      -2.982   1.691   2.646  1.00  0.00    -0.195 N
HETATM   14  C6  UNL     1      -2.723   2.748   3.600  1.00  0.00     0.176 C
HETATM   15 BR1  UNL     1      -2.890   4.505   2.843  1.00  0.00    -0.068 Br
HETATM   16  C7  UNL     1      -1.327   2.486   4.122  1.00  0.00     0.055 C
HETATM   17  C8  UNL     1      -1.137   1.027   3.840  1.00  0.00     0.086 C
HETATM   18 BR2  UNL     1       0.753   0.630   3.749  1.00  0.00    -0.089 Br
HETATM   19  C9  UNL     1      -1.813   0.857   2.498  1.00  0.00     0.141 C
ENDROOT
BRANCH  19  20
HETATM   20  C10 UNL     1      -0.868   1.377   1.440  1.00  0.00     0.191 C
BRANCH  20  21
HETATM   21  O1  UNL     1      -1.519   1.913   0.345  1.00  0.00    -0.399 OA
ATOM     22  H1  UNL     1      -1.141   2.734   0.051  1.00  0.00     0.209 HD
ENDBRANCH  20  21
ENDBRANCH  19  20
TORSDOF 2
ENDMDL