MODEL 3
REMARK VINA RESULT: -5.480965218      3.940      5.816
REMARK  4 active torsions:
REMARK  status: ('A' for Active; 'I' for Inactive)
REMARK    1  A    between atoms: C2_2  and  C3_3
REMARK    2  A    between atoms: C4_4  and  C5_5
REMARK    3  A    between atoms: C5_5  and  C7_8
REMARK    4  A    between atoms: C7_8  and  N1_9
REMARK       I    between atoms: N1_9  and  C8_11
REMARK       I    between atoms: N3_13  and  C9_15
REMARK       I    between atoms: N5_17  and  C10_19
REMARK       I    between atoms: C10_19  and  N6_21
REMARK       I    between atoms: N7_23  and  C11_25
ROOT
HETATM    1  N1  UNL     1      -1.804   2.282  -3.579  1.00  0.00    -0.362 N
ATOM      2  H1  UNL     1      -2.036   2.779  -4.438  1.00  0.00     0.162 HD
HETATM    3  C8  UNL     1      -2.848   1.993  -2.603  1.00  0.00     0.190 C
HETATM    4  N2  UNL     1      -3.824   1.050  -2.979  1.00  0.00    -0.063 NA
HETATM    5  N3  UNL     1      -2.743   2.630  -1.514  1.00  0.00    -0.305 N
ATOM      6  H3  UNL     1      -1.938   3.256  -1.485  1.00  0.00     0.171 HD
HETATM    7  C9  UNL     1      -3.495   2.652  -0.362  1.00  0.00     0.198 C
HETATM    8  N4  UNL     1      -4.687   1.897  -0.224  1.00  0.00    -0.063 NA
HETATM    9  N5  UNL     1      -3.050   3.395   0.601  1.00  0.00    -0.281 N
ATOM     10  H5  UNL     1      -2.181   3.899   0.423  1.00  0.00     0.173 HD
HETATM   11  C10 UNL     1      -3.632   3.583   1.861  1.00  0.00     0.341 C
HETATM   12  O1  UNL     1      -2.856   3.440   2.873  1.00  0.00    -0.245 OA
HETATM   13  N6  UNL     1      -4.964   3.907   2.132  1.00  0.00    -0.249 N
ATOM     14  H6  UNL     1      -5.309   3.606   3.043  1.00  0.00     0.192 HD
HETATM   15  N7  UNL     1      -5.791   4.510   1.423  1.00  0.00    -0.266 N
ATOM     16  H7  UNL     1      -5.518   4.841   0.498  1.00  0.00     0.190 HD
HETATM   17  C11 UNL     1      -7.140   4.747   1.901  1.00  0.00     0.232 C
HETATM   18  C12 UNL     1      -7.562   4.144   3.196  1.00  0.00     0.119 C
HETATM   19  O2  UNL     1      -7.938   5.443   1.238  1.00  0.00    -0.272 OA
ENDROOT
BRANCH   1  20
HETATM   20  C7  UNL     1      -0.464   1.872  -3.335  1.00  0.00     0.156 C
BRANCH  20  21
HETATM   21  C5  UNL     1       0.032   1.186  -4.618  1.00  0.00     0.093 C
HETATM   22  C6  UNL     1       1.202   2.033  -5.168  1.00  0.00     0.043 C
HETATM   23 BR1  UNL     1      -1.368   0.962  -5.890  1.00  0.00    -0.070 Br
BRANCH  21  24
HETATM   24  C4  UNL     1       0.578  -0.103  -4.204  1.00  0.00    -0.084 C
HETATM   25  C3  UNL     1       1.054  -1.164  -3.849  1.00  0.00    -0.105 C
BRANCH  25  26
HETATM   26  C2  UNL     1       1.658  -2.439  -3.408  1.00  0.00     0.089 C
HETATM   27  C1  UNL     1       2.985  -2.147  -2.716  1.00  0.00     0.018 C
ENDBRANCH  25  26
ENDBRANCH  21  24
ENDBRANCH  20  21
ENDBRANCH   1  20
TORSDOF 4
ENDMDL