MODEL 5
REMARK VINA RESULT: -4.258774606      7.193      8.808
REMARK  2 active torsions:
REMARK  status: ('A' for Active; 'I' for Inactive)
REMARK       I    between atoms: N1_1  and  C1_4
REMARK       I    between atoms: C1_4  and  N5_16
REMARK       I    between atoms: N2_5  and  C2_7
REMARK       I    between atoms: C2_7  and  N3_9
REMARK    1  A    between atoms: N5_16  and  N6_18
REMARK       I    between atoms: N6_18  and  C7_19
REMARK    2  A    between atoms: C7_19  and  C8_21
ROOT
HETATM    1  N1  UNL     1      -0.073  -0.415   4.042  1.00  0.00    -0.232 N
ATOM      2  H11 UNL     1      -0.623   0.208   4.633  1.00  0.00     0.174 HD
ATOM      3  H12 UNL     1       0.073  -1.366   4.382  1.00  0.00     0.174 HD
HETATM    4  C1  UNL     1       0.339  -0.102   2.770  1.00  0.00     0.705 C
HETATM    5  N2  UNL     1       1.029  -0.884   2.029  1.00  0.00    -0.140 N
ATOM      6  H2  UNL     1       1.303  -0.602   1.087  1.00  0.00     0.189 HD
HETATM    7  C2  UNL     1       1.404  -2.146   2.542  1.00  0.00     0.336 C
HETATM    8  O1  UNL     1       0.671  -2.754   3.329  1.00  0.00    -0.246 OA
HETATM    9  N3  UNL     1       2.632  -2.715   2.164  1.00  0.00    -0.331 N
HETATM   10  C3  UNL     1       3.160  -3.872   2.864  1.00  0.00     0.143 C
HETATM   11  C4  UNL     1       4.577  -4.175   2.633  1.00  0.00     0.123 C
HETATM   12  N4  UNL     1       5.104  -3.701   1.361  1.00  0.00    -0.247 NA
HETATM   13 BR1  UNL     1       6.905  -4.109   1.232  1.00  0.00     0.012 Br
HETATM   14  C5  UNL     1       4.813  -2.250   1.275  1.00  0.00     0.123 C
HETATM   15  C6  UNL     1       3.329  -2.175   1.015  1.00  0.00     0.143 C
HETATM   16  N5  UNL     1       0.133   1.254   2.284  1.00  0.00    -0.062 N
ATOM     17  H5  UNL     1       0.571   1.994   2.833  1.00  0.00     0.221 HD
ENDROOT
BRANCH  16  18
HETATM   18  N6  UNL     1      -0.530   1.639   1.254  1.00  0.00    -0.271 NA
HETATM   19  C7  UNL     1      -1.247   2.056   0.133  1.00  0.00     0.323 C
HETATM   20  O2  UNL     1      -0.869   1.814  -1.066  1.00  0.00    -0.254 OA
BRANCH  19  21
HETATM   21  C8  UNL     1      -2.528   2.824   0.273  1.00  0.00     0.206 C
HETATM   22 BR2  UNL     1      -3.455   1.974   1.762  1.00  0.00    -0.085 Br
ENDBRANCH  19  21
ENDBRANCH  16  18
TORSDOF 2
ENDMDL