MODEL 4
REMARK VINA RESULT: -4.294031125      7.194      9.845
REMARK  1 active torsions:
REMARK  status: ('A' for Active; 'I' for Inactive)
REMARK    1  A    between atoms: C1_2  and  C2_4
REMARK       I    between atoms: N2_10  and  C8_11
REMARK       I    between atoms: C8_11  and  N3_13
REMARK       I    between atoms: N4_16  and  C9_17
REMARK       I    between atoms: C9_17  and  N5_19
ROOT
HETATM    1  C2  UNL     1       0.333   0.795  -6.405  1.00  0.00     0.201 C
HETATM    2  C3  UNL     1       0.539   0.514  -4.953  1.00  0.00     0.121 C
HETATM    3  C4  UNL     1      -0.561   1.235  -4.180  1.00  0.00     0.030 C
HETATM    4  C5  UNL     1      -1.743   0.334  -4.462  1.00  0.00     0.029 C
HETATM    5  C6  UNL     1      -1.171  -1.002  -4.894  1.00  0.00     0.107 C
HETATM    6  C7  UNL     1      -1.226  -1.162  -6.401  1.00  0.00     0.154 C
HETATM    7  N2  UNL     1      -0.718   0.038  -7.029  1.00  0.00    -0.315 N
HETATM    8  C8  UNL     1      -1.258   0.469  -8.268  1.00  0.00     0.346 C
HETATM    9  O2  UNL     1      -2.195  -0.225  -8.792  1.00  0.00    -0.245 OA
HETATM   10  N3  UNL     1      -0.831   1.614  -8.966  1.00  0.00    -0.173 N
ATOM     11  H3  UNL     1      -0.085   2.186  -8.570  1.00  0.00     0.204 HD
HETATM   12  F1  UNL     1      -1.379   1.976 -10.138  1.00  0.00    -0.097 F
HETATM   13  N4  UNL     1       0.257  -0.862  -4.590  1.00  0.00    -0.320 N
HETATM   14  C9  UNL     1       1.116  -1.854  -4.071  1.00  0.00     0.337 C
HETATM   15  O3  UNL     1       0.649  -2.993  -3.828  1.00  0.00    -0.246 OA
HETATM   16  N5  UNL     1       2.472  -1.620  -3.814  1.00  0.00    -0.141 N
ATOM     17  H5  UNL     1       3.075  -1.259  -4.553  1.00  0.00     0.189 HD
HETATM   18  C10 UNL     1       2.958  -1.860  -2.650  1.00  0.00     0.686 A
HETATM   19  N6  UNL     1       4.273  -1.643  -2.365  1.00  0.00    -0.193 N
ATOM     20  H6  UNL     1       4.981  -1.287  -3.009  1.00  0.00     0.184 HD
HETATM   21  C11 UNL     1       4.466  -1.986  -1.080  1.00  0.00     0.049 A
HETATM   22  C12 UNL     1       3.280  -2.422  -0.534  1.00  0.00     0.049 A
HETATM   23  N7  UNL     1       2.379  -2.327  -1.536  1.00  0.00    -0.193 N
ATOM     24  H7  UNL     1       1.393  -2.577  -1.455  1.00  0.00     0.184 HD
HETATM   25  C13 UNL     1       3.521  -2.791   0.877  1.00  0.00     0.060 C
HETATM   26  C14 UNL     1       4.747  -1.984   1.239  1.00  0.00     0.012 C
HETATM   27  C15 UNL     1       5.549  -2.046  -0.052  1.00  0.00     0.060 C
ENDROOT
BRANCH   1  28
HETATM   28  C1  UNL     1       1.619   0.623  -7.142  1.00  0.00     0.256 C
HETATM   29  N1  UNL     1       2.281   1.712  -7.767  1.00  0.00    -0.060 NA
HETATM   30  O1  UNL     1       2.110  -0.516  -7.200  1.00  0.00    -0.274 OA
ENDBRANCH   1  28
TORSDOF 1
ENDMDL