MODEL 2
REMARK VINA RESULT: -5.209472261      9.188     11.723
REMARK  1 active torsions:
REMARK  status: ('A' for Active; 'I' for Inactive)
REMARK       I    between atoms: N3_12  and  C6_13
REMARK       I    between atoms: C6_13  and  N5_17
REMARK       I    between atoms: N6_23  and  C12_24
REMARK    1  A    between atoms: C12_24  and  C13_26
ROOT
HETATM    1  N1  UNL     1      -1.548  -0.190  -7.109  1.00  0.00    -0.234 N
ATOM      2  H11 UNL     1      -1.171  -0.195  -6.161  1.00  0.00     0.174 HD
ATOM      3  H12 UNL     1      -2.390  -0.664  -7.436  1.00  0.00     0.174 HD
HETATM    4  C1  UNL     1      -0.842   0.499  -7.922  1.00  0.00     0.688 C
HETATM    5  N2  UNL     1      -1.381   0.505  -9.279  1.00  0.00    -0.223 N
ATOM      6  H2  UNL     1      -2.374   0.306  -9.395  1.00  0.00     0.177 HD
HETATM    7  C2  UNL     1      -0.616   0.771 -10.451  1.00  0.00     0.175 C
HETATM    8  C3  UNL     1       0.045   2.088 -10.549  1.00  0.00     0.190 C
HETATM    9  F1  UNL     1      -0.805   2.939 -11.267  1.00  0.00    -0.248 F
HETATM   10  C4  UNL     1       0.378   2.788  -9.283  1.00  0.00     0.060 C
HETATM   11  C5  UNL     1       1.208   1.967  -8.312  1.00  0.00     0.169 C
HETATM   12  N3  UNL     1       0.315   1.150  -7.473  1.00  0.00    -0.014 N
HETATM   13  C6  UNL     1       0.701   1.049  -6.130  1.00  0.00     0.709 C
HETATM   14  N4  UNL     1       1.191   2.221  -5.683  1.00  0.00    -0.232 N
ATOM     15  H41 UNL     1       1.473   2.147  -4.705  1.00  0.00     0.174 HD
ATOM     16  H42 UNL     1       1.197   3.032  -6.301  1.00  0.00     0.174 HD
HETATM   17  N5  UNL     1       0.694  -0.067  -5.279  1.00  0.00    -0.118 N
HETATM   18  C7  UNL     1       1.087  -1.398  -5.800  1.00  0.00     0.173 C
HETATM   19  C8  UNL     1       2.123  -1.810  -4.814  1.00  0.00     0.012 A
HETATM   20  C9  UNL     1       2.274  -2.920  -3.958  1.00  0.00     0.013 A
HETATM   21  C10 UNL     1       1.242  -2.049  -3.536  1.00  0.00     0.012 A
HETATM   22  C11 UNL     1       1.185  -0.721  -2.931  1.00  0.00     0.158 C
HETATM   23  N6  UNL     1       0.376   0.089  -3.927  1.00  0.00    -0.244 N
HETATM   24  C12 UNL     1      -0.629   0.875  -3.362  1.00  0.00     0.248 C
HETATM   25  O1  UNL     1      -0.631   0.867  -2.066  1.00  0.00    -0.271 OA
ENDROOT
BRANCH  24  26
HETATM   26  C13 UNL     1      -1.674   1.695  -3.956  1.00  0.00     0.189 C
HETATM   27 BR1  UNL     1      -3.038   2.089  -2.590  1.00  0.00    -0.087 Br
ENDBRANCH  24  26
TORSDOF 1
ENDMDL