MODEL 3
REMARK VINA RESULT: -3.983696614      6.316      9.525
REMARK  3 active torsions:
REMARK  status: ('A' for Active; 'I' for Inactive)
REMARK       I    between atoms: C2_4  and  N2_5
REMARK       I    between atoms: C2_4  and  N7_25
REMARK       I    between atoms: C3_7  and  N4_9
REMARK    1  A    between atoms: N5_12  and  C6_13
REMARK    2  A    between atoms: C6_13  and  N6_15
REMARK       I    between atoms: N6_15  and  C7_17
REMARK    3  A    between atoms: C7_17  and  C8_19
ROOT
HETATM    1  C1  UNL     1      -5.161   0.264   2.515  1.00  0.00     0.165 C
HETATM    2  N1  UNL     1      -4.973   1.581   3.045  1.00  0.00    -0.231 N
ATOM      3  H1  UNL     1      -5.773   2.213   3.038  1.00  0.00     0.177 HD
HETATM    4  C2  UNL     1      -3.864   2.025   3.530  1.00  0.00     0.675 C
HETATM    5  N2  UNL     1      -2.670   1.284   3.613  1.00  0.00    -0.164 N
ATOM      6  H2  UNL     1      -2.394   0.949   4.536  1.00  0.00     0.187 HD
HETATM    7  C3  UNL     1      -1.902   0.993   2.636  1.00  0.00     0.205 C
HETATM    8  N3  UNL     1      -2.247   1.441   1.330  1.00  0.00    -0.063 NA
HETATM    9  N4  UNL     1      -0.731   0.234   2.898  1.00  0.00    -0.352 N
HETATM   10  C4  UNL     1      -0.571  -0.491   4.122  1.00  0.00     0.145 C
HETATM   11  C5  UNL     1      -0.141  -1.937   3.903  1.00  0.00     0.145 C
HETATM   12  N5  UNL     1       0.890  -1.914   2.855  1.00  0.00    -0.355 N
HETATM   13  C10 UNL     1       0.507  -1.323   1.614  1.00  0.00     0.145 C
HETATM   14  C11 UNL     1       0.343   0.180   1.907  1.00  0.00     0.145 C
HETATM   15  N7  UNL     1      -3.858   3.363   4.014  1.00  0.00    -0.231 N
ATOM     16  H7  UNL     1      -4.342   3.603   4.878  1.00  0.00     0.177 HD
HETATM   17  C12 UNL     1      -3.156   4.378   3.260  1.00  0.00     0.165 C
ENDROOT
BRANCH  12  18
HETATM   18  C6  UNL     1       2.170  -2.449   3.087  1.00  0.00     0.176 C
HETATM   19  S1  UNL     1       2.333  -3.824   4.009  1.00  0.00    -0.041 SA
BRANCH  18  20
HETATM   20  N6  UNL     1       3.319  -1.852   2.555  1.00  0.00    -0.300 N
HETATM   21  C7  UNL     1       3.899  -2.317   1.351  1.00  0.00     0.249 C
HETATM   22  O1  UNL     1       3.392  -3.270   0.743  1.00  0.00    -0.268 OA
ATOM     23  H6  UNL     1       3.747  -1.066   3.044  1.00  0.00     0.171 HD
BRANCH  21  24
HETATM   24  C8  UNL     1       5.102  -1.695   0.787  1.00  0.00     0.110 C
HETATM   25  C9  UNL     1       6.308  -2.019   1.181  1.00  0.00     0.108 C
HETATM   26 CL1  UNL     1       7.683  -1.223   0.450  1.00  0.00    -0.071 Cl
HETATM   27 CL2  UNL     1       6.611  -3.223   2.413  1.00  0.00    -0.071 Cl
ENDBRANCH  21  24
ENDBRANCH  18  20
ENDBRANCH  12  18
TORSDOF 3
ENDMDL