MODEL 2
REMARK VINA RESULT: -5.471025059     11.643     13.745
REMARK  1 active torsions:
REMARK  status: ('A' for Active; 'I' for Inactive)
REMARK       I    between atoms: C1_2  and  N2_4
REMARK    1  A    between atoms: C6_12  and  C7_13
REMARK       I    between atoms: C7_13  and  N3_15
ROOT
HETATM    1  N1  UNL     1       2.754  -3.249   0.373  1.00  0.00    -0.040 NA
HETATM    2  C1  UNL     1       4.008  -3.149   1.076  1.00  0.00     0.331 C
HETATM    3  O1  UNL     1       4.063  -3.709   2.179  1.00  0.00    -0.251 OA
HETATM    4  N2  UNL     1       5.076  -2.455   0.518  1.00  0.00    -0.319 N
HETATM    5  C2  UNL     1       4.776  -1.821  -0.792  1.00  0.00     0.154 C
HETATM    6  C3  UNL     1       5.477  -0.512  -0.882  1.00  0.00     0.187 C
HETATM    7  O2  UNL     1       5.497   0.318   0.164  1.00  0.00    -0.387 OA
HETATM    8  C4  UNL     1       5.322  -0.072   1.434  1.00  0.00     0.203 C
HETATM    9  C5  UNL     1       6.349  -1.044   1.996  1.00  0.00     0.126 C
HETATM   10 BR1  UNL     1       8.096  -0.253   1.920  1.00  0.00    -0.068 Br
HETATM   11 BR2  UNL     1       5.868  -1.399   3.824  1.00  0.00    -0.068 Br
HETATM   12  C6  UNL     1       6.358  -2.308   1.148  1.00  0.00     0.213 C
ENDROOT
BRANCH  12  13
HETATM   13  C7  UNL     1       6.942  -3.451   1.798  1.00  0.00     0.249 C
HETATM   14  O3  UNL     1       7.526  -3.480   2.905  1.00  0.00    -0.271 OA
HETATM   15  N3  UNL     1       6.875  -4.733   1.142  1.00  0.00    -0.302 N
HETATM   16  C8  UNL     1       6.650  -5.810   1.825  1.00  0.00     0.203 C
ATOM     17  H3  UNL     1       7.005  -4.792   0.131  1.00  0.00     0.171 HD
HETATM   18  N4  UNL     1       6.474  -5.716   3.212  1.00  0.00    -0.066 NA
HETATM   19  N5  UNL     1       6.591  -7.049   1.141  1.00  0.00    -0.066 NA
ENDBRANCH  12  13
TORSDOF 1
ENDMDL