MODEL 2
REMARK VINA RESULT: -6.538855992      2.624      4.563
REMARK  2 active torsions:
REMARK  status: ('A' for Active; 'I' for Inactive)
REMARK       I    between atoms: C2_4  and  N2_5
REMARK       I    between atoms: C2_4  and  N6_16
REMARK    1  A    between atoms: N2_5  and  C3_7
REMARK    2  A    between atoms: N6_16  and  C6_18
ROOT
HETATM    1  C1  UNL     1      -0.851   1.664  -3.644  1.00  0.00     0.165 C
HETATM    2  N1  UNL     1      -0.245   0.373  -3.754  1.00  0.00    -0.230 N
ATOM      3  H1  UNL     1      -0.411  -0.285  -2.993  1.00  0.00     0.177 HD
HETATM    4  C2  UNL     1       0.488  -0.028  -4.726  1.00  0.00     0.688 C
HETATM    5  N2  UNL     1       1.006  -1.363  -4.652  1.00  0.00    -0.021 N
ATOM      6  H2  UNL     1       0.915  -2.002  -5.442  1.00  0.00     0.203 HD
HETATM    7  N6  UNL     1       0.822   0.741  -5.860  1.00  0.00    -0.213 N
ATOM      8  H6  UNL     1       1.256   1.659  -5.756  1.00  0.00     0.178 HD
ENDROOT
BRANCH   5   9
HETATM    9  C3  UNL     1       1.591  -1.738  -3.562  1.00  0.00     0.712 A
HETATM   10  N3  UNL     1       2.898  -1.580  -3.226  1.00  0.00    -0.178 N
HETATM   11  C4  UNL     1       3.117  -2.104  -2.009  1.00  0.00     0.108 A
ATOM     12  H3  UNL     1       3.605  -1.131  -3.808  1.00  0.00     0.185 HD
HETATM   13  C5  UNL     1       4.397  -2.150  -1.256  1.00  0.00     0.091 C
HETATM   14  N4  UNL     1       1.932  -2.590  -1.594  1.00  0.00    -0.275 N
HETATM   15  N5  UNL     1       1.009  -2.365  -2.539  1.00  0.00    -0.130 N
ATOM     16  H4  UNL     1       1.764  -3.055  -0.701  1.00  0.00     0.189 HD
ATOM     17  H5  UNL     1       0.025  -2.630  -2.486  1.00  0.00     0.205 HD
ENDBRANCH   5   9
BRANCH   7  18
HETATM   18  C6  UNL     1       0.539   0.209  -7.170  1.00  0.00     0.207 C
HETATM   19  C7  UNL     1      -0.974   0.169  -7.323  1.00  0.00     0.034 C
HETATM   20  C8  UNL     1      -1.400   1.605  -7.630  1.00  0.00     0.036 C
HETATM   21  C12 UNL     1      -1.340  -0.640  -8.566  1.00  0.00     0.090 C
HETATM   22  C9  UNL     1      -0.887   2.004  -8.995  1.00  0.00     0.245 C
HETATM   23  N7  UNL     1       0.177   1.106  -9.362  1.00  0.00    -0.002 N
HETATM   24  C10 UNL     1       0.900   1.544 -10.543  1.00  0.00     0.280 C
HETATM   25  C11 UNL     1      -0.358  -0.217  -9.644  1.00  0.00     0.260 C
HETATM   26  C13 UNL     1       1.134   1.045  -8.271  1.00  0.00     0.428 C
HETATM   27  F1  UNL     1       2.295   0.432  -8.707  1.00  0.00    -0.172 F
HETATM   28  F2  UNL     1       1.445   2.312  -7.861  1.00  0.00    -0.172 F
HETATM   29 BR1  UNL     1      -1.292  -2.527  -8.232  1.00  0.00    -0.089 Br
ENDBRANCH   7  18
TORSDOF 2
ENDMDL