MODEL 5
REMARK VINA RESULT: -5.898399928      1.975      6.127
REMARK  6 active torsions:
REMARK  status: ('A' for Active; 'I' for Inactive)
REMARK    1  A    between atoms: O1_1  and  C1_3
REMARK    2  A    between atoms: C1_3  and  C2_4
REMARK    3  A    between atoms: C1_3  and  C10_13
REMARK    4  A    between atoms: C2_4  and  O2_5
REMARK    5  A    between atoms: O2_5  and  C3_6
REMARK    6  A    between atoms: C3_6  and  C4_7
ROOT
HETATM    1  C2  UNL     1      -0.086   0.803  -4.165  1.00  0.00     0.199 C
ENDROOT
BRANCH   1   2
HETATM    2  C1  UNL     1      -1.026   0.846  -3.014  1.00  0.00     0.146 C
BRANCH   2   3
HETATM    3  O1  UNL     1      -0.309   0.415  -1.835  1.00  0.00    -0.393 OA
ATOM      4  H1  UNL     1      -0.868   0.561  -1.082  1.00  0.00     0.210 HD
ENDBRANCH   2   3
BRANCH   2   5
HETATM    5  C10 UNL     1      -1.541   2.190  -2.610  1.00  0.00     0.016 C
HETATM    6  C11 UNL     1      -1.795   2.300  -1.101  1.00  0.00     0.007 C
HETATM    7  C12 UNL     1      -3.155   1.733  -0.854  1.00  0.00     0.000 C
HETATM    8  C13 UNL     1      -3.897   1.826  -2.145  1.00  0.00     0.000 C
HETATM    9  C14 UNL     1      -2.954   2.299  -3.211  1.00  0.00     0.007 C
ENDBRANCH   2   5
ENDBRANCH   1   2
BRANCH   1  10
HETATM   10  O2  UNL     1       0.145  -0.363  -4.735  1.00  0.00    -0.388 OA
BRANCH  10  11
HETATM   11  C3  UNL     1       0.698  -0.590  -5.926  1.00  0.00     0.172 C
BRANCH  11  12
HETATM   12  C4  UNL     1       0.062   0.451  -6.899  1.00  0.00     0.009 C
HETATM   13  C5  UNL     1      -0.765  -0.358  -7.877  1.00  0.00     0.007 C
HETATM   14  C6  UNL     1      -1.460   0.654  -8.795  1.00  0.00     0.000 C
HETATM   15  C7  UNL     1      -0.417   1.436  -9.544  1.00  0.00     0.000 C
HETATM   16  C8  UNL     1       0.507   2.141  -8.585  1.00  0.00     0.000 C
HETATM   17  C9  UNL     1       1.174   1.107  -7.703  1.00  0.00     0.007 C
ENDBRANCH  11  12
ENDBRANCH  10  11
ENDBRANCH   1  10
TORSDOF 6
ENDMDL