MODEL 4
REMARK VINA RESULT: -7.080667873      1.115      1.595
REMARK  6 active torsions:
REMARK  status: ('A' for Active; 'I' for Inactive)
REMARK    1  A    between atoms: C2_2  and  O1_3
REMARK    2  A    between atoms: C2_2  and  C11_17
REMARK    3  A    between atoms: O1_3  and  C3_4
REMARK    4  A    between atoms: C3_4  and  C4_5
REMARK    5  A    between atoms: C7_8  and  C8_9
REMARK    6  A    between atoms: C8_9  and  N1_10
ROOT
HETATM    1  C4  UNL     1       0.700  -0.525  -6.534  1.00  0.00     0.012 C
HETATM    2  C5  UNL     1      -0.370  -1.278  -7.277  1.00  0.00     0.007 C
HETATM    3  C6  UNL     1      -1.249  -0.358  -8.095  1.00  0.00     0.009 C
HETATM    4  C7  UNL     1      -0.426   0.308  -9.179  1.00  0.00     0.045 C
HETATM    5  C9  UNL     1       0.859   0.745  -8.610  1.00  0.00     0.176 C
HETATM    6  F1  UNL     1       1.917  -0.101  -8.807  1.00  0.00    -0.249 F
HETATM    7  C10 UNL     1       0.705   0.894  -7.101  1.00  0.00     0.044 C
ENDROOT
BRANCH   1   8
HETATM    8  C3  UNL     1       0.468  -0.456  -5.060  1.00  0.00     0.172 C
BRANCH   8   9
HETATM    9  O1  UNL     1       1.332  -1.184  -4.291  1.00  0.00    -0.386 OA
BRANCH   9  10
HETATM   10  C2  UNL     1       0.915  -1.502  -3.030  1.00  0.00     0.121 C
HETATM   11  C1  UNL     1       0.304  -0.327  -2.279  1.00  0.00     0.040 C
BRANCH  10  12
HETATM   12  C11 UNL     1       2.001  -2.071  -2.154  1.00  0.00     0.014 C
HETATM   13  C12 UNL     1       3.372  -1.567  -2.532  1.00  0.00     0.007 C
HETATM   14  C13 UNL     1       4.198  -2.025  -1.348  1.00  0.00     0.000 C
HETATM   15  C14 UNL     1       3.246  -2.085  -0.166  1.00  0.00     0.000 C
HETATM   16  C15 UNL     1       1.890  -1.670  -0.719  1.00  0.00     0.007 C
ENDBRANCH  10  12
ENDBRANCH   9  10
ENDBRANCH   8   9
ENDBRANCH   1   8
BRANCH   4  17
HETATM   17  C8  UNL     1      -0.353  -0.554 -10.398  1.00  0.00     0.237 C
BRANCH  17  18
HETATM   18  N1  UNL     1       0.116   0.082 -11.573  1.00  0.00    -0.079 N
ATOM     19  H13 UNL     1       0.654   0.913 -11.328  1.00  0.00     0.274 HD
ATOM     20  H12 UNL     1       0.843  -0.485 -12.008  1.00  0.00     0.274 HD
ATOM     21  H11 UNL     1      -0.598   0.321 -12.262  1.00  0.00     0.274 HD
ENDBRANCH  17  18
ENDBRANCH   4  17
TORSDOF 6
ENDMDL