MODEL 2
REMARK VINA RESULT: -6.395767923      2.986      3.819
REMARK  6 active torsions:
REMARK  status: ('A' for Active; 'I' for Inactive)
REMARK    1  A    between atoms: C2_2  and  O1_3
REMARK    2  A    between atoms: C2_2  and  C3_6
REMARK    3  A    between atoms: C3_6  and  C4_7
REMARK    4  A    between atoms: C4_7  and  C5_8
REMARK    5  A    between atoms: C5_8  and  C6_9
REMARK    6  A    between atoms: C6_9  and  N1_10
ROOT
HETATM    1  C6  UNL     1      -0.670   0.580  -5.767  1.00  0.00     0.273 C
ENDROOT
BRANCH   1   2
HETATM    2  C5  UNL     1      -0.557   0.301  -4.333  1.00  0.00     0.030 C
BRANCH   2   3
HETATM    3  C4  UNL     1       0.049  -1.077  -4.015  1.00  0.00     0.006 C
BRANCH   3   4
HETATM    4  C3  UNL     1       1.397  -0.754  -3.406  1.00  0.00     0.054 C
BRANCH   4   5
HETATM    5  C2  UNL     1       1.869  -1.727  -2.386  1.00  0.00     0.131 C
HETATM    6  C1  UNL     1       1.346  -1.311  -1.031  1.00  0.00     0.064 C
HETATM    7 CL1  UNL     1       3.652  -1.708  -2.341  1.00  0.00    -0.089 Cl
BRANCH   5   8
HETATM    8  O1  UNL     1       1.471  -3.010  -2.732  1.00  0.00    -0.375 OA
ATOM      9  H1  UNL     1       1.984  -3.365  -3.449  1.00  0.00     0.212 HD
ENDBRANCH   5   8
ENDBRANCH   4   5
ENDBRANCH   3   4
ENDBRANCH   2   3
ENDBRANCH   1   2
BRANCH   1  10
HETATM   10  N1  UNL     1      -0.141  -0.329  -6.695  1.00  0.00     0.097 N
HETATM   11  C7  UNL     1      -1.042  -0.996  -7.568  1.00  0.00     0.223 C
HETATM   12  C8  UNL     1      -0.311  -1.956  -8.464  1.00  0.00     0.036 C
HETATM   13  C13 UNL     1      -1.634   0.127  -8.380  1.00  0.00     0.038 C
HETATM   14  C9  UNL     1       0.810  -1.350  -9.236  1.00  0.00     0.004 C
HETATM   15  C10 UNL     1       1.596  -0.328  -8.448  1.00  0.00     0.036 C
HETATM   16  C11 UNL     1       0.642   0.476  -7.649  1.00  0.00     0.223 C
HETATM   17  C12 UNL     1      -0.434   1.058  -8.517  1.00  0.00     0.038 C
ENDBRANCH   1  10
TORSDOF 6
ENDMDL