MODEL 5
REMARK VINA RESULT: -5.751651468      0.556      1.517
REMARK  6 active torsions:
REMARK  status: ('A' for Active; 'I' for Inactive)
REMARK    1  A    between atoms: C2_2  and  N1_3
REMARK    2  A    between atoms: N1_3  and  C3_4
REMARK    3  A    between atoms: N1_3  and  C6_8
REMARK    4  A    between atoms: C3_4  and  C4_5
REMARK    5  A    between atoms: C6_8  and  C7_9
REMARK    6  A    between atoms: C7_9  and  N2_10
ROOT
HETATM    1  C6  UNL     1       0.224  -0.145  -5.097  1.00  0.00     0.303 C
ENDROOT
BRANCH   1   2
HETATM    2  N1  UNL     1      -0.485   0.036  -3.850  1.00  0.00     0.093 N
BRANCH   2   3
HETATM    3  C2  UNL     1       0.389  -0.413  -2.783  1.00  0.00     0.268 C
HETATM    4  C1  UNL     1       1.524  -1.264  -3.325  1.00  0.00     0.037 C
ENDBRANCH   2   3
BRANCH   2   5
HETATM    5  C3  UNL     1      -0.852   1.393  -3.573  1.00  0.00     0.300 C
BRANCH   5   6
HETATM    6  C4  UNL     1      -1.893   1.559  -2.526  1.00  0.00     0.015 C
HETATM    7  C5  UNL     1      -3.170   1.708  -2.757  1.00  0.00     0.082 C
HETATM    8 CL1  UNL     1      -4.271   1.899  -1.402  1.00  0.00    -0.097 Cl
ENDBRANCH   5   6
ENDBRANCH   2   5
ENDBRANCH   1   2
BRANCH   1   9
HETATM    9  C7  UNL     1      -0.606   0.388  -6.231  1.00  0.00     0.302 C
BRANCH   9  10
HETATM   10  N2  UNL     1       0.163   0.528  -7.428  1.00  0.00     0.090 N
HETATM   11  C8  UNL     1      -0.570   1.016  -8.556  1.00  0.00     0.272 C
HETATM   12  C9  UNL     1       0.215   0.850  -9.846  1.00  0.00     0.030 C
HETATM   13  C10 UNL     1      -0.135  -0.371 -10.622  1.00  0.00     0.002 C
HETATM   14  C11 UNL     1       0.222  -1.670  -9.971  1.00  0.00     0.002 C
HETATM   15  C12 UNL     1      -0.126  -1.676  -8.496  1.00  0.00     0.030 C
HETATM   16  C13 UNL     1       0.778  -0.764  -7.693  1.00  0.00     0.272 C
ENDBRANCH   9  10
ENDBRANCH   1   9
TORSDOF 6
ENDMDL