MODEL 1
REMARK VINA RESULT: -6.455275704      0.000      0.000
REMARK  6 active torsions:
REMARK  status: ('A' for Active; 'I' for Inactive)
REMARK    1  A    between atoms: N1_2  and  C2_4
REMARK    2  A    between atoms: C2_4  and  C3_5
REMARK    3  A    between atoms: C3_5  and  C4_6
REMARK    4  A    between atoms: C4_6  and  C5_7
REMARK    5  A    between atoms: C5_7  and  C6_8
REMARK    6  A    between atoms: C6_8  and  N2_9
ROOT
HETATM    1  C5  UNL     1      -0.557  -0.946  -6.795  1.00  0.00    -0.017 C
HETATM    2  C7  UNL     1      -1.221   0.343  -7.159  1.00  0.00     0.011 C
HETATM    3  C8  UNL     1      -1.683   0.455  -8.569  1.00  0.00     0.001 C
HETATM    4  C9  UNL     1      -0.933   1.559  -9.322  1.00  0.00     0.000 C
HETATM    5  C10 UNL     1       0.096   0.999 -10.250  1.00  0.00     0.000 C
HETATM    6  C11 UNL     1       0.751  -0.275  -9.747  1.00  0.00     0.000 C
HETATM    7  C12 UNL     1       1.272  -0.134  -8.335  1.00  0.00     0.001 C
HETATM    8  C13 UNL     1       0.766  -1.191  -7.402  1.00  0.00     0.011 C
ENDROOT
BRANCH   1   9
HETATM    9  C4  UNL     1      -0.538  -1.108  -5.275  1.00  0.00     0.012 C
BRANCH   9  10
HETATM   10  C3  UNL     1       0.739  -0.776  -4.647  1.00  0.00     0.017 C
BRANCH  10  11
HETATM   11  C2  UNL     1       0.895  -1.014  -3.180  1.00  0.00     0.107 C
BRANCH  11  12
HETATM   12  N1  UNL     1       1.573  -2.164  -2.743  1.00  0.00    -0.232 NA
HETATM   13  C1  UNL     1       1.734  -2.267  -1.336  1.00  0.00     0.130 C
HETATM   14 CL1  UNL     1       3.099  -2.349  -3.559  1.00  0.00    -0.022 Cl
ENDBRANCH  11  12
ENDBRANCH  10  11
ENDBRANCH   9  10
ENDBRANCH   1   9
BRANCH   1  15
HETATM   15  C6  UNL     1      -1.480  -2.081  -7.252  1.00  0.00     0.239 C
BRANCH  15  16
HETATM   16  N2  UNL     1      -1.902  -2.911  -6.169  1.00  0.00    -0.079 N
ATOM     17  H23 UNL     1      -1.512  -3.850  -6.252  1.00  0.00     0.274 HD
ATOM     18  H22 UNL     1      -1.460  -2.627  -5.295  1.00  0.00     0.274 HD
ATOM     19  H21 UNL     1      -2.918  -2.943  -6.075  1.00  0.00     0.274 HD
ENDBRANCH  15  16
ENDBRANCH   1  15
TORSDOF 6
ENDMDL