MODEL 1
REMARK VINA RESULT: -6.109426781      0.000      0.000
REMARK  5 active torsions:
REMARK  status: ('A' for Active; 'I' for Inactive)
REMARK    1  A    between atoms: C2_2  and  C3_3
REMARK    2  A    between atoms: C3_3  and  C4_4
REMARK    3  A    between atoms: N1_7  and  N2_9
REMARK       I    between atoms: N2_9  and  C6_11
REMARK    4  A    between atoms: C6_11  and  C7_13
REMARK    5  A    between atoms: C7_13  and  C8_14
ROOT
HETATM    1  N2  UNL     1      -0.493   0.038  -5.585  1.00  0.00    -0.270 N
ATOM      2  H2  UNL     1      -0.812  -0.931  -5.561  1.00  0.00     0.190 HD
HETATM    3  C6  UNL     1       0.681   0.359  -6.363  1.00  0.00     0.236 C
HETATM    4  O1  UNL     1       1.047   1.546  -6.373  1.00  0.00    -0.272 OA
ENDROOT
BRANCH   1   5
HETATM    5  N1  UNL     1      -1.202   0.984  -4.872  1.00  0.00    -0.306 N
HETATM    6  C2  UNL     1      -1.153   1.134  -3.601  1.00  0.00     0.003 C
HETATM    7  C1  UNL     1      -0.286   0.256  -2.780  1.00  0.00     0.065 C
ATOM      8  H1  UNL     1      -1.812   1.611  -5.398  1.00  0.00     0.186 HD
BRANCH   6   9
HETATM    9  C3  UNL     1      -1.953   2.179  -2.934  1.00  0.00     0.081 C
BRANCH   9  10
HETATM   10  C4  UNL     1      -3.271   1.747  -2.445  1.00  0.00    -0.009 C
HETATM   11  C5  UNL     1      -3.749   1.835  -1.235  1.00  0.00     0.081 C
HETATM   12 CL1  UNL     1      -5.376   1.256  -0.821  1.00  0.00    -0.097 Cl
ENDBRANCH   9  10
ENDBRANCH   6   9
ENDBRANCH   1   5
BRANCH   3  13
HETATM   13  C7  UNL     1       1.407  -0.669  -7.106  1.00  0.00     0.109 C
BRANCH  13  14
HETATM   14  C8  UNL     1       1.013  -0.913  -8.507  1.00  0.00    -0.006 C
HETATM   15  C9  UNL     1       0.329   0.193  -9.227  1.00  0.00     0.005 C
HETATM   16  C10 UNL     1      -0.068  -0.480 -10.547  1.00  0.00     0.000 C
HETATM   17  C11 UNL     1      -0.098  -1.981 -10.247  1.00  0.00     0.000 C
HETATM   18  C12 UNL     1       0.037  -2.056  -8.717  1.00  0.00     0.005 C
ENDBRANCH  13  14
ENDBRANCH   3  13
TORSDOF 5
ENDMDL