MODEL 4
REMARK VINA RESULT: -6.093239475      2.649      5.530
REMARK  5 active torsions:
REMARK  status: ('A' for Active; 'I' for Inactive)
REMARK       I    between atoms: C1_2  and  N1_3
REMARK    1  A    between atoms: C1_2  and  C10_14
REMARK    2  A    between atoms: N1_3  and  N2_4
REMARK    3  A    between atoms: C2_6  and  C3_7
REMARK    4  A    between atoms: C3_7  and  C4_8
REMARK    5  A    between atoms: C4_8  and  C5_9
ROOT
HETATM    1  N2  UNL     1       1.066   1.550  -6.528  1.00  0.00    -0.247 N
ATOM      2  H2  UNL     1       2.018   1.562  -6.159  1.00  0.00     0.200 HD
HETATM    3  C2  UNL     1       1.179   1.906  -7.687  1.00  0.00     0.094 C
ENDROOT
BRANCH   1   4
HETATM    4  N1  UNL     1       0.335   1.166  -5.537  1.00  0.00    -0.287 NA
HETATM    5  C1  UNL     1      -0.429   0.766  -4.505  1.00  0.00     0.316 C
HETATM    6  O1  UNL     1      -1.421   1.345  -3.957  1.00  0.00    -0.255 OA
BRANCH   5   7
HETATM    7  C10 UNL     1      -0.093  -0.568  -3.868  1.00  0.00     0.095 C
HETATM    8  C11 UNL     1       0.447  -0.457  -2.457  1.00  0.00     0.015 C
HETATM    9  C12 UNL     1       1.314  -1.684  -2.815  1.00  0.00     0.002 C
HETATM   10  C13 UNL     1       1.234  -1.154  -4.259  1.00  0.00     0.015 C
ENDBRANCH   5   7
ENDBRANCH   1   4
BRANCH   3  11
HETATM   11  C3  UNL     1       0.053   2.044  -8.656  1.00  0.00     0.047 C
BRANCH  11  12
HETATM   12  C4  UNL     1       0.288   1.144  -9.873  1.00  0.00     0.010 C
BRANCH  12  13
HETATM   13  C5  UNL     1      -0.471  -0.133  -9.651  1.00  0.00    -0.014 C
HETATM   14  C6  UNL     1      -1.509  -0.056  -8.558  1.00  0.00     0.004 C
HETATM   15  C7  UNL     1      -1.232  -1.241  -7.625  1.00  0.00     0.000 C
HETATM   16  C8  UNL     1      -0.541  -2.219  -8.551  1.00  0.00     0.000 C
HETATM   17  C9  UNL     1       0.436  -1.273  -9.273  1.00  0.00     0.004 C
ENDBRANCH  12  13
ENDBRANCH  11  12
ENDBRANCH   3  11
TORSDOF 5
ENDMDL