MODEL 3
REMARK VINA RESULT: -6.509570325      3.124      5.848
REMARK  7 active torsions:
REMARK  status: ('A' for Active; 'I' for Inactive)
REMARK    1  A    between atoms: C2_3  and  C3_4
REMARK    2  A    between atoms: C5_6  and  C6_7
REMARK    3  A    between atoms: C6_7  and  N2_8
REMARK    4  A    between atoms: N2_8  and  C7_11
REMARK    5  A    between atoms: C7_11  and  C8_12
REMARK    6  A    between atoms: C11_20  and  C12_21
REMARK    7  A    between atoms: C12_21  and  O1_22
ROOT
HETATM    1  N1  UNL     1      18.023   0.191  11.002  1.00  0.00    -0.197 NA
HETATM    2  C1  UNL     1      18.733   1.038  10.703  1.00  0.00     0.061 C
HETATM    3  C2  UNL     1      19.722   2.109  10.434  1.00  0.00     0.155 C
ENDROOT
BRANCH   3   4
HETATM    4  C3  UNL     1      19.070   3.386  10.791  1.00  0.00     0.135 C
HETATM    5  C4  UNL     1      19.201   3.778  12.252  1.00  0.00     0.042 C
HETATM    6  C5  UNL     1      18.121   4.817  12.290  1.00  0.00     0.045 C
HETATM    7  C11 UNL     1      17.075   4.199  11.370  1.00  0.00     0.151 C
HETATM    8  O2  UNL     1      17.781   3.541  10.410  1.00  0.00    -0.377 OA
BRANCH   6   9
HETATM    9  C6  UNL     1      17.600   5.281  13.536  1.00  0.00     0.239 C
BRANCH   9  10
HETATM   10  N2  UNL     1      18.011   4.762  14.814  1.00  0.00    -0.069 N
ATOM     11  H22 UNL     1      18.585   3.920  14.766  1.00  0.00     0.277 HD
ATOM     12  H21 UNL     1      18.703   5.330  15.302  1.00  0.00     0.277 HD
BRANCH  10  13
HETATM   13  C7  UNL     1      16.742   4.597  15.531  1.00  0.00     0.292 C
BRANCH  13  14
HETATM   14  C8  UNL     1      16.525   3.198  15.872  1.00  0.00     0.070 A
HETATM   15  N3  UNL     1      17.042   2.096  15.451  1.00  0.00    -0.302 N
HETATM   16  N4  UNL     1      16.514   1.039  16.003  1.00  0.00    -0.310 N
ATOM     17  H3  UNL     1      17.789   2.055  14.756  1.00  0.00     0.186 HD
HETATM   18  C9  UNL     1      15.513   1.498  16.844  1.00  0.00     0.128 A
ATOM     19  H4  UNL     1      16.785   0.069  15.847  1.00  0.00     0.186 HD
HETATM   20  C10 UNL     1      15.482   2.858  16.796  1.00  0.00     0.053 A
HETATM   21 BR1  UNL     1      14.310   4.090  17.629  1.00  0.00    -0.047 Br
ENDBRANCH  13  14
ENDBRANCH  10  13
ENDBRANCH   9  10
ENDBRANCH   6   9
BRANCH   7  22
HETATM   22  C12 UNL     1      16.244   3.156  12.076  1.00  0.00     0.196 C
BRANCH  22  23
HETATM   23  O1  UNL     1      15.604   2.450  11.057  1.00  0.00    -0.398 OA
ATOM     24  H1  UNL     1      16.303   2.155  10.484  1.00  0.00     0.209 HD
ENDBRANCH  22  23
ENDBRANCH   7  22
ENDBRANCH   3   4
TORSDOF 7
ENDMDL