MODEL 1
REMARK VINA RESULT: -7.365493373      0.000      0.000
REMARK  8 active torsions:
REMARK  status: ('A' for Active; 'I' for Inactive)
REMARK    1  A    between atoms: C2_2  and  C3_3
REMARK    2  A    between atoms: C3_3  and  N1_4
REMARK    3  A    between atoms: N1_4  and  C4_6
REMARK    4  A    between atoms: C5_9  and  C6_10
REMARK    5  A    between atoms: C6_10  and  C7_11
REMARK    6  A    between atoms: C7_11  and  C8_12
REMARK    7  A    between atoms: C9_14  and  C10_15
REMARK    8  A    between atoms: C10_15  and  O2_16
ROOT
HETATM    1  C4  UNL     1      16.574   1.692  14.816  1.00  0.00     0.681 A
HETATM    2  N2  UNL     1      16.306   2.985  14.604  1.00  0.00    -0.192 N
ATOM      3  H2  UNL     1      16.505   3.387  13.688  1.00  0.00     0.184 HD
HETATM    4  C5  UNL     1      15.775   3.781  15.573  1.00  0.00     0.071 A
HETATM    5  C14 UNL     1      15.527   3.190  16.786  1.00  0.00     0.207 A
HETATM    6  F1  UNL     1      15.007   3.902  17.788  1.00  0.00    -0.198 F
HETATM    7  C15 UNL     1      15.805   1.849  17.005  1.00  0.00     0.300 A
HETATM    8  O4  UNL     1      15.578   1.296  18.122  1.00  0.00    -0.264 OA
HETATM    9  N3  UNL     1      16.319   1.121  16.032  1.00  0.00    -0.154 N
ATOM     10  H3  UNL     1      16.527   0.135  16.186  1.00  0.00     0.187 HD
ENDROOT
BRANCH   4  11
HETATM   11  C6  UNL     1      15.525   5.171  15.226  1.00  0.00     0.066 C
BRANCH  11  12
HETATM   12  C7  UNL     1      16.700   6.073  15.134  1.00  0.00     0.067 C
BRANCH  12  13
HETATM   13  C8  UNL     1      16.870   6.405  13.640  1.00  0.00     0.261 C
HETATM   14  O1  UNL     1      16.197   5.515  12.840  1.00  0.00    -0.351 OA
HETATM   15  C9  UNL     1      16.922   5.516  11.640  1.00  0.00     0.182 C
HETATM   16  C11 UNL     1      18.327   5.704  12.116  1.00  0.00     0.085 C
HETATM   17  C12 UNL     1      18.992   4.348  12.156  1.00  0.00     0.048 C
HETATM   18  C13 UNL     1      19.149   6.595  11.223  1.00  0.00     0.048 C
HETATM   19  O3  UNL     1      18.223   6.292  13.361  1.00  0.00    -0.348 OA
BRANCH  15  20
HETATM   20  C10 UNL     1      16.435   6.660  10.782  1.00  0.00     0.199 C
BRANCH  20  21
HETATM   21  O2  UNL     1      15.275   6.300  10.128  1.00  0.00    -0.398 OA
ATOM     22  H2  UNL     1      15.475   5.711   9.410  1.00  0.00     0.209 HD
ENDBRANCH  20  21
ENDBRANCH  15  20
ENDBRANCH  12  13
ENDBRANCH  11  12
ENDBRANCH   4  11
BRANCH   1  23
HETATM   23  N1  UNL     1      17.072   0.892  13.949  1.00  0.00    -0.226 N
ATOM     24  H1  UNL     1      17.471   0.006  14.260  1.00  0.00     0.177 HD
BRANCH  23  25
HETATM   25  C3  UNL     1      17.081   1.213  12.544  1.00  0.00     0.137 C
BRANCH  25  26
HETATM   26  C2  UNL     1      17.274  -0.066  11.737  1.00  0.00     0.016 C
HETATM   27  C1  UNL     1      17.897   0.281  10.424  1.00  0.00     0.006 C
ENDBRANCH  25  26
ENDBRANCH  23  25
ENDBRANCH   1  23
TORSDOF 8
ENDMDL