MODEL 5
REMARK VINA RESULT: -6.934815471      3.486      5.281
REMARK  7 active torsions:
REMARK  status: ('A' for Active; 'I' for Inactive)
REMARK    1  A    between atoms: C2_2  and  C3_3
REMARK    2  A    between atoms: N1_9  and  C8_10
REMARK    3  A    between atoms: C8_10  and  C9_11
REMARK    4  A    between atoms: C9_11  and  O1_12
REMARK    5  A    between atoms: O1_12  and  N2_13
REMARK    6  A    between atoms: C10_15  and  C11_16
REMARK    7  A    between atoms: C14_21  and  N4_22
ROOT
HETATM    1  N2  UNL     1      17.073   2.234  13.823  1.00  0.00    -0.277 N
ATOM      2  H2  UNL     1      17.687   1.821  14.525  1.00  0.00     0.193 HD
HETATM    3  C10 UNL     1      16.033   2.770  14.262  1.00  0.00     0.133 C
ENDROOT
BRANCH   1   4
HETATM    4  O1  UNL     1      17.489   2.127  12.549  1.00  0.00    -0.276 OA
BRANCH   4   5
HETATM    5  C9  UNL     1      16.943   2.775  11.438  1.00  0.00     0.245 C
BRANCH   5   6
HETATM    6  C8  UNL     1      17.858   3.780  10.826  1.00  0.00     0.092 C
BRANCH   6   7
HETATM    7  N1  UNL     1      17.945   4.957  11.592  1.00  0.00    -0.364 N
HETATM    8  C3  UNL     1      19.051   5.182  12.420  1.00  0.00     0.088 C
HETATM    9  C4  UNL     1      18.685   5.934  13.645  1.00  0.00     0.029 C
HETATM   10  C5  UNL     1      17.682   7.011  13.489  1.00  0.00     0.044 C
HETATM   11  C6  UNL     1      16.648   6.786  12.445  1.00  0.00     0.208 C
HETATM   12  F1  UNL     1      16.245   8.050  11.988  1.00  0.00    -0.244 F
HETATM   13  C7  UNL     1      17.070   6.006  11.259  1.00  0.00     0.100 C
BRANCH   8  14
HETATM   14  C2  UNL     1      20.306   5.682  11.748  1.00  0.00     0.021 C
HETATM   15  C1  UNL     1      21.313   4.657  11.395  1.00  0.00     0.007 C
ENDBRANCH   8  14
ENDBRANCH   6   7
ENDBRANCH   5   6
ENDBRANCH   4   5
ENDBRANCH   1   4
BRANCH   3  16
HETATM   16  C11 UNL     1      15.686   2.825  15.661  1.00  0.00     0.072 A
HETATM   17  C12 UNL     1      15.297   3.990  16.252  1.00  0.00     0.040 A
HETATM   18  C13 UNL     1      15.197   5.276  15.524  1.00  0.00     0.070 C
HETATM   19  N3  UNL     1      14.979   3.996  17.583  1.00  0.00    -0.195 N
HETATM   20  C14 UNL     1      15.054   2.854  18.286  1.00  0.00     0.679 A
ATOM     21  H3  UNL     1      14.687   4.861  18.038  1.00  0.00     0.184 HD
HETATM   22  N5  UNL     1      15.436   1.701  17.714  1.00  0.00    -0.156 N
HETATM   23  C15 UNL     1      15.755   1.640  16.429  1.00  0.00     0.273 A
ATOM     24  H5  UNL     1      15.481   0.854  18.280  1.00  0.00     0.187 HD
HETATM   25  O2  UNL     1      16.118   0.591  15.842  1.00  0.00    -0.267 OA
BRANCH  20  26
HETATM   26  N4  UNL     1      14.761   2.831  19.540  1.00  0.00    -0.234 N
ATOM     27  H42 UNL     1      14.144   2.088  19.868  1.00  0.00     0.174 HD
ATOM     28  H41 UNL     1      15.137   3.533  20.177  1.00  0.00     0.174 HD
ENDBRANCH  20  26
ENDBRANCH   3  16
TORSDOF 7
ENDMDL