MODEL 1
REMARK VINA RESULT: -6.147620351      0.000      0.000
REMARK  8 active torsions:
REMARK  status: ('A' for Active; 'I' for Inactive)
REMARK    1  A    between atoms: C2_2  and  C3_3
REMARK    2  A    between atoms: C3_3  and  C4_4
REMARK    3  A    between atoms: C4_4  and  N1_5
REMARK    4  A    between atoms: N1_5  and  C5_7
REMARK    5  A    between atoms: C6_10  and  S1_11
REMARK    6  A    between atoms: S1_11  and  C7_12
REMARK    7  A    between atoms: C7_12  and  C8_13
REMARK    8  A    between atoms: C8_13  and  N3_14
ROOT
HETATM    1  C5  UNL     1      16.700   1.856  15.044  1.00  0.00     0.681 A
HETATM    2  N2  UNL     1      16.900   1.133  13.911  1.00  0.00    -0.184 N
ATOM      3  H2  UNL     1      16.944   0.116  13.975  1.00  0.00     0.185 HD
HETATM    4  C6  UNL     1      17.042   1.724  12.691  1.00  0.00     0.109 A
HETATM    5  C9  UNL     1      16.984   3.090  12.602  1.00  0.00     0.113 A
HETATM    6 BR1  UNL     1      17.118   3.987  10.939  1.00  0.00    -0.042 Br
HETATM    7  C10 UNL     1      16.786   3.815  13.731  1.00  0.00     0.279 A
HETATM    8  O1  UNL     1      16.727   5.068  13.689  1.00  0.00    -0.266 OA
HETATM    9  N4  UNL     1      16.650   3.192  14.910  1.00  0.00    -0.155 N
ATOM     10  H4  UNL     1      16.502   3.760  15.745  1.00  0.00     0.187 HD
ENDROOT
BRANCH   4  11
HETATM   11  S1  UNL     1      17.265   0.764  11.218  1.00  0.00    -0.109 SA
BRANCH  11  12
HETATM   12  C7  UNL     1      17.235  -0.999  11.442  1.00  0.00     0.108 C
BRANCH  12  13
HETATM   13  C8  UNL     1      18.540  -1.713  11.456  1.00  0.00     0.240 C
BRANCH  13  14
HETATM   14  N3  UNL     1      18.462  -3.146  11.441  1.00  0.00    -0.079 N
ATOM     15  H33 UNL     1      18.740  -3.521  12.349  1.00  0.00     0.274 HD
ATOM     16  H32 UNL     1      17.486  -3.443  11.415  1.00  0.00     0.274 HD
ATOM     17  H31 UNL     1      18.986  -3.608  10.698  1.00  0.00     0.274 HD
ENDBRANCH  13  14
ENDBRANCH  12  13
ENDBRANCH  11  12
ENDBRANCH   4  11
BRANCH   1  18
HETATM   18  N1  UNL     1      16.568   1.281  16.180  1.00  0.00    -0.226 N
ATOM     19  H1  UNL     1      16.930   0.333  16.282  1.00  0.00     0.177 HD
BRANCH  18  20
HETATM   20  C4  UNL     1      15.947   1.883  17.306  1.00  0.00     0.138 C
BRANCH  20  21
HETATM   21  C3  UNL     1      14.478   1.473  17.471  1.00  0.00     0.020 C
BRANCH  21  22
HETATM   22  C2  UNL     1      13.667   2.708  17.078  1.00  0.00    -0.003 C
HETATM   23  C1  UNL     1      14.401   3.980  17.499  1.00  0.00     0.005 C
ENDBRANCH  21  22
ENDBRANCH  20  21
ENDBRANCH  18  20
ENDBRANCH   1  18
TORSDOF 8
ENDMDL