MODEL 3
REMARK VINA RESULT: -6.768384827      1.090      1.580
REMARK  7 active torsions:
REMARK  status: ('A' for Active; 'I' for Inactive)
REMARK    1  A    between atoms: N1_1  and  C1_4
REMARK    2  A    between atoms: C2_7  and  N3_8
REMARK    3  A    between atoms: N3_8  and  C3_9
REMARK    4  A    between atoms: N3_8  and  C9_17
REMARK    5  A    between atoms: C3_9  and  C4_10
REMARK    6  A    between atoms: C4_10  and  N4_11
REMARK    7  A    between atoms: C9_17  and  C10_18
ROOT
HETATM    1  C1  UNL     1      16.483   1.834  15.508  1.00  0.00     0.680 A
HETATM    2  N2  UNL     1      17.099   2.781  14.748  1.00  0.00    -0.175 N
ATOM      3  H2  UNL     1      17.882   2.524  14.147  1.00  0.00     0.186 HD
HETATM    4  C2  UNL     1      16.678   4.044  14.794  1.00  0.00     0.146 A
HETATM    5  C13 UNL     1      15.625   4.354  15.613  1.00  0.00     0.146 A
HETATM    6 CL1  UNL     1      14.991   5.994  15.740  1.00  0.00    -0.074 Cl
HETATM    7  C14 UNL     1      14.987   3.386  16.396  1.00  0.00     0.285 A
HETATM    8  O2  UNL     1      14.005   3.692  17.153  1.00  0.00    -0.266 OA
HETATM    9  N5  UNL     1      15.444   2.138  16.317  1.00  0.00    -0.155 N
ATOM     10  H5  UNL     1      15.006   1.404  16.873  1.00  0.00     0.187 HD
ENDROOT
BRANCH   4  11
HETATM   11  N3  UNL     1      17.257   5.123  14.017  1.00  0.00    -0.363 N
BRANCH  11  12
HETATM   12  C3  UNL     1      17.230   4.960  12.604  1.00  0.00     0.143 C
BRANCH  12  13
HETATM   13  C4  UNL     1      18.459   4.457  11.954  1.00  0.00     0.136 C
BRANCH  13  14
HETATM   14  N4  UNL     1      18.232   3.330  11.090  1.00  0.00    -0.407 N
HETATM   15  C5  UNL     1      19.221   2.350  10.977  1.00  0.00     0.143 C
HETATM   16  C6  UNL     1      18.552   0.987  11.251  1.00  0.00     0.187 C
HETATM   17  O1  UNL     1      17.516   1.091  12.162  1.00  0.00    -0.388 OA
HETATM   18  C7  UNL     1      16.422   1.807  11.710  1.00  0.00     0.187 C
HETATM   19  C8  UNL     1      16.888   2.970  10.837  1.00  0.00     0.143 C
ENDBRANCH  13  14
ENDBRANCH  12  13
ENDBRANCH  11  12
BRANCH  11  20
HETATM   20  C9  UNL     1      17.778   6.204  14.763  1.00  0.00     0.129 C
BRANCH  20  21
HETATM   21  C10 UNL     1      18.234   7.443  14.096  1.00  0.00     0.004 A
HETATM   22  C11 UNL     1      18.999   8.360  15.064  1.00  0.00     0.007 A
HETATM   23  C12 UNL     1      19.697   7.744  13.878  1.00  0.00     0.007 A
ENDBRANCH  20  21
ENDBRANCH  11  20
ENDBRANCH   4  11
BRANCH   1  24
HETATM   24  N1  UNL     1      16.905   0.623  15.449  1.00  0.00    -0.234 N
ATOM     25  H12 UNL     1      17.552   0.352  14.707  1.00  0.00     0.174 HD
ATOM     26  H11 UNL     1      16.582  -0.045  16.149  1.00  0.00     0.174 HD
ENDBRANCH   1  24
TORSDOF 7
ENDMDL