MODEL 2
REMARK VINA RESULT: -6.933813190      1.411      2.172
REMARK  9 active torsions:
REMARK  status: ('A' for Active; 'I' for Inactive)
REMARK    1  A    between atoms: N1_2  and  C3_4
REMARK    2  A    between atoms: C3_4  and  C4_5
REMARK    3  A    between atoms: C4_5  and  O1_6
REMARK    4  A    between atoms: O1_6  and  N2_7
REMARK    5  A    between atoms: C5_9  and  C6_10
REMARK    6  A    between atoms: C5_9  and  C13_28
REMARK    7  A    between atoms: C7_13  and  N4_14
REMARK    8  A    between atoms: C8_19  and  N6_20
REMARK    9  A    between atoms: N6_20  and  C9_22
ROOT
HETATM    1  C6  UNL     1      16.940   3.121  13.219  1.00  0.00     0.161 A
HETATM    2  N3  UNL     1      17.881   4.060  13.462  1.00  0.00    -0.174 N
ATOM      3  H3  UNL     1      18.368   4.474  12.667  1.00  0.00     0.186 HD
HETATM    4  C7  UNL     1      18.205   4.472  14.687  1.00  0.00     0.692 A
HETATM    5  N5  UNL     1      17.584   3.948  15.758  1.00  0.00    -0.023 N
ATOM      6  H5  UNL     1      17.825   4.259  16.699  1.00  0.00     0.203 HD
HETATM    7  C8  UNL     1      16.646   3.014  15.572  1.00  0.00     0.695 A
HETATM    8  N7  UNL     1      16.342   2.620  14.304  1.00  0.00    -0.174 N
ATOM      9  H7  UNL     1      15.624   1.907  14.176  1.00  0.00     0.186 HD
ENDROOT
BRANCH   1  10
HETATM   10  C5  UNL     1      16.612   2.701  11.867  1.00  0.00     0.081 C
HETATM   11  N2  UNL     1      16.350   3.570  10.977  1.00  0.00    -0.267 N
ATOM     12  H2  UNL     1      16.121   3.266  10.031  1.00  0.00     0.194 HD
BRANCH  11  13
HETATM   13  O1  UNL     1      16.370   4.900  11.266  1.00  0.00    -0.278 OA
BRANCH  13  14
HETATM   14  C4  UNL     1      17.179   5.834  10.570  1.00  0.00     0.231 C
BRANCH  14  15
HETATM   15  C3  UNL     1      18.072   5.148   9.564  1.00  0.00     0.299 C
BRANCH  15  16
HETATM   16  N1  UNL     1      19.424   5.151  10.049  1.00  0.00     0.082 N
HETATM   17  C1  UNL     1      19.918   3.853  10.389  1.00  0.00     0.309 C
HETATM   18  C2  UNL     1      19.660   6.102  11.096  1.00  0.00     0.309 C
ENDBRANCH  15  16
ENDBRANCH  14  15
ENDBRANCH  13  14
ENDBRANCH  11  13
BRANCH  10  19
HETATM   19  C13 UNL     1      16.585   1.286  11.502  1.00  0.00     0.041 A
HETATM   20  C14 UNL     1      17.285   0.215  12.206  1.00  0.00     0.011 A
HETATM   21  C15 UNL     1      17.854   0.704  10.919  1.00  0.00     0.011 A
ENDBRANCH  10  19
ENDBRANCH   1  10
BRANCH   4  22
HETATM   22  N4  UNL     1      19.108   5.373  14.901  1.00  0.00    -0.234 N
ATOM     23  H42 UNL     1      19.883   5.126  15.516  1.00  0.00     0.174 HD
ATOM     24  H41 UNL     1      19.067   6.301  14.481  1.00  0.00     0.174 HD
ENDBRANCH   4  22
BRANCH   7  25
HETATM   25  N6  UNL     1      16.021   2.478  16.548  1.00  0.00    -0.217 N
ATOM     26  H6  UNL     1      16.435   1.614  16.899  1.00  0.00     0.178 HD
BRANCH  25  27
HETATM   27  C9  UNL     1      14.846   2.890  17.220  1.00  0.00     0.036 C
HETATM   28  C10 UNL     1      15.112   2.822  18.725  1.00  0.00     0.038 C
HETATM   29  C11 UNL     1      14.425   4.318  16.934  1.00  0.00     0.038 C
HETATM   30  C12 UNL     1      13.674   1.990  16.958  1.00  0.00     0.038 C
ENDBRANCH  25  27
ENDBRANCH   7  25
TORSDOF 9
ENDMDL