MODEL 4
REMARK VINA RESULT: -6.582967013      1.151      1.156
REMARK  7 active torsions:
REMARK  status: ('A' for Active; 'I' for Inactive)
REMARK    1  A    between atoms: N1_1  and  C1_4
REMARK    2  A    between atoms: N3_8  and  C3_10
REMARK    3  A    between atoms: C3_10  and  C4_11
REMARK    4  A    between atoms: C4_11  and  N4_12
REMARK    5  A    between atoms: N6_22  and  C12_23
REMARK    6  A    between atoms: C12_23  and  C13_24
REMARK    7  A    between atoms: C13_24  and  C14_25
ROOT
HETATM    1  C1  UNL     1      17.013   2.046  12.301  1.00  0.00     0.679 A
HETATM    2  N2  UNL     1      17.170   3.066  11.445  1.00  0.00    -0.175 N
ATOM      3  H2  UNL     1      17.327   2.881  10.455  1.00  0.00     0.186 HD
HETATM    4  C2  UNL     1      17.119   4.336  11.894  1.00  0.00     0.147 A
HETATM    5  N3  UNL     1      17.261   5.367  11.160  1.00  0.00    -0.372 N
ATOM      6  H3  UNL     1      17.201   6.276  11.618  1.00  0.00     0.161 HD
HETATM    7  C10 UNL     1      16.901   4.506  13.258  1.00  0.00     0.123 A
HETATM    8  N5  UNL     1      16.822   5.661  13.951  1.00  0.00    -0.346 N
ATOM      9  H5  UNL     1      16.904   6.604  13.571  1.00  0.00     0.167 HD
HETATM   10  C11 UNL     1      16.619   5.333  15.220  1.00  0.00     0.185 A
HETATM   11  N6  UNL     1      16.561   3.992  15.383  1.00  0.00    -0.327 N
HETATM   12  C15 UNL     1      16.738   3.480  14.148  1.00  0.00     0.155 A
HETATM   13  N7  UNL     1      16.802   2.226  13.616  1.00  0.00    -0.174 N
ATOM     14  H7  UNL     1      16.689   1.415  14.223  1.00  0.00     0.186 HD
ENDROOT
BRANCH   5  15
HETATM   15  C3  UNL     1      17.498   5.363   9.736  1.00  0.00     0.140 C
BRANCH  15  16
HETATM   16  C4  UNL     1      17.180   6.732   9.178  1.00  0.00     0.136 C
BRANCH  16  17
HETATM   17  N4  UNL     1      15.985   7.222   9.765  1.00  0.00    -0.411 N
HETATM   18  C5  UNL     1      14.806   7.080   8.970  1.00  0.00     0.117 C
HETATM   19  C6  UNL     1      13.987   8.375   8.945  1.00  0.00     0.019 C
HETATM   20  C7  UNL     1      13.667   8.830  10.349  1.00  0.00     0.003 C
HETATM   21  C8  UNL     1      14.789   8.553  11.321  1.00  0.00     0.019 C
HETATM   22  C9  UNL     1      16.071   8.447  10.481  1.00  0.00     0.117 C
ENDBRANCH  16  17
ENDBRANCH  15  16
ENDBRANCH   5  15
BRANCH   1  23
HETATM   23  N1  UNL     1      17.075   0.844  11.794  1.00  0.00    -0.234 N
ATOM     24  H12 UNL     1      17.090   0.704  10.784  1.00  0.00     0.174 HD
ATOM     25  H11 UNL     1      17.107   0.070  12.459  1.00  0.00     0.174 HD
ENDBRANCH   1  23
BRANCH  11  26
HETATM   26  C12 UNL     1      16.344   3.232  16.560  1.00  0.00     0.134 C
BRANCH  26  27
HETATM   27  C13 UNL     1      15.028   3.237  17.204  1.00  0.00     0.051 C
BRANCH  27  28
HETATM   28  C14 UNL     1      14.846   2.447  18.461  1.00  0.00     0.224 C
HETATM   29  F1  UNL     1      14.902   3.157  19.619  1.00  0.00    -0.255 F
ENDBRANCH  27  28
ENDBRANCH  26  27
ENDBRANCH  11  26
TORSDOF 7
ENDMDL