MODEL 4
REMARK VINA RESULT: -6.818170447      1.159      1.483
REMARK  7 active torsions:
REMARK  status: ('A' for Active; 'I' for Inactive)
REMARK    1  A    between atoms: N1_2  and  C2_5
REMARK    2  A    between atoms: C2_5  and  C3_6
REMARK    3  A    between atoms: C3_6  and  C4_7
REMARK    4  A    between atoms: N2_8  and  C5_10
REMARK    5  A    between atoms: C6_13  and  C7_14
REMARK    6  A    between atoms: C7_14  and  O1_16
REMARK    7  A    between atoms: C7_14  and  C9_18
ROOT
HETATM    1  C5  UNL     1      17.435   4.039  13.412  1.00  0.00     0.115 A
HETATM    2  N3  UNL     1      17.230   2.773  12.887  1.00  0.00    -0.329 N
ATOM      3  H3  UNL     1      16.796   2.073  13.490  1.00  0.00     0.168 HD
HETATM    4  C6  UNL     1      17.558   2.408  11.657  1.00  0.00     0.120 A
HETATM    5  N4  UNL     1      18.137   3.317  10.840  1.00  0.00    -0.345 N
ATOM      6  H4  UNL     1      18.405   3.062   9.889  1.00  0.00     0.167 HD
HETATM    7  C10 UNL     1      18.353   4.549  11.294  1.00  0.00     0.049 A
HETATM    8  C11 UNL     1      18.013   4.955  12.566  1.00  0.00     0.016 A
HETATM    9  C12 UNL     1      18.156   6.390  12.974  1.00  0.00     0.048 C
HETATM   10  C13 UNL     1      16.753   6.991  13.049  1.00  0.00     0.017 C
HETATM   11  C14 UNL     1      18.961   7.207  11.982  1.00  0.00     0.281 C
HETATM   12  N5  UNL     1      19.768   6.463  11.104  1.00  0.00     0.090 N
HETATM   13  C15 UNL     1      20.964   5.955  11.740  1.00  0.00     0.310 C
HETATM   14  C16 UNL     1      19.036   5.467  10.363  1.00  0.00     0.329 C
ENDROOT
BRANCH   1  15
HETATM   15  N2  UNL     1      17.137   4.193  14.609  1.00  0.00    -0.355 N
HETATM   16  C4  UNL     1      16.188   4.199  15.575  1.00  0.00     0.064 C
ATOM     17  H2  UNL     1      18.012   4.421  15.082  1.00  0.00     0.166 HD
BRANCH  16  18
HETATM   18  C3  UNL     1      16.320   3.160  16.650  1.00  0.00     0.072 C
BRANCH  18  19
HETATM   19  C2  UNL     1      16.167   1.738  16.291  1.00  0.00     0.237 C
BRANCH  19  20
HETATM   20  N1  UNL     1      15.350   1.025  17.277  1.00  0.00    -0.079 N
HETATM   21  C1  UNL     1      14.096   1.720  17.430  1.00  0.00     0.267 C
ATOM     22  H12 UNL     1      15.835   0.895  18.165  1.00  0.00     0.276 HD
ATOM     23  H11 UNL     1      15.223   0.041  17.041  1.00  0.00     0.276 HD
ENDBRANCH  19  20
ENDBRANCH  18  19
ENDBRANCH  16  18
ENDBRANCH   1  15
BRANCH   4  24
HETATM   24  C7  UNL     1      17.312   1.028  11.076  1.00  0.00     0.138 C
HETATM   25  C8  UNL     1      16.986   0.095  12.204  1.00  0.00     0.057 C
BRANCH  24  26
HETATM   26  O1  UNL     1      16.296   1.118  10.159  1.00  0.00    -0.380 OA
ATOM     27  H1  UNL     1      15.514   0.734  10.537  1.00  0.00     0.211 HD
ENDBRANCH  24  26
BRANCH  24  28
HETATM   28  C9  UNL     1      18.564   0.548  10.352  1.00  0.00     0.267 C
HETATM   29  F1  UNL     1      19.704   0.614  11.092  1.00  0.00    -0.252 F
ENDBRANCH  24  28
ENDBRANCH   4  24
TORSDOF 7
ENDMDL