MODEL 4
REMARK VINA RESULT: -6.310782256      1.665      3.111
REMARK  8 active torsions:
REMARK  status: ('A' for Active; 'I' for Inactive)
REMARK    1  A    between atoms: N1_1  and  C1_5
REMARK    2  A    between atoms: C1_5  and  C2_6
REMARK    3  A    between atoms: C2_6  and  C3_7
REMARK    4  A    between atoms: C3_7  and  N2_8
REMARK    5  A    between atoms: C6_11  and  C7_12
REMARK    6  A    between atoms: C7_12  and  N3_13
REMARK    7  A    between atoms: N3_13  and  C8_15
REMARK    8  A    between atoms: C11_21  and  C12_22
ROOT
HETATM    1  C8  UNL     1      17.380   4.681  11.501  1.00  0.00     0.682 A
HETATM    2  N4  UNL     1      16.836   3.485  11.673  1.00  0.00    -0.199 N
ATOM      3  H4  UNL     1      15.878   3.425  12.016  1.00  0.00     0.183 HD
HETATM    4  C9  UNL     1      17.500   2.354  11.411  1.00  0.00     0.150 A
HETATM    5  C10 UNL     1      18.809   2.404  10.943  1.00  0.00     0.157 A
HETATM    6  F1  UNL     1      19.513   1.284  10.698  1.00  0.00    -0.203 F
HETATM    7  C11 UNL     1      19.374   3.662  10.769  1.00  0.00     0.097 A
HETATM    8  N6  UNL     1      18.661   4.749  11.044  1.00  0.00    -0.190 N
ATOM      9  H6  UNL     1      19.088   5.665  10.908  1.00  0.00     0.184 HD
ENDROOT
BRANCH   1  10
HETATM   10  N3  UNL     1      16.724   5.743  11.826  1.00  0.00    -0.205 N
ATOM     11  H3  UNL     1      15.971   6.033  11.203  1.00  0.00     0.183 HD
BRANCH  10  12
HETATM   12  C7  UNL     1      16.952   6.520  12.942  1.00  0.00     0.083 C
BRANCH  12  13
HETATM   13  C6  UNL     1      16.293   6.407  14.253  1.00  0.00     0.028 C
HETATM   14  C5  UNL     1      15.007   5.720  14.405  1.00  0.00     0.040 C
HETATM   15  C4  UNL     1      15.009   4.984  15.769  1.00  0.00     0.273 C
HETATM   16  N2  UNL     1      15.927   3.840  15.699  1.00  0.00     0.088 N
HETATM   17  C17 UNL     1      17.134   4.206  15.054  1.00  0.00     0.273 C
HETATM   18  C16 UNL     1      17.302   5.700  15.185  1.00  0.00     0.040 C
BRANCH  16  19
HETATM   19  C3  UNL     1      16.131   3.210  16.968  1.00  0.00     0.274 C
BRANCH  19  20
HETATM   20  C2  UNL     1      14.865   3.150  17.753  1.00  0.00     0.057 C
BRANCH  20  21
HETATM   21  C1  UNL     1      14.188   1.778  17.644  1.00  0.00     0.231 C
BRANCH  21  22
HETATM   22  N1  UNL     1      15.178   0.755  17.691  1.00  0.00    -0.079 N
ATOM     23  H13 UNL     1      16.096   1.093  17.401  1.00  0.00     0.274 HD
ATOM     24  H12 UNL     1      15.416   0.491  18.648  1.00  0.00     0.274 HD
ATOM     25  H11 UNL     1      14.868  -0.044  17.138  1.00  0.00     0.274 HD
ENDBRANCH  21  22
ENDBRANCH  20  21
ENDBRANCH  19  20
ENDBRANCH  16  19
ENDBRANCH  12  13
ENDBRANCH  10  12
ENDBRANCH   1  10
BRANCH   7  26
HETATM   26  C12 UNL     1      20.772   3.674  10.220  1.00  0.00     0.239 C
HETATM   27  C13 UNL     1      21.535   4.683  11.066  1.00  0.00     0.041 C
HETATM   28  C14 UNL     1      22.349   5.510  10.126  1.00  0.00     0.030 C
HETATM   29  C15 UNL     1      21.688   5.284   8.770  1.00  0.00     0.233 C
HETATM   30  N5  UNL     1      20.651   4.317   8.920  1.00  0.00    -0.065 N
ATOM     31  H52 UNL     1      20.639   3.642   8.156  1.00  0.00     0.278 HD
ATOM     32  H51 UNL     1      19.725   4.719   8.773  1.00  0.00     0.278 HD
ENDBRANCH   7  26
TORSDOF 8
ENDMDL