MODEL 4
REMARK VINA RESULT: -6.558681084      3.069      6.310
REMARK  9 active torsions:
REMARK  status: ('A' for Active; 'I' for Inactive)
REMARK    1  A    between atoms: N1_1  and  C1_5
REMARK    2  A    between atoms: C1_5  and  C2_6
REMARK    3  A    between atoms: C2_6  and  C3_7
REMARK    4  A    between atoms: C3_7  and  N2_8
REMARK    5  A    between atoms: N2_8  and  C4_10
REMARK    6  A    between atoms: C7_17  and  N5_18
REMARK    7  A    between atoms: N5_18  and  C8_20
REMARK    8  A    between atoms: C8_20  and  C9_21
REMARK    9  A    between atoms: C9_21  and  C10_22
ROOT
HETATM    1  C4  UNL     1      16.573   2.636  11.557  1.00  0.00     0.131 A
HETATM    2  N3  UNL     1      16.692   3.607  10.633  1.00  0.00    -0.337 N
ATOM      3  H3  UNL     1      16.568   3.379   9.647  1.00  0.00     0.168 HD
HETATM    4  C5  UNL     1      16.968   4.866  10.986  1.00  0.00     0.182 A
HETATM    5  N4  UNL     1      17.132   5.174  12.284  1.00  0.00    -0.347 N
ATOM      6  H4  UNL     1      17.343   6.138  12.543  1.00  0.00     0.167 HD
HETATM    7  C6  UNL     1      17.023   4.233  13.265  1.00  0.00     0.108 A
HETATM    8  C7  UNL     1      17.195   4.568  14.603  1.00  0.00     0.131 A
HETATM    9  N6  UNL     1      17.084   3.621  15.550  1.00  0.00    -0.337 N
ATOM     10  H6  UNL     1      17.209   3.856  16.535  1.00  0.00     0.168 HD
HETATM   11  C15 UNL     1      16.805   2.359  15.183  1.00  0.00     0.182 A
HETATM   12  N7  UNL     1      16.634   2.020  13.874  1.00  0.00    -0.347 N
ATOM     13  H7  UNL     1      16.423   1.052  13.632  1.00  0.00     0.167 HD
HETATM   14  C16 UNL     1      16.738   2.934  12.897  1.00  0.00     0.108 A
ENDROOT
BRANCH   1  15
HETATM   15  N2  UNL     1      16.311   1.431  11.247  1.00  0.00    -0.374 N
ATOM     16  H2  UNL     1      15.485   1.016  11.676  1.00  0.00     0.161 HD
BRANCH  15  17
HETATM   17  C3  UNL     1      17.059   0.600  10.355  1.00  0.00     0.123 C
BRANCH  17  18
HETATM   18  C2  UNL     1      18.223  -0.089  11.016  1.00  0.00     0.047 C
BRANCH  18  19
HETATM   19  C1  UNL     1      17.788  -1.322  11.783  1.00  0.00     0.231 C
BRANCH  19  20
HETATM   20  N1  UNL     1      18.571  -2.478  11.429  1.00  0.00    -0.079 N
ATOM     21  H13 UNL     1      19.551  -2.234  11.291  1.00  0.00     0.274 HD
ATOM     22  H12 UNL     1      18.673  -3.114  12.220  1.00  0.00     0.274 HD
ATOM     23  H11 UNL     1      18.191  -2.960  10.614  1.00  0.00     0.274 HD
ENDBRANCH  19  20
ENDBRANCH  18  19
ENDBRANCH  17  18
ENDBRANCH  15  17
ENDBRANCH   1  15
BRANCH   8  24
HETATM   24  N5  UNL     1      17.459   5.801  14.853  1.00  0.00    -0.374 N
ATOM     25  H5  UNL     1      16.693   6.403  15.156  1.00  0.00     0.161 HD
BRANCH  24  26
HETATM   26  C8  UNL     1      18.775   6.385  14.732  1.00  0.00     0.121 C
BRANCH  26  27
HETATM   27  C9  UNL     1      18.601   7.876  14.597  1.00  0.00     0.024 C
BRANCH  27  28
HETATM   28  C10 UNL     1      19.912   8.617  14.735  1.00  0.00    -0.013 C
HETATM   29  C11 UNL     1      20.062   9.552  13.554  1.00  0.00     0.005 C
HETATM   30  C12 UNL     1      21.046  10.574  14.057  1.00  0.00     0.000 C
HETATM   31  C13 UNL     1      20.782  10.674  15.533  1.00  0.00     0.000 C
HETATM   32  C14 UNL     1      19.776   9.604  15.882  1.00  0.00     0.005 C
ENDBRANCH  27  28
ENDBRANCH  26  27
ENDBRANCH  24  26
ENDBRANCH   8  24
TORSDOF 9
ENDMDL