MODEL 3
REMARK VINA RESULT: -5.165699735      1.564      2.591
REMARK  2 active torsions:
REMARK  status: ('A' for Active; 'I' for Inactive)
REMARK    1  A    between atoms: N1_2  and  C2_4
REMARK    2  A    between atoms: C2_4  and  C3_5
ROOT
HETATM    1  C2  UNL     1      -5.034   3.584  14.644  1.00  0.00     0.054 C
HETATM    2  C8  UNL     1      -4.328   2.796  13.570  1.00  0.00     0.060 C
HETATM    3  C9  UNL     1      -3.782   3.929  12.692  1.00  0.00     0.239 C
HETATM    4  N2  UNL     1      -3.277   4.865  13.659  1.00  0.00    -0.072 N
HETATM    5  C10 UNL     1      -3.180   6.217  13.164  1.00  0.00     0.272 C
HETATM    6  C11 UNL     1      -1.885   4.454  13.919  1.00  0.00     0.272 C
HETATM    7  C12 UNL     1      -4.092   4.740  14.840  1.00  0.00     0.267 C
ENDROOT
BRANCH   1   8
HETATM    8  N1  UNL     1      -6.333   3.896  14.237  1.00  0.00    -0.415 N
HETATM    9  C1  UNL     1      -6.785   5.174  13.978  1.00  0.00     0.140 C
ATOM     10  H1  UNL     1      -6.994   3.127  14.124  1.00  0.00     0.153 HD
ENDBRANCH   1   8
BRANCH   1  11
HETATM   11  C3  UNL     1      -5.144   2.851  15.963  1.00  0.00     0.015 C
HETATM   12  C4  UNL     1      -4.776   1.397  15.844  1.00  0.00     0.007 C
HETATM   13  C5  UNL     1      -5.521   0.773  17.022  1.00  0.00     0.000 C
HETATM   14  C6  UNL     1      -6.505   1.792  17.518  1.00  0.00     0.000 C
HETATM   15  C7  UNL     1      -6.598   2.785  16.351  1.00  0.00     0.007 C
ENDBRANCH   1  11
TORSDOF 2
ENDMDL