MODEL 3
REMARK VINA RESULT: -5.968892497      2.270      4.321
REMARK  1 active torsions:
REMARK  status: ('A' for Active; 'I' for Inactive)
REMARK    1  A    between atoms: C2_2  and  C3_3
ROOT
HETATM    1  C3  UNL     1      -4.123   2.439  12.182  1.00  0.00     0.012 A
HETATM    2  C4  UNL     1      -4.478   1.484  13.325  1.00  0.00     0.014 A
HETATM    3  C5  UNL     1      -5.381   2.500  13.929  1.00  0.00     0.002 A
HETATM    4  C6  UNL     1      -4.959   3.483  12.895  1.00  0.00     0.002 A
HETATM    5  C7  UNL     1      -4.204   4.655  13.438  1.00  0.00    -0.009 C
HETATM    6  C8  UNL     1      -5.081   5.272  14.538  1.00  0.00     0.010 C
HETATM    7  C9  UNL     1      -4.437   4.224  15.457  1.00  0.00    -0.003 C
HETATM    8  C10 UNL     1      -3.240   4.283  14.533  1.00  0.00     0.010 C
HETATM    9  C11 UNL     1      -5.179   2.903  15.330  1.00  0.00    -0.007 C
HETATM   10  C12 UNL     1      -6.526   3.166  16.023  1.00  0.00     0.039 C
HETATM   11  C13 UNL     1      -6.759   1.826  16.696  1.00  0.00     0.233 C
HETATM   12  N1  UNL     1      -5.449   1.605  17.303  1.00  0.00    -0.074 N
ATOM     13  H11 UNL     1      -5.328   0.687  17.731  1.00  0.00     0.277 HD
ATOM     14  H12 UNL     1      -5.279   2.139  18.154  1.00  0.00     0.277 HD
HETATM   15  C14 UNL     1      -4.528   1.892  16.211  1.00  0.00     0.242 C
ENDROOT
BRANCH   1  16
HETATM   16  C2  UNL     1      -4.699   2.006  10.860  1.00  0.00    -0.032 C
HETATM   17  C1  UNL     1      -5.069   0.755  10.641  1.00  0.00     0.007 C
ENDBRANCH   1  16
TORSDOF 1
ENDMDL