MODEL 1
REMARK VINA RESULT: -6.467622049      0.000      0.000
REMARK  2 active torsions:
REMARK  status: ('A' for Active; 'I' for Inactive)
REMARK    1  A    between atoms: C2_2  and  C3_3
REMARK    2  A    between atoms: C3_3  and  N1_4
ROOT
HETATM    1  N1  UNL     1      -3.287   4.054  13.701  1.00  0.00    -0.350 N
HETATM    2  C4  UNL     1      -3.644   3.479  12.507  1.00  0.00     0.068 C
HETATM    3  C5  UNL     1      -4.474   2.230  12.563  1.00  0.00     0.046 C
HETATM    4  C6  UNL     1      -4.536   1.617  13.940  1.00  0.00     0.020 C
HETATM    5  C7  UNL     1      -4.761   2.605  15.032  1.00  0.00    -0.007 C
HETATM    6  C8  UNL     1      -4.634   1.904  16.367  1.00  0.00     0.015 C
HETATM    7  C9  UNL     1      -5.903   1.127  16.644  1.00  0.00     0.001 C
HETATM    8  C10 UNL     1      -7.009   2.091  17.003  1.00  0.00     0.000 C
HETATM    9  C11 UNL     1      -6.725   3.415  16.378  1.00  0.00     0.001 C
HETATM   10  C12 UNL     1      -6.095   3.276  14.999  1.00  0.00     0.015 C
HETATM   11  C13 UNL     1      -3.649   3.640  14.960  1.00  0.00     0.078 C
ENDROOT
BRANCH   1  12
HETATM   12  C3  UNL     1      -2.519   5.229  13.609  1.00  0.00     0.094 C
BRANCH  12  13
HETATM   13  C2  UNL     1      -3.148   6.396  14.308  1.00  0.00     0.007 C
HETATM   14  C1  UNL     1      -2.397   7.460  14.527  1.00  0.00     0.012 C
ENDBRANCH  12  13
ENDBRANCH   1  12
TORSDOF 2
ENDMDL