MODEL 4
REMARK VINA RESULT: -6.432425116      0.713      1.660
REMARK  2 active torsions:
REMARK  status: ('A' for Active; 'I' for Inactive)
REMARK       I    between atoms: C1_2  and  N1_3
REMARK    1  A    between atoms: C1_2  and  C11_14
REMARK    2  A    between atoms: N1_3  and  C2_5
ROOT
HETATM    1  C2  UNL     1      -4.370   3.969  14.728  1.00  0.00     0.037 C
HETATM    2  C3  UNL     1      -2.883   3.819  14.985  1.00  0.00     0.036 C
HETATM    3  C4  UNL     1      -2.358   4.223  13.599  1.00  0.00    -0.011 C
HETATM    4  C5  UNL     1      -2.757   5.618  13.237  1.00  0.00     0.009 C
HETATM    5  C6  UNL     1      -4.197   5.920  13.475  1.00  0.00    -0.011 C
HETATM    6  C7  UNL     1      -5.024   4.947  12.624  1.00  0.00     0.012 C
HETATM    7  C8  UNL     1      -4.588   3.624  13.272  1.00  0.00     0.014 C
HETATM    8  C9  UNL     1      -3.210   3.268  12.760  1.00  0.00     0.012 C
HETATM    9  C10 UNL     1      -4.662   5.452  14.862  1.00  0.00     0.036 C
ENDROOT
BRANCH   1  10
HETATM   10  N1  UNL     1      -5.189   3.141  15.557  1.00  0.00    -0.351 N
HETATM   11  C1  UNL     1      -4.761   1.950  16.177  1.00  0.00     0.222 C
HETATM   12  O1  UNL     1      -3.588   1.548  16.017  1.00  0.00    -0.273 OA
ATOM     13  H1  UNL     1      -6.155   3.434  15.711  1.00  0.00     0.163 HD
BRANCH  11  14
HETATM   14  C11 UNL     1      -5.684   1.168  17.014  1.00  0.00     0.078 A
HETATM   15  C12 UNL     1      -6.359   1.789  18.177  1.00  0.00     0.015 A
HETATM   16  C13 UNL     1      -7.160   1.443  16.915  1.00  0.00     0.015 A
ENDBRANCH  11  14
ENDBRANCH   1  10
TORSDOF 2
ENDMDL