MODEL 4
REMARK VINA RESULT: -5.894060241      0.432      2.319
REMARK  2 active torsions:
REMARK  status: ('A' for Active; 'I' for Inactive)
REMARK    1  A    between atoms: C1_2  and  N1_3
REMARK    2  A    between atoms: N1_3  and  C2_5
ROOT
HETATM    1  C2  UNL     1      -4.612   2.256  15.201  1.00  0.00     0.033 C
HETATM    2  C3  UNL     1      -3.361   3.109  15.404  1.00  0.00     0.035 C
HETATM    3  C4  UNL     1      -3.368   4.395  14.666  1.00  0.00    -0.012 C
HETATM    4  C5  UNL     1      -2.820   4.328  13.274  1.00  0.00     0.005 C
HETATM    5  C6  UNL     1      -3.578   3.573  12.287  1.00  0.00     0.005 C
HETATM    6  C7  UNL     1      -4.804   2.851  12.751  1.00  0.00    -0.012 C
HETATM    7  C8  UNL     1      -5.933   3.753  13.144  1.00  0.00     0.009 C
HETATM    8  C9  UNL     1      -5.864   4.232  14.556  1.00  0.00    -0.012 C
HETATM    9  C10 UNL     1      -4.686   5.132  14.706  1.00  0.00     0.009 C
HETATM   10  C11 UNL     1      -5.811   3.083  15.542  1.00  0.00     0.035 C
HETATM   11  C12 UNL     1      -4.548   1.792  13.775  1.00  0.00     0.035 C
ENDROOT
BRANCH   1  12
HETATM   12  N1  UNL     1      -4.522   1.140  16.083  1.00  0.00    -0.359 N
ATOM     13  H1  UNL     1      -3.702   0.536  16.035  1.00  0.00     0.162 HD
BRANCH  12  14
HETATM   14  C1  UNL     1      -5.530   0.845  17.016  1.00  0.00     0.349 C
HETATM   15  O1  UNL     1      -5.722  -0.288  17.548  1.00  0.00    -0.284 OA
ENDBRANCH  12  14
ENDBRANCH   1  12
TORSDOF 2
ENDMDL