MODEL 5
REMARK VINA RESULT: -5.691946392      1.827      2.836
REMARK  2 active torsions:
REMARK  status: ('A' for Active; 'I' for Inactive)
REMARK    1  A    between atoms: C1_2  and  N1_3
REMARK    2  A    between atoms: N1_3  and  C2_5
ROOT
HETATM    1  C2  UNL     1      -4.329   3.273  14.340  1.00  0.00     0.088 C
HETATM    2  C3  UNL     1      -3.110   3.826  14.950  1.00  0.00     0.030 C
HETATM    3  C4  UNL     1      -2.383   4.920  14.269  1.00  0.00    -0.012 C
HETATM    4  C5  UNL     1      -1.702   4.514  12.986  1.00  0.00     0.009 C
HETATM    5  C6  UNL     1      -2.618   4.595  11.794  1.00  0.00    -0.013 C
HETATM    6  C7  UNL     1      -3.311   5.919  11.670  1.00  0.00     0.009 C
HETATM    7  C8  UNL     1      -4.077   6.192  12.926  1.00  0.00    -0.013 C
HETATM    8  C9  UNL     1      -3.152   6.195  14.094  1.00  0.00     0.009 C
HETATM    9  C10 UNL     1      -5.179   5.171  13.042  1.00  0.00     0.011 C
HETATM   10  C11 UNL     1      -4.676   3.758  12.959  1.00  0.00     0.009 C
HETATM   11  C12 UNL     1      -3.639   3.518  11.924  1.00  0.00     0.011 C
ENDROOT
BRANCH   1  12
HETATM   12  N1  UNL     1      -4.305   1.836  14.340  1.00  0.00    -0.363 N
ATOM     13  H1  UNL     1      -4.103   1.331  13.477  1.00  0.00     0.162 HD
BRANCH  12  14
HETATM   14  C1  UNL     1      -4.559   1.124  15.527  1.00  0.00     0.348 C
HETATM   15  O1  UNL     1      -3.664   0.532  16.195  1.00  0.00    -0.284 OA
ENDBRANCH  12  14
ENDBRANCH   1  12
TORSDOF 2
ENDMDL