MODEL 4
REMARK VINA RESULT: -6.291851528      1.867      5.074
REMARK  2 active torsions:
REMARK  status: ('A' for Active; 'I' for Inactive)
REMARK    1  A    between atoms: C5_5  and  C6_6
REMARK    2  A    between atoms: C6_6  and  N1_7
ROOT
HETATM    1  C1  UNL     1      -4.313   4.672  12.367  1.00  0.00    -0.107 C
HETATM    2  C2  UNL     1      -4.499   3.584  12.207  1.00  0.00    -0.107 C
HETATM    3  C3  UNL     1      -4.693   2.192  12.099  1.00  0.00     0.094 C
HETATM    4  C4  UNL     1      -4.314   1.503  13.425  1.00  0.00     0.018 C
HETATM    5  C5  UNL     1      -4.513   2.388  14.604  1.00  0.00     0.015 C
HETATM    6  C10 UNL     1      -3.617   3.554  14.777  1.00  0.00     0.006 C
HETATM    7  C11 UNL     1      -4.320   4.885  14.838  1.00  0.00     0.001 C
HETATM    8  C12 UNL     1      -3.552   5.991  14.151  1.00  0.00     0.012 C
HETATM    9  C13 UNL     1      -4.040   6.033  12.668  1.00  0.00     0.094 C
ENDROOT
BRANCH   5  10
HETATM   10  C6  UNL     1      -4.517   1.465  15.836  1.00  0.00     0.277 C
BRANCH  10  11
HETATM   11  N1  UNL     1      -5.390   1.985  16.862  1.00  0.00     0.088 N
HETATM   12  C7  UNL     1      -6.009   0.984  17.678  1.00  0.00     0.274 C
HETATM   13  C8  UNL     1      -7.340   1.360  17.095  1.00  0.00     0.060 C
HETATM   14  C9  UNL     1      -6.659   2.498  16.376  1.00  0.00     0.274 C
ENDBRANCH  10  11
ENDBRANCH   5  10
TORSDOF 2
ENDMDL