MODEL 2
REMARK VINA RESULT: -5.402065148      1.680      3.437
REMARK  4 active torsions:
REMARK  status: ('A' for Active; 'I' for Inactive)
REMARK    1  A    between atoms: N1_1  and  C1_5
REMARK    2  A    between atoms: C1_5  and  C2_6
REMARK    3  A    between atoms: C8_12  and  C9_13
REMARK    4  A    between atoms: C11_15  and  C12_16
ROOT
HETATM    1  C2  UNL     1      -4.175   2.432  12.346  1.00  0.00     0.016 C
HETATM    2  C3  UNL     1      -3.294   3.556  12.031  1.00  0.00     0.011 C
HETATM    3  C4  UNL     1      -3.152   4.697  12.955  1.00  0.00    -0.009 C
HETATM    4  C5  UNL     1      -4.338   5.605  12.802  1.00  0.00     0.010 C
HETATM    5  C6  UNL     1      -5.216   5.055  13.946  1.00  0.00    -0.013 C
HETATM    6  C7  UNL     1      -5.848   3.844  13.468  1.00  0.00     0.010 C
HETATM    7  C8  UNL     1      -5.037   2.553  13.574  1.00  0.00    -0.004 C
HETATM    8  C12 UNL     1      -3.046   4.314  14.440  1.00  0.00    -0.006 C
HETATM    9  C13 UNL     1      -4.188   5.076  15.005  1.00  0.00     0.010 C
ENDROOT
BRANCH   1  10
HETATM   10  C1  UNL     1      -5.074   2.105  11.136  1.00  0.00     0.234 C
BRANCH  10  11
HETATM   11  N1  UNL     1      -5.081   0.679  10.864  1.00  0.00    -0.079 N
ATOM     12  H13 UNL     1      -5.456   0.148  11.650  1.00  0.00     0.274 HD
ATOM     13  H12 UNL     1      -5.781   0.433  10.164  1.00  0.00     0.274 HD
ATOM     14  H11 UNL     1      -4.152   0.353  10.599  1.00  0.00     0.274 HD
ENDBRANCH  10  11
ENDBRANCH   1  10
BRANCH   7  15
HETATM   15  C9  UNL     1      -4.410   2.473  14.870  1.00  0.00    -0.005 A
HETATM   16  C10 UNL     1      -4.684   1.956  16.166  1.00  0.00     0.011 A
HETATM   17  C11 UNL     1      -4.453   0.960  15.174  1.00  0.00    -0.005 A
ENDBRANCH   7  15
TORSDOF 4
ENDMDL