MODEL 5
REMARK VINA RESULT: -5.352327707      1.257      2.234
REMARK  2 active torsions:
REMARK  status: ('A' for Active; 'I' for Inactive)
REMARK    1  A    between atoms: C8_8  and  N1_9
REMARK    2  A    between atoms: N1_9  and  C9_11
ROOT
HETATM    1  C1  UNL     1      -3.257   6.097  13.588  1.00  0.00     0.009 C
HETATM    2  C2  UNL     1      -4.599   5.759  12.976  1.00  0.00    -0.012 C
HETATM    3  C3  UNL     1      -4.419   5.013  11.682  1.00  0.00     0.009 C
HETATM    4  C4  UNL     1      -3.593   3.791  11.965  1.00  0.00    -0.012 C
HETATM    5  C5  UNL     1      -2.266   4.104  12.610  1.00  0.00     0.009 C
HETATM    6  C6  UNL     1      -2.546   4.815  13.909  1.00  0.00    -0.012 C
HETATM    7  C7  UNL     1      -3.362   3.976  14.866  1.00  0.00     0.035 C
HETATM    8  C8  UNL     1      -4.685   3.627  14.220  1.00  0.00     0.027 C
HETATM    9  C12 UNL     1      -5.393   4.918  13.930  1.00  0.00     0.035 C
HETATM   10  C13 UNL     1      -4.356   2.910  12.914  1.00  0.00     0.035 C
ENDROOT
BRANCH   8  11
HETATM   11  N1  UNL     1      -5.453   2.695  14.988  1.00  0.00    -0.408 N
ATOM     12  H1  UNL     1      -6.432   2.497  14.786  1.00  0.00     0.154 HD
BRANCH  11  13
HETATM   13  C9  UNL     1      -4.747   2.057  16.061  1.00  0.00     0.077 A
HETATM   14  C10 UNL     1      -5.585   0.997  16.774  1.00  0.00     0.027 A
HETATM   15  C11 UNL     1      -4.438   0.568  15.906  1.00  0.00     0.027 A
ENDBRANCH  11  13
ENDBRANCH   8  11
TORSDOF 2
ENDMDL