MODEL 5
REMARK VINA RESULT: -6.391549752      2.873      5.172
REMARK  1 active torsions:
REMARK  status: ('A' for Active; 'I' for Inactive)
REMARK    1  A    between atoms: C2_2  and  C4_4
ROOT
HETATM    1  C4  UNL     1      -2.767   4.275  11.474  1.00  0.00     0.190 C
HETATM    2  C5  UNL     1      -3.779   4.285  12.513  1.00  0.00    -0.025 A
HETATM    3  C6  UNL     1      -3.722   3.299  13.514  1.00  0.00     0.016 A
HETATM    4  C7  UNL     1      -4.646   3.254  14.536  1.00  0.00    -0.056 A
HETATM    5  C8  UNL     1      -4.590   2.228  15.583  1.00  0.00     0.049 C
HETATM    6  C9  UNL     1      -5.663   4.198  14.591  1.00  0.00    -0.056 A
HETATM    7  C10 UNL     1      -6.635   4.115  15.704  1.00  0.00     0.049 C
HETATM    8  C11 UNL     1      -5.734   5.171  13.619  1.00  0.00     0.017 A
HETATM    9  C12 UNL     1      -4.785   5.194  12.593  1.00  0.00    -0.027 A
HETATM   10  C13 UNL     1      -4.967   6.272  11.606  1.00  0.00     0.122 C
HETATM   11  C14 UNL     1      -6.235   7.029  11.749  1.00  0.00     0.038 C
HETATM   12  N1  UNL     1      -4.892   5.671  10.260  1.00  0.00    -0.310 N
ATOM     13  H1  UNL     1      -5.642   5.519   9.585  1.00  0.00     0.172 HD
HETATM   14  S1  UNL     1      -3.214   5.289  10.111  1.00  0.00     0.239 S
HETATM   15  O1  UNL     1      -2.495   6.634  10.184  1.00  0.00    -0.205 OA
HETATM   16  O2  UNL     1      -2.931   4.628   8.791  1.00  0.00    -0.205 OA
ENDROOT
BRANCH   1  17
HETATM   17  C2  UNL     1      -1.394   4.547  11.969  1.00  0.00    -0.069 C
HETATM   18  C1  UNL     1      -0.382   3.869  11.502  1.00  0.00     0.015 C
HETATM   19  C3  UNL     1      -1.108   5.582  12.994  1.00  0.00     0.044 C
ENDBRANCH   1  17
TORSDOF 1
ENDMDL