MODEL 4
REMARK VINA RESULT: -5.577139257      1.407      1.653
REMARK  3 active torsions:
REMARK  status: ('A' for Active; 'I' for Inactive)
REMARK    1  A    between atoms: C3_5  and  N2_6
REMARK       I    between atoms: N2_6  and  C4_8
REMARK    2  A    between atoms: C4_8  and  C5_10
REMARK    3  A    between atoms: C9_15  and  C10_16
ROOT
HETATM    1  C1  UNL     1      -1.465   3.896  11.874  1.00  0.00     0.069 C
HETATM    2  C2  UNL     1      -2.459   4.232  12.979  1.00  0.00     0.021 A
HETATM    3  N1  UNL     1      -3.131   3.317  13.636  1.00  0.00    -0.339 N
ATOM      4  H1  UNL     1      -3.009   2.326  13.427  1.00  0.00     0.168 HD
HETATM    5  C3  UNL     1      -3.981   3.724  14.588  1.00  0.00     0.151 A
HETATM    6  S1  UNL     1      -3.819   5.421  14.546  1.00  0.00    -0.056 SA
HETATM    7  C9  UNL     1      -2.664   5.538  13.303  1.00  0.00     0.016 A
ENDROOT
BRANCH   5   8
HETATM    8  N2  UNL     1      -4.739   2.961  15.350  1.00  0.00    -0.307 N
HETATM    9  C4  UNL     1      -6.127   3.123  15.362  1.00  0.00     0.228 C
HETATM   10  O1  UNL     1      -6.780   3.500  14.362  1.00  0.00    -0.273 OA
ATOM     11  H2  UNL     1      -4.308   2.246  15.937  1.00  0.00     0.171 HD
BRANCH   9  12
HETATM   12  C5  UNL     1      -6.867   2.835  16.614  1.00  0.00     0.082 A
HETATM   13  C6  UNL     1      -7.671   1.584  16.716  1.00  0.00     0.019 A
HETATM   14  C7  UNL     1      -6.409   1.689  17.463  1.00  0.00    -0.005 A
HETATM   15  C8  UNL     1      -6.380   1.929  18.940  1.00  0.00     0.011 C
ENDBRANCH   9  12
ENDBRANCH   5   8
BRANCH   7  16
HETATM   16  C10 UNL     1      -2.087   6.790  12.775  1.00  0.00    -0.016 C
HETATM   17  C11 UNL     1      -2.330   7.878  13.794  1.00  0.00     0.020 C
HETATM   18  C12 UNL     1      -0.581   6.676  12.583  1.00  0.00     0.020 C
HETATM   19  C13 UNL     1      -2.669   7.224  11.477  1.00  0.00     0.020 C
ENDBRANCH   7  16
TORSDOF 3
ENDMDL