MODEL 4
REMARK VINA RESULT: -6.187505088      2.763      5.919
REMARK  3 active torsions:
REMARK  status: ('A' for Active; 'I' for Inactive)
REMARK    1  A    between atoms: C4_4  and  N1_5
REMARK       I    between atoms: N1_5  and  C5_7
REMARK    2  A    between atoms: C5_7  and  C6_9
REMARK    3  A    between atoms: C7_10  and  C8_11
ROOT
HETATM    1  N1  UNL     1      -6.168   3.705  14.122  1.00  0.00    -0.312 N
ATOM      2  H1  UNL     1      -6.794   3.470  13.352  1.00  0.00     0.170 HD
HETATM    3  C5  UNL     1      -5.872   5.063  14.247  1.00  0.00     0.228 C
HETATM    4  O1  UNL     1      -6.350   5.696  15.225  1.00  0.00    -0.273 OA
ENDROOT
BRANCH   3   5
HETATM    5  C6  UNL     1      -5.015   5.716  13.236  1.00  0.00     0.092 A
HETATM    6  C7  UNL     1      -3.966   4.968  12.483  1.00  0.00     0.015 A
HETATM    7  C12 UNL     1      -3.530   5.804  13.583  1.00  0.00    -0.030 A
HETATM    8  C13 UNL     1      -2.998   7.197  13.466  1.00  0.00     0.016 C
HETATM    9  C14 UNL     1      -3.046   5.102  14.852  1.00  0.00     0.016 C
BRANCH   6  10
HETATM   10  C8  UNL     1      -3.788   5.199  11.036  1.00  0.00    -0.046 C
HETATM   11  C9  UNL     1      -2.316   5.453  10.716  1.00  0.00     0.015 C
HETATM   12  C10 UNL     1      -4.592   6.253  10.385  1.00  0.00     0.015 C
HETATM   13  C11 UNL     1      -4.116   3.880  10.316  1.00  0.00     0.015 C
ENDBRANCH   6  10
ENDBRANCH   3   5
BRANCH   1  14
HETATM   14  C4  UNL     1      -5.779   2.715  14.816  1.00  0.00     0.126 A
HETATM   15  C3  UNL     1      -6.290   2.454  16.102  1.00  0.00     0.076 A
HETATM   16  C2  UNL     1      -5.676   1.328  16.584  1.00  0.00     0.025 A
HETATM   17  C1  UNL     1      -5.875   0.645  17.901  1.00  0.00     0.070 C
HETATM   18  N3  UNL     1      -4.829   0.924  15.627  1.00  0.00    -0.302 N
HETATM   19  N2  UNL     1      -4.890   1.756  14.566  1.00  0.00    -0.281 N
ATOM     20  H3  UNL     1      -4.225   0.104  15.692  1.00  0.00     0.186 HD
HETATM   21  C15 UNL     1      -4.108   1.617  13.354  1.00  0.00     0.179 C
ENDBRANCH   1  14
TORSDOF 3
ENDMDL