MODEL 1
REMARK VINA RESULT: -6.481729504      0.000      0.000
REMARK  2 active torsions:
REMARK  status: ('A' for Active; 'I' for Inactive)
REMARK    1  A    between atoms: C8_8  and  C9_9
REMARK       I    between atoms: C9_9  and  N1_11
REMARK    2  A    between atoms: N1_11  and  C10_13
ROOT
HETATM    1  C9  UNL     1      -2.911   3.494  13.591  1.00  0.00     0.257 C
HETATM    2  O1  UNL     1      -2.644   2.678  12.680  1.00  0.00    -0.267 OA
HETATM    3  N1  UNL     1      -1.827   4.298  14.050  1.00  0.00    -0.316 N
ATOM      4  H1  UNL     1      -1.326   4.032  14.897  1.00  0.00     0.169 HD
ENDROOT
BRANCH   1   5
HETATM    5  C8  UNL     1      -4.250   3.610  14.145  1.00  0.00     0.039 A
HETATM    6  C6  UNL     1      -4.735   2.780  15.131  1.00  0.00    -0.040 A
HETATM    7  C4  UNL     1      -6.018   2.918  15.638  1.00  0.00    -0.055 A
HETATM    8  C7  UNL     1      -3.877   1.717  15.667  1.00  0.00     0.050 C
HETATM    9  C3  UNL     1      -6.854   3.898  15.166  1.00  0.00     0.014 A
HETATM   10  C5  UNL     1      -6.519   2.000  16.712  1.00  0.00     0.049 C
HETATM   11  C2  UNL     1      -6.405   4.749  14.179  1.00  0.00    -0.060 A
HETATM   12  C1  UNL     1      -7.282   5.821  13.643  1.00  0.00     0.048 C
HETATM   13  C14 UNL     1      -5.129   4.599  13.685  1.00  0.00     0.024 A
ENDBRANCH   1   5
BRANCH   3  14
HETATM   14  C10 UNL     1      -1.468   5.372  13.398  1.00  0.00     0.095 A
HETATM   15  C11 UNL     1      -1.898   6.654  13.629  1.00  0.00     0.063 A
HETATM   16  C12 UNL     1      -1.388   7.609  12.826  1.00  0.00     0.014 A
HETATM   17  C13 UNL     1      -1.783   9.069  12.980  1.00  0.00     0.068 C
HETATM   18  N2  UNL     1      -0.522   7.241  11.887  1.00  0.00    -0.329 N
HETATM   19  S1  UNL     1      -0.395   5.576  12.091  1.00  0.00     0.004 SA
ATOM     20  H2  UNL     1      -0.047   7.829  11.203  1.00  0.00     0.174 HD
ENDBRANCH   3  14
TORSDOF 2
ENDMDL