MODEL 3
REMARK VINA RESULT: -6.272289892      1.815      2.803
REMARK  2 active torsions:
REMARK  status: ('A' for Active; 'I' for Inactive)
REMARK    1  A    between atoms: C6_6  and  C7_7
REMARK       I    between atoms: C7_7  and  N1_9
REMARK    2  A    between atoms: N1_9  and  C8_11
ROOT
HETATM    1  C7  UNL     1      -3.179   3.225  14.275  1.00  0.00     0.258 C
HETATM    2  O1  UNL     1      -2.215   3.800  14.841  1.00  0.00    -0.267 OA
HETATM    3  N1  UNL     1      -2.965   2.725  12.962  1.00  0.00    -0.303 N
ATOM      4  H1  UNL     1      -3.313   1.815  12.658  1.00  0.00     0.171 HD
ENDROOT
BRANCH   1   5
HETATM    5  C6  UNL     1      -4.458   3.095  14.978  1.00  0.00     0.044 A
HETATM    6  C4  UNL     1      -4.793   1.967  15.697  1.00  0.00    -0.045 A
HETATM    7  C3  UNL     1      -6.005   1.876  16.347  1.00  0.00     0.014 A
HETATM    8  C5  UNL     1      -3.842   0.831  15.781  1.00  0.00     0.049 C
HETATM    9  C2  UNL     1      -6.868   2.939  16.257  1.00  0.00    -0.061 A
HETATM   10  C1  UNL     1      -8.176   2.872  16.941  1.00  0.00     0.048 C
HETATM   11  C14 UNL     1      -6.525   4.057  15.536  1.00  0.00     0.014 A
HETATM   12  C12 UNL     1      -5.317   4.177  14.874  1.00  0.00    -0.045 A
HETATM   13  C13 UNL     1      -4.962   5.396  14.099  1.00  0.00     0.049 C
ENDBRANCH   1   5
BRANCH   3  14
HETATM   14  C8  UNL     1      -2.281   3.526  12.164  1.00  0.00     0.151 A
HETATM   15  N2  UNL     1      -0.964   3.719  12.152  1.00  0.00    -0.340 N
HETATM   16  C9  UNL     1      -0.461   4.562  11.278  1.00  0.00     0.014 A
ATOM     17  H2  UNL     1      -0.358   3.223  12.807  1.00  0.00     0.167 HD
HETATM   18  C10 UNL     1       1.038   4.856  11.180  1.00  0.00     0.068 C
HETATM   19  C11 UNL     1      -1.337   5.189  10.430  1.00  0.00     0.077 A
HETATM   20  S1  UNL     1      -2.835   4.547  10.921  1.00  0.00    -0.064 SA
ENDBRANCH   3  14
TORSDOF 2
ENDMDL