MODEL 3
REMARK VINA RESULT: -6.478353979      1.701      2.332
REMARK  2 active torsions:
REMARK  status: ('A' for Active; 'I' for Inactive)
REMARK    1  A    between atoms: C5_7  and  C6_8
REMARK       I    between atoms: C6_8  and  N2_10
REMARK    2  A    between atoms: N2_10  and  C7_12
ROOT
HETATM    1  C6  UNL     1      -3.919   3.582  13.694  1.00  0.00     0.258 C
HETATM    2  O1  UNL     1      -4.226   3.526  12.491  1.00  0.00    -0.267 OA
HETATM    3  N2  UNL     1      -2.928   4.500  14.103  1.00  0.00    -0.303 N
ATOM      4  H2  UNL     1      -2.953   4.880  15.050  1.00  0.00     0.171 HD
ENDROOT
BRANCH   1   5
HETATM    5  C5  UNL     1      -4.541   2.736  14.699  1.00  0.00     0.041 A
HETATM    6  C4  UNL     1      -3.968   1.519  15.053  1.00  0.00     0.034 A
HETATM    7  C3  UNL     1      -4.543   0.719  15.996  1.00  0.00     0.089 A
HETATM    8  N1  UNL     1      -5.682   1.092  16.606  1.00  0.00    -0.369 N
HETATM    9  C2  UNL     1      -6.279   2.247  16.310  1.00  0.00     0.012 A
ATOM     10  H1  UNL     1      -6.097   0.481  17.309  1.00  0.00     0.165 HD
HETATM   11  C1  UNL     1      -7.521   2.656  16.972  1.00  0.00     0.068 C
HETATM   12  C12 UNL     1      -5.702   3.070  15.351  1.00  0.00    -0.024 A
HETATM   13  C13 UNL     1      -6.379   4.337  15.042  1.00  0.00     0.051 C
ENDBRANCH   1   5
BRANCH   3  14
HETATM   14  C7  UNL     1      -1.972   4.872  13.282  1.00  0.00     0.152 A
HETATM   15  N3  UNL     1      -1.139   4.108  12.586  1.00  0.00    -0.339 N
HETATM   16  C8  UNL     1      -0.255   4.689  11.819  1.00  0.00     0.020 A
ATOM     17  H3  UNL     1      -1.188   3.092  12.648  1.00  0.00     0.168 HD
HETATM   18  C9  UNL     1       0.751   3.908  10.977  1.00  0.00     0.069 C
HETATM   19  C10 UNL     1      -0.241   6.058  11.780  1.00  0.00     0.004 A
HETATM   20  C11 UNL     1       0.664   6.962  10.989  1.00  0.00     0.058 C
HETATM   21  S1  UNL     1      -1.508   6.453  12.852  1.00  0.00    -0.057 SA
ENDBRANCH   3  14
TORSDOF 2
ENDMDL