MODEL 1
REMARK VINA RESULT: -6.269318943      0.000      0.000
REMARK  1 active torsions:
REMARK  status: ('A' for Active; 'I' for Inactive)
REMARK    1  A    between atoms: C7_7  and  C8_8
ROOT
HETATM    1  C8  UNL     1      -4.257   4.809  13.526  1.00  0.00     0.152 C
HETATM    2  C9  UNL     1      -3.461   4.083  12.514  1.00  0.00     0.268 C
HETATM    3  N1  UNL     1      -3.733   4.362  11.150  1.00  0.00    -0.070 N
HETATM    4  C10 UNL     1      -4.344   3.182  10.510  1.00  0.00     0.272 C
HETATM    5  C11 UNL     1      -2.465   4.537  10.420  1.00  0.00     0.272 C
HETATM    6  C12 UNL     1      -4.548   5.475  10.852  1.00  0.00     0.273 C
HETATM    7  C13 UNL     1      -4.968   6.307  12.033  1.00  0.00     0.078 C
HETATM    8  C14 UNL     1      -3.849   7.198  12.438  1.00  0.00     0.047 C
HETATM    9  C15 UNL     1      -6.118   7.201  11.551  1.00  0.00     0.047 C
HETATM   10  O1  UNL     1      -5.393   5.433  13.023  1.00  0.00    -0.372 OA
ENDROOT
BRANCH   1  11
HETATM   11  C7  UNL     1      -4.611   3.892  14.665  1.00  0.00     0.017 C
HETATM   12  C6  UNL     1      -4.410   2.427  14.375  1.00  0.00     0.011 C
HETATM   13  C4  UNL     1      -4.413   1.757  15.757  1.00  0.00    -0.018 C
HETATM   14  C3  UNL     1      -5.623   2.072  16.548  1.00  0.00     0.008 C
HETATM   15  C5  UNL     1      -4.201   0.250  15.586  1.00  0.00     0.010 C
HETATM   16  C2  UNL     1      -6.607   2.989  15.901  1.00  0.00    -0.018 C
HETATM   17  C1  UNL     1      -7.457   3.588  17.007  1.00  0.00     0.010 C
HETATM   18  C16 UNL     1      -6.058   4.067  15.068  1.00  0.00     0.011 C
ENDBRANCH   1  11
TORSDOF 1
ENDMDL