MODEL 3
REMARK VINA RESULT: -6.949763195      2.024      3.688
REMARK  1 active torsions:
REMARK  status: ('A' for Active; 'I' for Inactive)
REMARK    1  A    between atoms: C2_2  and  C3_3
ROOT
HETATM    1  C3  UNL     1      -2.867   4.229  12.185  1.00  0.00    -0.003 C
HETATM    2  C4  UNL     1      -2.721   2.760  12.426  1.00  0.00     0.088 C
HETATM    3  C5  UNL     1      -3.853   2.271  13.240  1.00  0.00     0.161 C
HETATM    4  O1  UNL     1      -3.987   1.057  13.525  1.00  0.00    -0.292 OA
HETATM    5  C6  UNL     1      -4.846   3.212  13.729  1.00  0.00     0.030 A
HETATM    6  C7  UNL     1      -5.572   2.989  14.918  1.00  0.00    -0.021 A
HETATM    7  C8  UNL     1      -6.517   3.888  15.328  1.00  0.00     0.019 A
HETATM    8  N1  UNL     1      -6.758   5.009  14.579  1.00  0.00    -0.326 N
ATOM      9  H1  UNL     1      -7.463   5.681  14.883  1.00  0.00     0.169 HD
HETATM   10  C9  UNL     1      -6.074   5.227  13.451  1.00  0.00     0.253 A
HETATM   11  O2  UNL     1      -6.308   6.272  12.768  1.00  0.00    -0.268 OA
HETATM   12  C10 UNL     1      -5.123   4.361  13.003  1.00  0.00     0.025 A
HETATM   13  C11 UNL     1      -4.301   4.554  11.760  1.00  0.00     0.050 C
HETATM   14  C12 UNL     1      -7.298   3.691  16.559  1.00  0.00     0.058 C
HETATM   15  C13 UNL     1      -7.161   2.346  17.132  1.00  0.00     0.010 C
HETATM   16  C14 UNL     1      -5.752   1.814  17.078  1.00  0.00    -0.014 C
HETATM   17  C15 UNL     1      -5.772   0.442  17.720  1.00  0.00     0.010 C
HETATM   18  C16 UNL     1      -5.232   1.755  15.665  1.00  0.00     0.045 C
ENDROOT
BRANCH   1  19
HETATM   19  C2  UNL     1      -1.888   4.680  11.123  1.00  0.00     0.001 C
HETATM   20  C1  UNL     1      -0.476   4.292  11.448  1.00  0.00     0.005 C
ENDBRANCH   1  19
TORSDOF 1
ENDMDL