MODEL 2
REMARK VINA RESULT: -6.463473933      2.339      6.078
REMARK  2 active torsions:
REMARK  status: ('A' for Active; 'I' for Inactive)
REMARK       I    between atoms: N2_6  and  C4_8
REMARK    1  A    between atoms: C4_8  and  C5_10
REMARK    2  A    between atoms: C11_17  and  C12_18
ROOT
HETATM    1  C5  UNL     1      -2.531   4.761  11.673  1.00  0.00     0.226 C
HETATM    2  C6  UNL     1      -1.428   3.848  11.814  1.00  0.00     0.068 C
HETATM    3  N3  UNL     1      -0.538   3.134  11.926  1.00  0.00    -0.197 NA
ENDROOT
BRANCH   1   4
HETATM    4  C4  UNL     1      -3.857   4.060  11.806  1.00  0.00     0.236 C
HETATM    5  N2  UNL     1      -4.792   4.485  12.760  1.00  0.00    -0.312 N
HETATM    6  C3  UNL     1      -5.163   3.798  13.790  1.00  0.00     0.114 A
ATOM      7  H2  UNL     1      -5.211   5.406  12.633  1.00  0.00     0.170 HD
HETATM    8  N1  UNL     1      -4.655   2.591  14.017  1.00  0.00    -0.345 N
HETATM    9  C7  UNL     1      -6.091   4.342  14.645  1.00  0.00    -0.011 A
HETATM   10  C2  UNL     1      -5.013   1.822  15.093  1.00  0.00     0.014 A
ATOM     11  H1  UNL     1      -3.967   2.220  13.361  1.00  0.00     0.167 HD
HETATM   12  C1  UNL     1      -4.415   0.499  15.236  1.00  0.00     0.068 C
HETATM   13  C11 UNL     1      -5.961   2.363  15.975  1.00  0.00    -0.022 A
HETATM   14  C9  UNL     1      -6.511   3.626  15.766  1.00  0.00    -0.043 A
HETATM   15  C10 UNL     1      -7.452   4.304  16.619  1.00  0.00     0.049 C
HETATM   16  C8  UNL     1      -6.627   5.713  14.321  1.00  0.00     0.052 C
HETATM   17  O1  UNL     1      -4.153   3.077  11.062  1.00  0.00    -0.272 OA
BRANCH  13  18
HETATM   18  C12 UNL     1      -6.330   1.581  17.135  1.00  0.00    -0.022 C
HETATM   19  C13 UNL     1      -7.824   1.223  17.025  1.00  0.00     0.019 C
HETATM   20  C14 UNL     1      -6.286   2.447  18.434  1.00  0.00     0.019 C
HETATM   21  C15 UNL     1      -5.548   0.372  17.539  1.00  0.00     0.019 C
ENDBRANCH  13  18
ENDBRANCH   1   4
TORSDOF 2
ENDMDL