MODEL 3
REMARK VINA RESULT: -7.621576745      2.589      8.921
REMARK  6 active torsions:
REMARK  status: ('A' for Active; 'I' for Inactive)
REMARK    1  A    between atoms: N1_2  and  O1_3
REMARK    2  A    between atoms: N1_2  and  C2_5
REMARK    3  A    between atoms: C5_9  and  O2_11
REMARK    4  A    between atoms: O2_11  and  C7_12
REMARK    5  A    between atoms: C10_15  and  N2_16
REMARK    6  A    between atoms: C20_30  and  C21_31
ROOT
HETATM    1  O2  UNL     1      27.134  50.531  -1.578  1.00  0.00    -0.325 OA
ENDROOT
BRANCH   1   2
HETATM    2  C5  UNL     1      26.398  50.340  -0.416  1.00  0.00     0.069 C
HETATM    3  C4  UNL     1      25.863  48.918  -0.422  1.00  0.00     0.078 C
HETATM    4  C3  UNL     1      25.042  48.639   0.814  1.00  0.00    -0.005 C
HETATM    5  C2  UNL     1      25.366  47.607   1.541  1.00  0.00     0.212 C
HETATM    6  C20 UNL     1      23.945  49.582   1.060  1.00  0.00     0.120 C
HETATM    7  F1  UNL     1      26.435  46.858   1.113  1.00  0.00    -0.184 F
HETATM    8  C19 UNL     1      24.391  51.040   0.879  1.00  0.00     0.023 C
HETATM    9  C18 UNL     1      25.189  51.242  -0.382  1.00  0.00     0.039 C
HETATM   10  C6  UNL     1      27.227  50.575   0.828  1.00  0.00     0.047 C
BRANCH   5  11
HETATM   11  N1  UNL     1      24.719  47.200   2.714  1.00  0.00    -0.239 N
HETATM   12  C1  UNL     1      25.500  47.200   3.967  1.00  0.00     0.188 C
BRANCH  11  13
HETATM   13  O1  UNL     1      23.460  46.800   2.836  1.00  0.00    -0.286 OA
ATOM     14  H1  UNL     1      22.988  46.700   2.018  1.00  0.00     0.244 HD
ENDBRANCH  11  13
ENDBRANCH   5  11
BRANCH   6  15
HETATM   15  C21 UNL     1      22.773  49.366   0.180  1.00  0.00     0.181 C
HETATM   16  O5  UNL     1      22.089  48.328   0.315  1.00  0.00    -0.647 OA
HETATM   17  O6  UNL     1      22.363  50.245  -0.810  1.00  0.00    -0.647 OA
ENDBRANCH   6  15
ENDBRANCH   1   2
BRANCH   1  18
HETATM   18  C7  UNL     1      26.603  50.624  -2.873  1.00  0.00     0.142 A
HETATM   19  C8  UNL     1      27.324  50.200  -3.963  1.00  0.00     0.058 A
HETATM   20  C9  UNL     1      26.825  50.280  -5.246  1.00  0.00     0.035 A
HETATM   21  C10 UNL     1      25.565  50.804  -5.429  1.00  0.00     0.055 A
HETATM   22  C17 UNL     1      24.895  51.211  -4.302  1.00  0.00     0.119 A
HETATM   23  N3  UNL     1      25.380  51.132  -3.062  1.00  0.00    -0.345 N
ATOM     24  H3  UNL     1      24.825  51.454  -2.270  1.00  0.00     0.167 HD
BRANCH  21  25
HETATM   25  N2  UNL     1      24.966  50.929  -6.706  1.00  0.00    -0.289 N
HETATM   26  C11 UNL     1      24.660  52.162  -7.388  1.00  0.00     0.173 C
HETATM   27  C12 UNL     1      23.831  51.768  -8.537  1.00  0.00     0.089 C
HETATM   28  C13 UNL     1      24.376  52.112  -9.912  1.00  0.00     0.040 C
HETATM   29  C15 UNL     1      22.654  52.656  -8.874  1.00  0.00     0.040 C
HETATM   30  O3  UNL     1      23.567  50.417  -8.415  1.00  0.00    -0.291 OA
HETATM   31  C14 UNL     1      22.928  52.312 -10.342  1.00  0.00     0.006 C
HETATM   32  C16 UNL     1      24.542  49.876  -7.578  1.00  0.00     0.368 C
HETATM   33  O4  UNL     1      24.987  48.700  -7.560  1.00  0.00    -0.238 OA
ENDBRANCH  21  25
ENDBRANCH   1  18
TORSDOF 6
ENDMDL