MODEL 2
REMARK VINA RESULT: -7.778340415      4.946      9.358
REMARK  5 active torsions:
REMARK  status: ('A' for Active; 'I' for Inactive)
REMARK    1  A    between atoms: C5_6  and  S1_7
REMARK    2  A    between atoms: S1_7  and  C6_8
REMARK    3  A    between atoms: C8_12  and  C9_13
REMARK    4  A    between atoms: C11_18  and  C12_19
REMARK       I    between atoms: C12_19  and  N4_21
REMARK    5  A    between atoms: C15_24  and  C16_26
ROOT
HETATM    1  N1  UNL     1      25.145  49.202   0.129  1.00  0.00    -0.191 NA
HETATM    2  C1  UNL     1      26.148  49.765   0.245  1.00  0.00     0.100 C
HETATM    3  C2  UNL     1      27.403  50.469   0.410  1.00  0.00     0.060 A
HETATM    4  C3  UNL     1      27.915  50.641   1.682  1.00  0.00     0.025 A
HETATM    5  C4  UNL     1      29.116  51.312   1.865  1.00  0.00     0.020 A
HETATM    6  C5  UNL     1      29.806  51.811   0.788  1.00  0.00     0.007 A
HETATM    7  C10 UNL     1      29.280  51.630  -0.471  1.00  0.00     0.037 A
HETATM    8  C11 UNL     1      28.086  50.965  -0.674  1.00  0.00     0.054 A
ENDROOT
BRANCH   8   9
HETATM    9  C12 UNL     1      27.532  50.774  -2.002  1.00  0.00     0.255 C
HETATM   10  O2  UNL     1      27.951  49.766  -2.647  1.00  0.00    -0.267 OA
HETATM   11  N4  UNL     1      26.578  51.645  -2.579  1.00  0.00    -0.348 N
HETATM   12  C13 UNL     1      26.058  52.812  -1.901  1.00  0.00     0.129 C
HETATM   13  C20 UNL     1      26.093  51.360  -3.911  1.00  0.00     0.129 C
HETATM   14  C14 UNL     1      25.054  53.504  -2.815  1.00  0.00     0.064 C
HETATM   15  C15 UNL     1      24.028  52.546  -3.346  1.00  0.00     0.110 C
HETATM   16  F1  UNL     1      23.106  52.317  -2.333  1.00  0.00    -0.242 F
HETATM   17  C19 UNL     1      24.587  51.236  -3.811  1.00  0.00     0.064 C
BRANCH  15  18
HETATM   18  C16 UNL     1      23.303  53.189  -4.515  1.00  0.00     0.025 A
HETATM   19  C17 UNL     1      21.824  53.150  -4.505  1.00  0.00     0.008 A
HETATM   20  C18 UNL     1      22.591  52.265  -5.444  1.00  0.00     0.008 A
ENDBRANCH  15  18
ENDBRANCH   8   9
BRANCH   6  21
HETATM   21  S1  UNL     1      31.330  52.661   1.034  1.00  0.00    -0.082 SA
BRANCH  21  22
HETATM   22  C6  UNL     1      31.571  53.129   2.751  1.00  0.00     0.063 A
HETATM   23  C7  UNL     1      32.533  52.700   3.626  1.00  0.00     0.115 A
HETATM   24  N2  UNL     1      32.518  53.173   4.829  1.00  0.00    -0.354 N
HETATM   25  C8  UNL     1      31.589  54.046   5.180  1.00  0.00     0.141 A
ATOM     26  H2  UNL     1      33.220  52.873   5.505  1.00  0.00     0.166 HD
HETATM   27  S2  UNL     1      30.682  54.217   3.747  1.00  0.00    -0.059 SA
BRANCH  25  28
HETATM   28  C9  UNL     1      31.445  54.666   6.497  1.00  0.00     0.288 C
HETATM   29  N3  UNL     1      30.535  54.168   7.464  1.00  0.00    -0.055 NA
HETATM   30  O1  UNL     1      32.137  55.666   6.798  1.00  0.00    -0.269 OA
ENDBRANCH  25  28
ENDBRANCH  21  22
ENDBRANCH   6  21
TORSDOF 5
ENDMDL