MODEL 1
REMARK VINA RESULT: -7.426485166      0.000      0.000
REMARK  6 active torsions:
REMARK  status: ('A' for Active; 'I' for Inactive)
REMARK    1  A    between atoms: C2_2  and  C3_3
REMARK    2  A    between atoms: C3_3  and  S1_4
REMARK    3  A    between atoms: S1_4  and  C4_7
REMARK    4  A    between atoms: C8_12  and  C9_13
REMARK    5  A    between atoms: C9_13  and  C11_16
REMARK    6  A    between atoms: C17_25  and  O3_26
ROOT
HETATM    1  C9  UNL     1      26.685  51.484  -2.571  1.00  0.00     0.053 C
HETATM    2  C10 UNL     1      26.982  50.397  -3.595  1.00  0.00     0.100 C
HETATM    3  N1  UNL     1      27.217  49.565  -4.395  1.00  0.00    -0.191 NA
ENDROOT
BRANCH   1   4
HETATM    4  C8  UNL     1      26.776  51.069  -1.172  1.00  0.00     0.020 A
HETATM    5  C7  UNL     1      27.957  51.271  -0.472  1.00  0.00     0.024 A
HETATM    6  C6  UNL     1      29.052  51.879  -1.001  1.00  0.00     0.026 A
HETATM    7  C16 UNL     1      28.027  50.867   0.888  1.00  0.00     0.079 A
HETATM    8  C5  UNL     1      30.224  52.121  -0.257  1.00  0.00     0.046 A
HETATM    9 BR1  UNL     1      29.082  52.411  -2.827  1.00  0.00    -0.050 Br
HETATM   10  C4  UNL     1      30.298  51.742   1.043  1.00  0.00     0.096 A
HETATM   11  C17 UNL     1      29.180  51.110   1.607  1.00  0.00     0.115 A
HETATM   12  N3  UNL     1      27.004  50.291   1.532  1.00  0.00    -0.361 N
HETATM   13  C15 UNL     1      25.865  50.068   0.930  1.00  0.00     0.112 A
ATOM     14  H3  UNL     1      27.115  50.020   2.510  1.00  0.00     0.165 HD
HETATM   15  C13 UNL     1      25.778  50.452  -0.390  1.00  0.00     0.072 A
HETATM   16  C14 UNL     1      24.594  49.979  -1.127  1.00  0.00     0.102 C
HETATM   17  N2  UNL     1      23.664  49.563  -1.704  1.00  0.00    -0.191 NA
BRANCH  10  18
HETATM   18  S1  UNL     1      31.649  52.098   2.063  1.00  0.00     0.178 S
HETATM   19  O1  UNL     1      32.740  52.647   1.137  1.00  0.00    -0.223 OA
HETATM   20  O2  UNL     1      32.209  50.763   2.509  1.00  0.00    -0.223 OA
BRANCH  18  21
HETATM   21  C3  UNL     1      31.439  53.234   3.329  1.00  0.00     0.145 C
BRANCH  21  22
HETATM   22  C2  UNL     1      30.325  54.189   3.344  1.00  0.00     0.011 C
HETATM   23  C1  UNL     1      30.607  55.610   2.960  1.00  0.00     0.006 C
ENDBRANCH  21  22
ENDBRANCH  18  21
ENDBRANCH  10  18
BRANCH  11  24
HETATM   24  O3  UNL     1      29.279  50.743   2.937  1.00  0.00    -0.357 OA
ATOM     25  H3  UNL     1      28.478  50.765   3.445  1.00  0.00     0.217 HD
ENDBRANCH  11  24
ENDBRANCH   1   4
BRANCH   1  26
HETATM   26  C11 UNL     1      25.891  52.629  -3.090  1.00  0.00    -0.007 C
HETATM   27  C12 UNL     1      25.581  53.893  -2.368  1.00  0.00     0.037 C
ENDBRANCH   1  26
TORSDOF 6
ENDMDL