MODEL 5
REMARK VINA RESULT: -6.854279343      2.287      4.646
REMARK  8 active torsions:
REMARK  status: ('A' for Active; 'I' for Inactive)
REMARK    1  A    between atoms: C3_3  and  C4_4
REMARK    2  A    between atoms: C4_4  and  C5_5
REMARK    3  A    between atoms: C5_5  and  O2_7
REMARK    4  A    between atoms: O2_7  and  C6_8
REMARK    5  A    between atoms: C8_10  and  O3_11
REMARK    6  A    between atoms: O3_11  and  C9_12
REMARK    7  A    between atoms: C16_20  and  C17_22
REMARK    8  A    between atoms: C17_22  and  O5_23
ROOT
HETATM    1  C6  UNL     1      25.309  50.639  -1.035  1.00  0.00     0.207 A
HETATM    2  C7  UNL     1      26.622  51.303  -0.970  1.00  0.00     0.109 C
HETATM    3  C8  UNL     1      27.637  50.889  -2.032  1.00  0.00     0.165 C
HETATM    4  C11 UNL     1      28.615  51.981  -2.289  1.00  0.00    -0.058 C
HETATM    5  C12 UNL     1      29.733  52.043  -1.243  1.00  0.00     0.046 C
HETATM    6  C13 UNL     1      28.649  52.865  -3.233  1.00  0.00    -0.022 C
HETATM    7  C14 UNL     1      27.717  53.083  -4.380  1.00  0.00     0.030 C
HETATM    8  C15 UNL     1      26.828  54.243  -4.180  1.00  0.00     0.050 C
HETATM    9  C16 UNL     1      25.445  54.230  -4.721  1.00  0.00     0.128 C
HETATM   10  F1  UNL     1      24.725  55.124  -3.892  1.00  0.00    -0.240 F
HETATM   11  C18 UNL     1      24.686  52.978  -4.701  1.00  0.00     0.023 C
HETATM   12  C19 UNL     1      23.867  52.655  -5.932  1.00  0.00     0.013 C
HETATM   13  C20 UNL     1      23.647  52.911  -3.558  1.00  0.00     0.011 C
HETATM   14  C21 UNL     1      24.316  52.642  -2.229  1.00  0.00     0.044 C
HETATM   15  C22 UNL     1      24.186  51.267  -1.711  1.00  0.00     0.118 A
HETATM   16  C23 UNL     1      22.757  50.968  -1.222  1.00  0.00     0.052 C
HETATM   17  O6  UNL     1      24.799  50.167  -2.243  1.00  0.00    -0.335 OA
ENDROOT
BRANCH   1  18
HETATM   18  O2  UNL     1      24.902  49.912   0.141  1.00  0.00    -0.280 OA
BRANCH  18  19
HETATM   19  C5  UNL     1      25.732  49.248   0.983  1.00  0.00     0.265 C
HETATM   20  O1  UNL     1      26.498  49.915   1.717  1.00  0.00    -0.265 OA
BRANCH  19  21
HETATM   21  C4  UNL     1      25.705  47.756   1.005  1.00  0.00     0.138 C
BRANCH  21  22
HETATM   22  C3  UNL     1      24.340  47.247   1.289  1.00  0.00    -0.021 C
HETATM   23  C2  UNL     1      23.932  46.927   2.510  1.00  0.00    -0.034 C
HETATM   24  C1  UNL     1      22.575  46.417   2.819  1.00  0.00     0.036 C
ENDBRANCH  21  22
ENDBRANCH  19  21
ENDBRANCH  18  19
ENDBRANCH   1  18
BRANCH   3  25
HETATM   25  O3  UNL     1      27.083  50.301  -3.162  1.00  0.00    -0.312 OA
BRANCH  25  26
HETATM   26  C9  UNL     1      27.773  49.577  -4.124  1.00  0.00     0.255 C
HETATM   27  C10 UNL     1      29.063  48.891  -3.869  1.00  0.00     0.126 C
HETATM   28  O4  UNL     1      27.245  49.519  -5.267  1.00  0.00    -0.266 OA
ENDBRANCH  25  26
ENDBRANCH   3  25
BRANCH   9  29
HETATM   29  C17 UNL     1      25.471  54.938  -6.058  1.00  0.00     0.208 C
BRANCH  29  30
HETATM   30  O5  UNL     1      25.745  56.275  -6.016  1.00  0.00    -0.398 OA
ATOM     31  H5  UNL     1      25.621  56.695  -5.173  1.00  0.00     0.209 HD
ENDBRANCH  29  30
ENDBRANCH   9  29
TORSDOF 8
ENDMDL