MODEL 1
REMARK VINA RESULT: -6.311274096      0.000      0.000
REMARK  5 active torsions:
REMARK  status: ('A' for Active; 'I' for Inactive)
REMARK    1  A    between atoms: C2_2  and  C4_4
REMARK    2  A    between atoms: C4_4  and  C5_5
REMARK    3  A    between atoms: C5_5  and  C7_10
REMARK    4  A    between atoms: C10_16  and  S2_17
REMARK    5  A    between atoms: S2_17  and  N4_20
ROOT
HETATM    1  C5  UNL     1      26.865  51.188  -5.841  1.00  0.00     0.033 C
HETATM    2  N1  UNL     1      25.887  51.114  -6.673  1.00  0.00    -0.297 N
ATOM      3  H1  UNL     1      25.453  51.976  -7.003  1.00  0.00     0.178 HD
HETATM    4  C6  UNL     1      25.407  49.909  -7.131  1.00  0.00     0.182 C
HETATM    5  N2  UNL     1      24.970  48.887  -7.521  1.00  0.00    -0.172 NA
ENDROOT
BRANCH   1   6
HETATM    6  C4  UNL     1      27.424  49.880  -5.430  1.00  0.00     0.062 C
BRANCH   6   7
HETATM    7  C2  UNL     1      28.679  49.945  -4.637  1.00  0.00    -0.017 C
HETATM    8  C1  UNL     1      28.717  49.493  -3.239  1.00  0.00     0.010 C
HETATM    9  C3  UNL     1      29.755  49.118  -5.388  1.00  0.00     0.010 C
ENDBRANCH   6   7
ENDBRANCH   1   6
BRANCH   1  10
HETATM   10  C7  UNL     1      27.499  52.495  -5.481  1.00  0.00     0.043 A
HETATM   11  C8  UNL     1      28.577  52.991  -6.146  1.00  0.00     0.102 A
HETATM   12  N3  UNL     1      29.471  52.409  -7.132  1.00  0.00    -0.093 NA
HETATM   13  S1  UNL     1      28.829  54.553  -5.489  1.00  0.00    -0.061 SA
HETATM   14  C9  UNL     1      27.559  54.548  -4.370  1.00  0.00     0.100 A
HETATM   15 CL1  UNL     1      27.144  55.875  -3.238  1.00  0.00    -0.074 Cl
HETATM   16  C10 UNL     1      26.951  53.333  -4.519  1.00  0.00     0.117 A
BRANCH  16  17
HETATM   17  S2  UNL     1      25.570  52.940  -3.455  1.00  0.00     0.246 S
HETATM   18  O1  UNL     1      24.303  52.745  -4.231  1.00  0.00    -0.206 OA
HETATM   19  O2  UNL     1      25.399  53.951  -2.370  1.00  0.00    -0.206 OA
BRANCH  17  20
HETATM   20  N4  UNL     1      25.832  51.427  -2.669  1.00  0.00    -0.206 NA
HETATM   21  C11 UNL     1      26.231  51.570  -1.303  1.00  0.00     0.112 C
HETATM   22  C12 UNL     1      26.161  50.238  -0.602  1.00  0.00    -0.004 C
HETATM   23  C13 UNL     1      26.801  50.280   0.756  1.00  0.00     0.011 C
HETATM   24  C14 UNL     1      24.704  49.899  -0.435  1.00  0.00     0.011 C
HETATM   25  C15 UNL     1      23.942  50.189  -1.682  1.00  0.00    -0.004 C
HETATM   26  C16 UNL     1      22.875  51.241  -1.452  1.00  0.00     0.011 C
HETATM   27  C17 UNL     1      24.791  50.470  -2.889  1.00  0.00     0.112 C
ENDBRANCH  17  20
ENDBRANCH  16  17
ENDBRANCH   1  10
TORSDOF 5
ENDMDL