MODEL 1
REMARK VINA RESULT: -7.517328833      0.000      0.000
REMARK  6 active torsions:
REMARK  status: ('A' for Active; 'I' for Inactive)
REMARK    1  A    between atoms: C3_5  and  N2_6
REMARK    2  A    between atoms: C13_18  and  C14_19
REMARK    3  A    between atoms: C14_19  and  O1_20
REMARK    4  A    between atoms: C14_19  and  C15_22
REMARK       I    between atoms: C15_22  and  N4_24
REMARK    5  A    between atoms: N4_24  and  C16_26
REMARK    6  A    between atoms: N5_30  and  C20_31
ROOT
HETATM    1  C1  UNL     1      27.801  50.835  -4.851  1.00  0.00     0.070 C
HETATM    2  C2  UNL     1      26.486  51.074  -4.223  1.00  0.00     0.037 A
HETATM    3  N1  UNL     1      25.457  51.581  -4.965  1.00  0.00    -0.195 N
ATOM      4  H1  UNL     1      25.611  51.774  -5.955  1.00  0.00     0.184 HD
HETATM    5  C3  UNL     1      24.254  51.834  -4.435  1.00  0.00     0.682 A
HETATM    6  N3  UNL     1      24.006  51.596  -3.134  1.00  0.00    -0.175 N
ATOM      7  H3  UNL     1      23.085  51.794  -2.741  1.00  0.00     0.186 HD
HETATM    8  C9  UNL     1      24.982  51.097  -2.356  1.00  0.00     0.137 A
HETATM    9  C10 UNL     1      26.228  50.829  -2.884  1.00  0.00     0.040 A
HETATM   10  C11 UNL     1      27.003  50.318  -1.898  1.00  0.00    -0.016 A
HETATM   11  C12 UNL     1      28.383  49.847  -1.978  1.00  0.00     0.052 C
HETATM   12  C13 UNL     1      26.212  50.270  -0.708  1.00  0.00     0.082 A
HETATM   13  N5  UNL     1      25.017  50.744  -1.012  1.00  0.00    -0.323 N
ENDROOT
BRANCH  12  14
HETATM   14  C14 UNL     1      26.755  49.855   0.561  1.00  0.00     0.162 C
BRANCH  14  15
HETATM   15  O1  UNL     1      26.513  48.617   0.954  1.00  0.00    -0.354 OA
ATOM     16  H1  UNL     1      26.825  48.360   1.814  1.00  0.00     0.218 HD
ENDBRANCH  14  15
BRANCH  14  17
HETATM   17  C15 UNL     1      27.533  50.563   1.534  1.00  0.00     0.277 C
HETATM   18  O2  UNL     1      27.008  51.029   2.569  1.00  0.00    -0.265 OA
HETATM   19  N4  UNL     1      28.947  50.758   1.347  1.00  0.00    -0.351 N
ATOM     20  H4  UNL     1      29.384  50.381   0.506  1.00  0.00     0.163 HD
BRANCH  19  21
HETATM   21  C16 UNL     1      29.765  51.455   2.283  1.00  0.00     0.084 C
HETATM   22  C17 UNL     1      31.230  51.343   1.909  1.00  0.00     0.025 C
HETATM   23  C18 UNL     1      31.028  52.593   1.054  1.00  0.00     0.004 C
HETATM   24  C19 UNL     1      29.909  52.958   2.009  1.00  0.00     0.025 C
ENDBRANCH  19  21
ENDBRANCH  14  17
ENDBRANCH  12  14
BRANCH  13  25
HETATM   25  C20 UNL     1      23.874  51.029  -0.206  1.00  0.00     0.112 A
HETATM   26  C21 UNL     1      22.469  50.694  -0.558  1.00  0.00     0.049 A
HETATM   27  C22 UNL     1      23.167  49.890   0.506  1.00  0.00     0.107 A
HETATM   28 CL1  UNL     1      23.367  48.197  -0.002  1.00  0.00    -0.123 Cl
ENDBRANCH  13  25
BRANCH   5  29
HETATM   29  N2  UNL     1      23.235  52.357  -5.262  1.00  0.00    -0.218 N
HETATM   30  C4  UNL     1      22.784  53.733  -5.123  1.00  0.00     0.141 C
HETATM   31  C5  UNL     1      21.384  53.689  -4.551  1.00  0.00     0.020 C
HETATM   32  C6  UNL     1      20.553  52.696  -5.324  1.00  0.00     0.003 C
HETATM   33  C7  UNL     1      21.258  52.240  -6.595  1.00  0.00     0.020 C
HETATM   34  C8  UNL     1      22.576  51.569  -6.294  1.00  0.00     0.141 C
ENDBRANCH   5  29
TORSDOF 6
ENDMDL