MODEL 5
REMARK VINA RESULT: -7.934416329      3.598      8.509
REMARK  7 active torsions:
REMARK  status: ('A' for Active; 'I' for Inactive)
REMARK    1  A    between atoms: C2_2  and  C3_3
REMARK    2  A    between atoms: C2_2  and  O2_6
REMARK    3  A    between atoms: C3_3  and  O1_4
REMARK    4  A    between atoms: O2_6  and  C4_7
REMARK    5  A    between atoms: C4_7  and  C5_8
REMARK    6  A    between atoms: C6_9  and  C7_10
REMARK    7  A    between atoms: C17_26  and  C18_27
ROOT
HETATM    1  C5  UNL     1      28.162  50.917   0.784  1.00  0.00     0.008 A
HETATM    2  C6  UNL     1      26.964  50.562   1.482  1.00  0.00     0.024 A
HETATM    3  C10 UNL     1      26.948  50.723   2.846  1.00  0.00     0.102 A
HETATM    4  N2  UNL     1      27.983  51.186   3.502  1.00  0.00    -0.368 N
ATOM      5  H2  UNL     1      27.933  51.292   4.516  1.00  0.00     0.165 HD
HETATM    6  C11 UNL     1      29.134  51.530   2.840  1.00  0.00     0.017 A
HETATM    7  C12 UNL     1      29.251  51.407   1.470  1.00  0.00    -0.022 A
HETATM    8  C13 UNL     1      30.348  51.751   0.600  1.00  0.00     0.046 C
HETATM    9  C14 UNL     1      31.479  52.561   1.139  1.00  0.00    -0.009 C
HETATM   10  C15 UNL     1      31.047  54.008   1.257  1.00  0.00     0.006 C
HETATM   11  C16 UNL     1      30.372  54.029   2.601  1.00  0.00     0.018 C
HETATM   12  C17 UNL     1      31.102  52.988   3.399  1.00  0.00     0.030 C
HETATM   13  C22 UNL     1      30.088  51.973   3.839  1.00  0.00     0.075 C
HETATM   14  C23 UNL     1      32.020  52.232   2.458  1.00  0.00     0.023 C
ENDROOT
BRANCH   1  15
HETATM   15  C4  UNL     1      28.083  50.684  -0.644  1.00  0.00     0.148 C
BRANCH  15  16
HETATM   16  O2  UNL     1      27.462  51.542  -1.491  1.00  0.00    -0.355 OA
BRANCH  16  17
HETATM   17  C2  UNL     1      27.001  50.860  -2.619  1.00  0.00     0.147 C
HETATM   18  C1  UNL     1      28.154  50.489  -3.539  1.00  0.00     0.042 C
BRANCH  17  19
HETATM   19  C3  UNL     1      26.022  51.707  -3.366  1.00  0.00     0.196 C
BRANCH  19  20
HETATM   20  O1  UNL     1      25.338  52.490  -2.416  1.00  0.00    -0.398 OA
ATOM     21  H1  UNL     1      25.022  53.265  -2.866  1.00  0.00     0.209 HD
ENDBRANCH  19  20
ENDBRANCH  17  19
ENDBRANCH  16  17
ENDBRANCH  15  16
ENDBRANCH   1  15
BRANCH   2  22
HETATM   22  C7  UNL     1      25.813  50.047   0.767  1.00  0.00     0.110 A
HETATM   23  N1  UNL     1      24.858  50.733   0.149  1.00  0.00    -0.342 N
HETATM   24  C8  UNL     1      23.960  49.879  -0.401  1.00  0.00     0.237 A
ATOM     25  H1  UNL     1      24.807  51.750   0.096  1.00  0.00     0.167 HD
HETATM   26  O3  UNL     1      24.374  48.651  -0.112  1.00  0.00    -0.278 OA
HETATM   27  C9  UNL     1      25.484  48.726   0.588  1.00  0.00     0.259 A
HETATM   28  F1  UNL     1      26.209  47.692   1.066  1.00  0.00    -0.175 F
ENDBRANCH   2  22
BRANCH  12  29
HETATM   29  C18 UNL     1      31.802  53.546   4.577  1.00  0.00     0.122 C
HETATM   30  N3  UNL     1      32.968  53.170   4.986  1.00  0.00    -0.374 N
HETATM   31  C19 UNL     1      33.621  53.736   6.137  1.00  0.00     0.123 C
ATOM     32  H3  UNL     1      33.451  52.435   4.467  1.00  0.00     0.161 HD
HETATM   33  C20 UNL     1      32.696  54.203   7.213  1.00  0.00     0.046 C
HETATM   34  C21 UNL     1      31.343  54.626   6.732  1.00  0.00     0.178 C
HETATM   35  O4  UNL     1      31.200  54.551   5.330  1.00  0.00    -0.339 OA
ENDBRANCH  12  29
TORSDOF 7
ENDMDL