MODEL 4
REMARK VINA RESULT: -8.071072196      2.087      4.186
REMARK  6 active torsions:
REMARK  status: ('A' for Active; 'I' for Inactive)
REMARK    1  A    between atoms: C5_6  and  C6_7
REMARK    2  A    between atoms: C9_12  and  C10_13
REMARK    3  A    between atoms: C10_13  and  N3_14
REMARK    4  A    between atoms: N3_14  and  C11_17
REMARK    5  A    between atoms: C14_20  and  C15_21
REMARK    6  A    between atoms: C15_21  and  C16_22
ROOT
HETATM    1  N1  UNL     1      29.829  52.953  -4.186  1.00  0.00    -0.191 NA
HETATM    2  C1  UNL     1      29.808  52.631  -3.044  1.00  0.00     0.101 C
HETATM    3  C2  UNL     1      29.762  52.265  -1.650  1.00  0.00     0.069 A
HETATM    4  C3  UNL     1      30.719  52.732  -0.768  1.00  0.00     0.027 A
HETATM    5  C4  UNL     1      30.599  52.422   0.558  1.00  0.00     0.027 A
HETATM    6  C5  UNL     1      29.548  51.652   1.077  1.00  0.00     0.013 A
HETATM    7  N2  UNL     1      28.652  51.224   0.183  1.00  0.00    -0.360 N
ATOM      8  H2  UNL     1      27.868  50.660   0.512  1.00  0.00     0.165 HD
HETATM    9  C9  UNL     1      28.733  51.502  -1.125  1.00  0.00     0.056 A
ENDROOT
BRANCH   9  10
HETATM   10  C10 UNL     1      27.787  50.849  -2.078  1.00  0.00     0.294 C
BRANCH  10  11
HETATM   11  N3  UNL     1      26.519  51.514  -2.129  1.00  0.00    -0.038 N
ATOM     12  H32 UNL     1      26.590  52.486  -1.824  1.00  0.00     0.281 HD
ATOM     13  H31 UNL     1      26.215  51.676  -3.089  1.00  0.00     0.281 HD
BRANCH  11  14
HETATM   14  C11 UNL     1      25.541  50.797  -1.381  1.00  0.00     0.226 C
HETATM   15  C12 UNL     1      24.352  50.338  -2.156  1.00  0.00     0.069 C
HETATM   16  C13 UNL     1      23.707  49.189  -1.346  1.00  0.00     0.016 C
HETATM   17  C14 UNL     1      23.964  49.591   0.119  1.00  0.00    -0.016 C
HETATM   18  C22 UNL     1      23.810  51.084   0.264  1.00  0.00     0.016 C
HETATM   19  C24 UNL     1      25.419  49.156   0.293  1.00  0.00     0.180 C
HETATM   20  C23 UNL     1      25.087  51.724  -0.240  1.00  0.00     0.069 C
HETATM   21  O3  UNL     1      26.156  49.708  -0.754  1.00  0.00    -0.353 OA
BRANCH  17  22
HETATM   22  C15 UNL     1      23.028  48.920   1.029  1.00  0.00     0.050 C
BRANCH  22  23
HETATM   23  C16 UNL     1      23.276  47.442   1.331  1.00  0.00     0.183 C
HETATM   24  O1  UNL     1      22.125  47.107   2.158  1.00  0.00    -0.347 OA
HETATM   25  C17 UNL     1      22.311  46.122   3.061  1.00  0.00     0.290 A
HETATM   26  O2  UNL     1      21.920  46.421   4.475  1.00  0.00    -0.348 OA
HETATM   27  C18 UNL     1      23.205  45.821   4.007  1.00  0.00     0.180 A
HETATM   28  C19 UNL     1      24.454  46.479   4.436  1.00  0.00     0.043 C
HETATM   29  C20 UNL     1      25.321  46.947   3.202  1.00  0.00     0.071 C
HETATM   30  C21 UNL     1      24.397  47.237   2.193  1.00  0.00     0.100 C
HETATM   31  F1  UNL     1      23.804  48.183   3.077  1.00  0.00    -0.213 F
ENDBRANCH  22  23
ENDBRANCH  17  22
ENDBRANCH  11  14
ENDBRANCH  10  11
ENDBRANCH   9  10
BRANCH   6  32
HETATM   32  C6  UNL     1      29.539  51.331   2.525  1.00  0.00     0.035 A
HETATM   33  C7  UNL     1      29.561  52.415   3.561  1.00  0.00     0.011 A
HETATM   34  C8  UNL     1      28.293  51.606   3.357  1.00  0.00     0.011 A
ENDBRANCH   6  32
TORSDOF 6
ENDMDL