MODEL 5
REMARK VINA RESULT: -8.268330305      2.352      5.285
REMARK  6 active torsions:
REMARK  status: ('A' for Active; 'I' for Inactive)
REMARK    1  A    between atoms: N1_2  and  C3_4
REMARK    2  A    between atoms: C4_5  and  C5_7
REMARK    3  A    between atoms: C9_11  and  N2_12
REMARK    4  A    between atoms: N2_12  and  C10_14
REMARK    5  A    between atoms: C11_17  and  N4_18
REMARK    6  A    between atoms: C18_27  and  N6_28
ROOT
HETATM    1  C10 UNL     1      28.338  50.759  -1.222  1.00  0.00     0.711 A
HETATM    2  N3  UNL     1      27.157  50.138  -1.060  1.00  0.00    -0.021 N
ATOM      3  H3  UNL     1      26.651  49.783  -1.871  1.00  0.00     0.203 HD
HETATM    4  C11 UNL     1      26.646  49.985   0.173  1.00  0.00     0.709 A
HETATM    5  N5  UNL     1      27.323  50.456   1.222  1.00  0.00    -0.021 N
ATOM      6  H5  UNL     1      26.924  50.332   2.152  1.00  0.00     0.203 HD
HETATM    7  C18 UNL     1      28.503  51.082   1.114  1.00  0.00     0.709 A
HETATM    8  N7  UNL     1      28.995  51.223  -0.143  1.00  0.00    -0.021 N
ATOM      9  H7  UNL     1      29.889  51.695  -0.273  1.00  0.00     0.203 HD
ENDROOT
BRANCH   1  10
HETATM   10  N2  UNL     1      28.868  50.929  -2.392  1.00  0.00    -0.191 N
ATOM     11  H2  UNL     1      29.715  51.492  -2.479  1.00  0.00     0.184 HD
BRANCH  10  12
HETATM   12  C9  UNL     1      28.296  50.349  -3.564  1.00  0.00     0.050 A
HETATM   13  C8  UNL     1      28.988  49.336  -4.189  1.00  0.00     0.030 A
HETATM   14  C7  UNL     1      28.473  48.748  -5.322  1.00  0.00     0.003 A
HETATM   15  C6  UNL     1      27.239  49.210  -5.805  1.00  0.00     0.014 A
HETATM   16  C5  UNL     1      26.508  50.206  -5.232  1.00  0.00     0.006 A
HETATM   17  C23 UNL     1      27.094  50.765  -4.075  1.00  0.00     0.044 A
BRANCH  16  18
HETATM   18  C4  UNL     1      25.234  50.733  -5.668  1.00  0.00     0.141 C
HETATM   19  C3  UNL     1      24.829  51.015  -6.851  1.00  0.00     0.128 C
HETATM   20  F1  UNL     1      24.282  50.981  -4.658  1.00  0.00    -0.204 F
BRANCH  19  21
HETATM   21  N1  UNL     1      25.396  50.942  -8.130  1.00  0.00    -0.396 N
HETATM   22  C1  UNL     1      24.971  49.893  -9.034  1.00  0.00     0.148 C
HETATM   23  C2  UNL     1      26.362  51.908  -8.606  1.00  0.00     0.148 C
ENDBRANCH  19  21
ENDBRANCH  16  18
ENDBRANCH  10  12
ENDBRANCH   1  10
BRANCH   4  24
HETATM   24  N4  UNL     1      25.405  49.331   0.332  1.00  0.00    -0.217 N
HETATM   25  C12 UNL     1      24.391  49.724  -0.593  1.00  0.00     0.141 C
HETATM   26  C13 UNL     1      23.022  49.841   0.016  1.00  0.00     0.020 C
HETATM   27  C14 UNL     1      22.739  48.851   1.093  1.00  0.00     0.002 C
HETATM   28  C15 UNL     1      23.169  47.449   0.740  1.00  0.00     0.002 C
HETATM   29  C16 UNL     1      24.612  47.174   1.000  1.00  0.00     0.020 C
HETATM   30  C17 UNL     1      25.405  48.365   1.430  1.00  0.00     0.141 C
ENDBRANCH   4  24
BRANCH   7  31
HETATM   31  N6  UNL     1      29.221  51.581   2.231  1.00  0.00    -0.217 N
HETATM   32  C19 UNL     1      30.589  52.053   2.198  1.00  0.00     0.141 C
HETATM   33  C20 UNL     1      30.483  53.318   3.043  1.00  0.00     0.022 C
HETATM   34  C21 UNL     1      29.636  52.809   4.209  1.00  0.00     0.022 C
HETATM   35  C22 UNL     1      28.774  51.727   3.593  1.00  0.00     0.141 C
ENDBRANCH   7  31
TORSDOF 6
ENDMDL