MODEL 1
REMARK VINA RESULT: -7.737081469      0.000      0.000
REMARK  6 active torsions:
REMARK  status: ('A' for Active; 'I' for Inactive)
REMARK    1  A    between atoms: C3_3  and  C5_5
REMARK    2  A    between atoms: C5_5  and  O1_6
REMARK    3  A    between atoms: O1_6  and  C6_7
REMARK    4  A    between atoms: C7_8  and  O2_9
REMARK    5  A    between atoms: O2_9  and  C8_10
REMARK    6  A    between atoms: C12_15  and  N1_16
ROOT
HETATM    1  C6  UNL     1      26.491  52.305  -3.824  1.00  0.00     0.181 C
HETATM    2  C7  UNL     1      27.222  53.562  -4.245  1.00  0.00     0.163 C
HETATM    3  C10 UNL     1      26.364  54.695  -3.887  1.00  0.00     0.037 C
HETATM    4  C11 UNL     1      25.192  54.063  -3.112  1.00  0.00     0.031 C
HETATM    5  C12 UNL     1      25.799  52.802  -2.548  1.00  0.00     0.127 C
ENDROOT
BRANCH   5   6
HETATM    6  N1  UNL     1      24.848  51.968  -1.948  1.00  0.00    -0.291 N
HETATM    7  C13 UNL     1      23.532  51.923  -2.323  1.00  0.00     0.330 A
HETATM    8  O4  UNL     1      23.026  52.662  -3.180  1.00  0.00    -0.246 OA
HETATM    9  N2  UNL     1      22.711  51.048  -1.746  1.00  0.00    -0.274 N
HETATM   10  C14 UNL     1      23.065  50.184  -0.807  1.00  0.00     0.265 A
ATOM     11  H2  UNL     1      21.737  51.043  -2.050  1.00  0.00     0.173 HD
HETATM   12  O5  UNL     1      22.298  49.361  -0.265  1.00  0.00    -0.267 OA
HETATM   13  C15 UNL     1      24.395  50.232  -0.424  1.00  0.00     0.098 A
HETATM   14  C16 UNL     1      24.833  49.370   0.585  1.00  0.00     0.134 A
HETATM   15  C20 UNL     1      25.317  51.106  -0.964  1.00  0.00     0.058 A
HETATM   16  F1  UNL     1      23.945  48.504   1.136  1.00  0.00    -0.205 F
HETATM   17  C17 UNL     1      26.130  49.384   1.034  1.00  0.00     0.043 A
HETATM   18  C18 UNL     1      27.022  50.267   0.481  1.00  0.00     0.005 A
HETATM   19  C19 UNL     1      26.620  51.129  -0.517  1.00  0.00     0.031 A
ENDBRANCH   5   6
BRANCH   1  20
HETATM   20  O1  UNL     1      25.756  51.617  -4.659  1.00  0.00    -0.341 OA
BRANCH  20  21
HETATM   21  C5  UNL     1      25.819  50.773  -5.753  1.00  0.00     0.076 C
HETATM   22  C21 UNL     1      24.771  50.384  -6.431  1.00  0.00    -0.054 C
HETATM   23  C22 UNL     1      23.353  50.800  -6.095  1.00  0.00     0.046 C
HETATM   24  C23 UNL     1      24.829  49.516  -7.619  1.00  0.00     0.046 C
BRANCH  21  25
HETATM   25  C3  UNL     1      27.187  50.339  -6.118  1.00  0.00    -0.033 C
HETATM   26  C2  UNL     1      27.717  49.343  -5.363  1.00  0.00    -0.022 C
HETATM   27  C1  UNL     1      29.052  48.777  -5.571  1.00  0.00     0.036 C
HETATM   28  C4  UNL     1      28.053  50.814  -7.169  1.00  0.00     0.050 C
ENDBRANCH  21  25
ENDBRANCH  20  21
ENDBRANCH   1  20
BRANCH   2  29
HETATM   29  O2  UNL     1      28.377  53.626  -3.394  1.00  0.00    -0.314 OA
BRANCH  29  30
HETATM   30  C8  UNL     1      29.345  52.688  -3.287  1.00  0.00     0.255 C
HETATM   31  C9  UNL     1      30.147  52.370  -4.501  1.00  0.00     0.126 C
HETATM   32  O3  UNL     1      29.555  52.119  -2.209  1.00  0.00    -0.266 OA
ENDBRANCH  29  30
ENDBRANCH   2  29
TORSDOF 6
ENDMDL