MODEL 3
REMARK VINA RESULT: -4.793849725      1.920      2.301
REMARK  2 active torsions:
REMARK  status: ('A' for Active; 'I' for Inactive)
REMARK    1  A    between atoms: C2_2  and  N1_3
REMARK    2  A    between atoms: C2_2  and  C4_8
REMARK       I    between atoms: N1_3  and  C3_5
ROOT
HETATM    1  C1  UNL     1      -2.905 -22.203  13.776  1.00  0.00     0.041 C
HETATM    2  C2  UNL     1      -3.150 -22.611  12.562  1.00  0.00     0.041 C
ENDROOT
BRANCH   2   3
HETATM    3  N1  UNL     1      -2.262 -23.193  11.681  1.00  0.00    -0.313 N
HETATM    4  C3  UNL     1      -2.480 -24.317  10.865  1.00  0.00     0.333 C
HETATM    5  N2  UNL     1      -1.446 -24.817   9.985  1.00  0.00    -0.040 NA
HETATM    6  O1  UNL     1      -3.540 -24.985  10.807  1.00  0.00    -0.251 OA
ATOM      7  H1  UNL     1      -1.342 -22.758  11.613  1.00  0.00     0.170 HD
ENDBRANCH   2   3
BRANCH   2   8
HETATM    8  C4  UNL     1      -4.585 -22.399  12.106  1.00  0.00     0.255 C
HETATM    9  N3  UNL     1      -5.537 -23.122  12.928  1.00  0.00    -0.101 NA
HETATM   10  N4  UNL     1      -6.339 -21.972  12.913  1.00  0.00    -0.036 NA
HETATM   11  N5  UNL     1      -5.151 -21.242  12.771  1.00  0.00    -0.101 NA
ENDBRANCH   2   8
TORSDOF 2
ENDMDL