MODEL 1
REMARK VINA RESULT: -6.271196715      0.000      0.000
REMARK  4 active torsions:
REMARK  status: ('A' for Active; 'I' for Inactive)
REMARK       I    between atoms: C1_4  and  N3_6
REMARK    1  A    between atoms: N3_6  and  N4_8
REMARK    2  A    between atoms: N4_8  and  C2_10
REMARK    3  A    between atoms: N5_11  and  N6_13
REMARK    4  A    between atoms: N6_13  and  O1_15
ROOT
HETATM    1  N4  UNL     1      -5.475 -22.574  13.113  1.00  0.00    -0.292 N
ATOM      2  H4  UNL     1      -6.234 -23.158  13.464  1.00  0.00     0.187 HD
ENDROOT
BRANCH   1   3
HETATM    3  N3  UNL     1      -5.240 -22.557  11.743  1.00  0.00    -0.273 N
HETATM    4  C1  UNL     1      -4.067 -23.078  11.155  1.00  0.00     0.200 C
HETATM    5  N1  UNL     1      -3.227 -22.281  10.615  1.00  0.00    -0.372 N
HETATM    6  N2  UNL     1      -3.823 -24.471  11.166  1.00  0.00    -0.062 NA
ATOM      7  H12 UNL     1      -2.379 -22.658  10.191  1.00  0.00     0.158 HD
ATOM      8  H11 UNL     1      -3.403 -21.276  10.608  1.00  0.00     0.158 HD
ATOM      9  H3  UNL     1      -5.948 -22.147  11.133  1.00  0.00     0.189 HD
ENDBRANCH   1   3
BRANCH   1  10
HETATM   10  C2  UNL     1      -4.715 -21.824  14.051  1.00  0.00     0.215 C
HETATM   11  N5  UNL     1      -5.338 -21.129  14.939  1.00  0.00    -0.276 N
ATOM     12  H5  UNL     1      -6.358 -21.128  14.958  1.00  0.00     0.189 HD
BRANCH  11  13
HETATM   13  N6  UNL     1      -4.628 -20.380  15.876  1.00  0.00    -0.209 N
ATOM     14  H6  UNL     1      -3.649 -20.599  16.062  1.00  0.00     0.215 HD
BRANCH  13  15
HETATM   15  O1  UNL     1      -5.187 -19.433  16.495  1.00  0.00    -0.274 OA
ATOM     16  H1  UNL     1      -4.880 -19.172  17.356  1.00  0.00     0.246 HD
ENDBRANCH  13  15
ENDBRANCH  11  13
ENDBRANCH   1  10
TORSDOF 4
ENDMDL