MODEL 3
REMARK VINA RESULT: -5.174023093      1.755      1.755
REMARK  3 active torsions:
REMARK  status: ('A' for Active; 'I' for Inactive)
REMARK    1  A    between atoms: C1_4  and  C2_6
REMARK    2  A    between atoms: C2_6  and  N3_7
REMARK    3  A    between atoms: C2_6  and  C3_11
ROOT
HETATM    1  C2  UNL     1      -3.838 -22.010  12.613  1.00  0.00     0.335 C
ENDROOT
BRANCH   1   2
HETATM    2  C1  UNL     1      -2.948 -22.528  11.559  1.00  0.00     0.126 C
HETATM    3  N1  UNL     1      -3.125 -22.222  10.317  1.00  0.00    -0.389 N
ATOM      4  H12 UNL     1      -2.510 -22.580   9.588  1.00  0.00     0.157 HD
ATOM      5  H11 UNL     1      -3.910 -21.603  10.112  1.00  0.00     0.157 HD
HETATM    6  N2  UNL     1      -1.852 -23.391  11.846  1.00  0.00    -0.085 NA
ENDBRANCH   1   2
BRANCH   1   7
HETATM    7  N3  UNL     1      -3.827 -20.583  12.563  1.00  0.00    -0.060 N
ATOM      8  H33 UNL     1      -4.469 -20.212  11.863  1.00  0.00     0.275 HD
ATOM      9  H32 UNL     1      -4.256 -20.161  13.387  1.00  0.00     0.275 HD
ATOM     10  H31 UNL     1      -2.868 -20.266  12.418  1.00  0.00     0.275 HD
ENDBRANCH   1   7
BRANCH   1  11
HETATM   11  C3  UNL     1      -5.199 -22.584  12.511  1.00  0.00     0.268 C
HETATM   12  N4  UNL     1      -6.314 -22.085  13.206  1.00  0.00    -0.060 NA
HETATM   13  O1  UNL     1      -5.374 -23.575  11.758  1.00  0.00    -0.274 OA
ENDBRANCH   1  11
TORSDOF 3
ENDMDL