MODEL 5
REMARK VINA RESULT: -4.425848189      1.908      3.922
REMARK  2 active torsions:
REMARK  status: ('A' for Active; 'I' for Inactive)
REMARK       I    between atoms: C1_4  and  N3_6
REMARK    1  A    between atoms: N3_6  and  C2_8
REMARK    2  A    between atoms: C3_12  and  C4_13
ROOT
HETATM    1  C2  UNL     1      -2.701 -22.494  12.610  1.00  0.00     0.327 A
HETATM    2  N4  UNL     1      -3.526 -23.424  13.383  1.00  0.00    -0.035 N
ATOM      3  H41 UNL     1      -3.314 -24.216  13.990  1.00  0.00     0.280 HD
ATOM      4  H42 UNL     1      -4.157 -24.184  13.128  1.00  0.00     0.280 HD
HETATM    5  C3  UNL     1      -3.710 -22.031  13.615  1.00  0.00     0.326 A
ENDROOT
BRANCH   1   6
HETATM    6  N3  UNL     1      -2.899 -22.514  11.203  1.00  0.00    -0.335 N
HETATM    7  C1  UNL     1      -3.764 -23.494  10.669  1.00  0.00     0.183 C
HETATM    8  N1  UNL     1      -4.994 -23.220  10.492  1.00  0.00    -0.374 N
HETATM    9  N2  UNL     1      -3.266 -24.767  10.336  1.00  0.00    -0.064 NA
ATOM     10  H12 UNL     1      -5.620 -23.928  10.107  1.00  0.00     0.158 HD
ATOM     11  H11 UNL     1      -5.355 -22.297  10.735  1.00  0.00     0.158 HD
ATOM     12  H3  UNL     1      -2.429 -21.841  10.597  1.00  0.00     0.164 HD
ENDBRANCH   1   6
BRANCH   5  13
HETATM   13  C4  UNL     1      -4.895 -21.315  13.150  1.00  0.00     0.266 C
HETATM   14  N5  UNL     1      -6.161 -21.946  13.082  1.00  0.00    -0.060 NA
HETATM   15  O1  UNL     1      -4.823 -20.122  12.798  1.00  0.00    -0.274 OA
ENDBRANCH   5  13
TORSDOF 2
ENDMDL