MODEL 1
REMARK VINA RESULT: -5.467403137      0.000      0.000
REMARK  4 active torsions:
REMARK  status: ('A' for Active; 'I' for Inactive)
REMARK    1  A    between atoms: N1_1  and  N2_4
REMARK    2  A    between atoms: N2_4  and  N3_5
REMARK    3  A    between atoms: N3_5  and  C1_6
REMARK    4  A    between atoms: C3_8  and  C4_9
ROOT
HETATM    1  C1  UNL     1      -3.905 -23.704  12.035  1.00  0.00     0.110 A
HETATM    2  C2  UNL     1      -2.984 -22.712  12.636  1.00  0.00     0.039 A
HETATM    3  C3  UNL     1      -4.344 -22.254  12.109  1.00  0.00     0.097 A
ENDROOT
BRANCH   1   4
HETATM    4  N3  UNL     1      -3.625 -24.279  10.733  1.00  0.00    -0.121 NA
BRANCH   4   5
HETATM    5  N2  UNL     1      -2.304 -24.696  10.617  1.00  0.00    -0.038 NA
BRANCH   5   6
HETATM    6  N1  UNL     1      -2.140 -25.735   9.695  1.00  0.00    -0.332 N
ATOM      7  H12 UNL     1      -2.815 -25.927   8.954  1.00  0.00     0.173 HD
ATOM      8  H11 UNL     1      -1.283 -26.268   9.846  1.00  0.00     0.173 HD
ENDBRANCH   5   6
ENDBRANCH   4   5
ENDBRANCH   1   4
BRANCH   3   9
HETATM    9  C4  UNL     1      -5.287 -21.845  13.179  1.00  0.00     0.237 C
HETATM   10  N4  UNL     1      -4.918 -21.107  14.320  1.00  0.00    -0.062 NA
HETATM   11  O1  UNL     1      -6.495 -22.181  13.063  1.00  0.00    -0.276 OA
ENDBRANCH   3   9
TORSDOF 4
ENDMDL