MODEL 2
REMARK VINA RESULT: -6.240824732      1.011      1.439
REMARK  1 active torsions:
REMARK  status: ('A' for Active; 'I' for Inactive)
REMARK       I    between atoms: C1_4  and  N3_6
REMARK    1  A    between atoms: N3_6  and  C2_8
ROOT
HETATM    1  N1  UNL     1      -3.223 -24.807  10.315  1.00  0.00    -0.374 N
ATOM      2  H11 UNL     1      -4.100 -25.243  10.029  1.00  0.00     0.158 HD
ATOM      3  H12 UNL     1      -2.318 -25.088   9.940  1.00  0.00     0.158 HD
HETATM    4  C1  UNL     1      -3.331 -23.867  11.188  1.00  0.00     0.183 C
HETATM    5  N2  UNL     1      -2.092 -23.250  11.591  1.00  0.00    -0.064 NA
HETATM    6  N3  UNL     1      -4.572 -23.480  11.701  1.00  0.00    -0.343 N
ATOM      7  H3  UNL     1      -5.346 -24.142  11.625  1.00  0.00     0.164 HD
ENDROOT
BRANCH   6   8
HETATM    8  C2  UNL     1      -4.832 -22.218  12.329  1.00  0.00     0.231 C
HETATM    9  C3  UNL     1      -4.411 -22.083  13.763  1.00  0.00     0.240 C
HETATM   10  O1  UNL     1      -5.620 -21.419  13.980  1.00  0.00    -0.281 OA
HETATM   11  N4  UNL     1      -6.154 -22.050  12.890  1.00  0.00    -0.073 NA
ENDBRANCH   6   8
TORSDOF 1
ENDMDL