MODEL 1
REMARK VINA RESULT: -5.081186498      0.000      0.000
REMARK  3 active torsions:
REMARK  status: ('A' for Active; 'I' for Inactive)
REMARK    1  A    between atoms: C1_2  and  C2_4
REMARK    2  A    between atoms: C2_4  and  N2_5
REMARK    3  A    between atoms: C2_4  and  C3_9
ROOT
HETATM    1  C3  UNL     1      -3.303 -22.358  12.278  1.00  0.00     0.425 A
HETATM    2  N3  UNL     1      -3.554 -23.754  12.493  1.00  0.00    -0.020 N
ATOM      3  H31 UNL     1      -4.422 -24.056  12.933  1.00  0.00     0.281 HD
ATOM      4  H32 UNL     1      -3.021 -24.268  13.196  1.00  0.00     0.281 HD
HETATM    5  C4  UNL     1      -3.328 -24.005  11.084  1.00  0.00     0.468 A
HETATM    6  N4  UNL     1      -3.010 -22.613  10.859  1.00  0.00    -0.020 N
ATOM      7  H41 UNL     1      -2.113 -22.343  10.456  1.00  0.00     0.281 HD
ATOM      8  H42 UNL     1      -3.482 -22.083  10.126  1.00  0.00     0.281 HD
ENDROOT
BRANCH   1   9
HETATM    9  C2  UNL     1      -4.520 -21.455  12.339  1.00  0.00     0.329 C
BRANCH   9  10
HETATM   10  C1  UNL     1      -5.416 -21.797  13.453  1.00  0.00     0.265 C
HETATM   11  N1  UNL     1      -5.209 -21.258  14.745  1.00  0.00    -0.060 NA
HETATM   12  O1  UNL     1      -6.376 -22.579  13.249  1.00  0.00    -0.274 OA
ENDBRANCH   9  10
BRANCH   9  13
HETATM   13  N2  UNL     1      -4.025 -20.111  12.565  1.00  0.00    -0.063 N
ATOM     14  H23 UNL     1      -4.446 -19.424  11.940  1.00  0.00     0.275 HD
ATOM     15  H22 UNL     1      -4.351 -19.712  13.446  1.00  0.00     0.275 HD
ATOM     16  H21 UNL     1      -3.008 -20.138  12.495  1.00  0.00     0.275 HD
ENDBRANCH   9  13
ENDBRANCH   1   9
TORSDOF 3
ENDMDL