MODEL 2
REMARK VINA RESULT: -4.474544903      1.175      1.214
REMARK  4 active torsions:
REMARK  status: ('A' for Active; 'I' for Inactive)
REMARK    1  A    between atoms: N1_1  and  N2_4
REMARK       I    between atoms: N2_4  and  C1_6
REMARK    2  A    between atoms: C1_6  and  C2_8
REMARK    3  A    between atoms: C2_8  and  N3_9
REMARK    4  A    between atoms: C2_8  and  C3_13
ROOT
HETATM    1  C2  UNL     1      -3.387 -23.075  12.626  1.00  0.00     0.280 C
ENDROOT
BRANCH   1   2
HETATM    2  C1  UNL     1      -3.666 -23.828  11.409  1.00  0.00     0.266 C
HETATM    3  N2  UNL     1      -2.724 -24.631  10.721  1.00  0.00    -0.275 N
ATOM      4  H2  UNL     1      -1.781 -24.685  11.107  1.00  0.00     0.189 HD
HETATM    5  O1  UNL     1      -4.842 -23.774  10.913  1.00  0.00    -0.269 OA
BRANCH   3   6
HETATM    6  N1  UNL     1      -2.982 -25.348   9.567  1.00  0.00    -0.343 N
ATOM      7  H12 UNL     1      -3.809 -25.073   9.038  1.00  0.00     0.176 HD
ATOM      8  H11 UNL     1      -2.413 -26.119   9.216  1.00  0.00     0.176 HD
ENDBRANCH   3   6
ENDBRANCH   1   2
BRANCH   1   9
HETATM    9  N3  UNL     1      -2.501 -21.972  12.327  1.00  0.00    -0.066 N
ATOM     10  H33 UNL     1      -2.208 -21.475  13.169  1.00  0.00     0.275 HD
ATOM     11  H32 UNL     1      -1.583 -22.290  12.017  1.00  0.00     0.275 HD
ATOM     12  H31 UNL     1      -2.941 -21.350  11.649  1.00  0.00     0.275 HD
ENDBRANCH   1   9
BRANCH   1  13
HETATM   13  C3  UNL     1      -4.699 -22.607  13.216  1.00  0.00     0.025 A
HETATM   14  C4  UNL     1      -4.751 -21.715  14.379  1.00  0.00     0.007 A
HETATM   15  C5  UNL     1      -5.109 -21.180  13.016  1.00  0.00     0.007 A
ENDBRANCH   1  13
TORSDOF 4
ENDMDL