MODEL 1
REMARK VINA RESULT: -5.281648234      0.000      0.000
REMARK  2 active torsions:
REMARK  status: ('A' for Active; 'I' for Inactive)
REMARK    1  A    between atoms: N1_1  and  N2_4
REMARK       I    between atoms: N2_4  and  C1_6
REMARK    2  A    between atoms: C1_6  and  C2_8
ROOT
HETATM    1  C2  UNL     1      -3.730 -22.462  12.045  1.00  0.00     0.474 C
HETATM    2  N3  UNL     1      -3.681 -22.572  13.494  1.00  0.00    -0.035 N
ATOM      3  H31 UNL     1      -2.773 -22.385  13.919  1.00  0.00     0.280 HD
ATOM      4  H32 UNL     1      -3.757 -23.518  13.867  1.00  0.00     0.280 HD
HETATM    5  C3  UNL     1      -4.757 -21.655  13.868  1.00  0.00     0.262 C
HETATM    6  C4  UNL     1      -5.831 -22.047  12.857  1.00  0.00     0.262 C
HETATM    7  N4  UNL     1      -5.132 -22.739  11.786  1.00  0.00    -0.035 N
ATOM      8  H41 UNL     1      -5.357 -23.730  11.710  1.00  0.00     0.280 HD
ATOM      9  H42 UNL     1      -5.443 -22.483  10.849  1.00  0.00     0.280 HD
ENDROOT
BRANCH   1  10
HETATM   10  C1  UNL     1      -2.827 -23.433  11.393  1.00  0.00     0.294 C
HETATM   11  N2  UNL     1      -3.394 -24.433  10.563  1.00  0.00    -0.273 N
ATOM     12  H2  UNL     1      -4.405 -24.458  10.435  1.00  0.00     0.189 HD
HETATM   13  O1  UNL     1      -1.608 -23.370  11.574  1.00  0.00    -0.267 OA
BRANCH  11  14
HETATM   14  N1  UNL     1      -2.601 -25.384   9.913  1.00  0.00    -0.343 N
ATOM     15  H12 UNL     1      -2.571 -25.371   8.893  1.00  0.00     0.176 HD
ATOM     16  H11 UNL     1      -2.062 -26.077  10.433  1.00  0.00     0.176 HD
ENDBRANCH  11  14
ENDBRANCH   1  10
TORSDOF 2
ENDMDL