MODEL 3
REMARK VINA RESULT: -3.804176172      1.773      2.451
REMARK  2 active torsions:
REMARK  status: ('A' for Active; 'I' for Inactive)
REMARK    1  A    between atoms: C1_2  and  C2_4
REMARK    2  A    between atoms: N3_10  and  N4_11
ROOT
HETATM    1  C2  UNL     1      -4.258 -21.763  12.271  1.00  0.00     0.390 C
HETATM    2  N2  UNL     1      -2.847 -21.515  12.622  1.00  0.00    -0.043 N
ATOM      3  H21 UNL     1      -2.724 -21.062  13.527  1.00  0.00     0.280 HD
ATOM      4  H22 UNL     1      -2.408 -20.785  12.060  1.00  0.00     0.280 HD
HETATM    5  C3  UNL     1      -2.190 -22.800  12.521  1.00  0.00     0.257 C
HETATM    6  C4  UNL     1      -3.133 -23.699  11.712  1.00  0.00     0.172 C
HETATM    7  N3  UNL     1      -4.125 -22.784  11.312  1.00  0.00    -0.294 N
ENDROOT
BRANCH   1   8
HETATM    8  C1  UNL     1      -4.947 -22.093  13.509  1.00  0.00     0.282 C
HETATM    9  N1  UNL     1      -4.994 -21.129  14.552  1.00  0.00    -0.059 NA
HETATM   10  O1  UNL     1      -5.516 -23.192  13.727  1.00  0.00    -0.272 OA
ENDBRANCH   1   8
BRANCH   7  11
HETATM   11  N4  UNL     1      -5.210 -23.234  10.650  1.00  0.00    -0.345 N
ATOM     12  H42 UNL     1      -6.135 -23.103  11.059  1.00  0.00     0.176 HD
ATOM     13  H41 UNL     1      -5.260 -23.149   9.635  1.00  0.00     0.176 HD
ENDBRANCH   7  11
TORSDOF 2
ENDMDL