MODEL 1
REMARK VINA RESULT: -5.937834220      0.000      0.000
REMARK  8 active torsions:
REMARK  status: ('A' for Active; 'I' for Inactive)
REMARK    1  A    between atoms: N1_2  and  C2_3
REMARK    2  A    between atoms: N1_2  and  C3_7
REMARK    3  A    between atoms: C3_7  and  S1_8
REMARK    4  A    between atoms: S1_8  and  C4_9
REMARK    5  A    between atoms: S1_8  and  C5_13
REMARK    6  A    between atoms: C4_9  and  N3_10
REMARK    7  A    between atoms: C5_13  and  C6_14
REMARK    8  A    between atoms: C6_14  and  N4_15
ROOT
HETATM    1  S1  UNL     1      -3.390  -3.284  18.374  1.00  0.00    -0.162 SA
ENDROOT
BRANCH   1   2
HETATM    2  C3  UNL     1      -2.968  -4.815  17.640  1.00  0.00     0.192 C
BRANCH   2   3
HETATM    3  N1  UNL     1      -2.146  -4.600  16.507  1.00  0.00    -0.373 N
HETATM    4  C1  UNL     1      -1.470  -5.714  15.952  1.00  0.00     0.151 C
BRANCH   3   5
HETATM    5  C2  UNL     1      -2.561  -3.619  15.612  1.00  0.00     0.171 C
HETATM    6  N2  UNL     1      -1.688  -2.727  15.248  1.00  0.00    -0.395 N
ATOM      7  H22 UNL     1      -0.737  -2.759  15.616  1.00  0.00     0.156 HD
ATOM      8  H21 UNL     1      -1.992  -2.007  14.592  1.00  0.00     0.156 HD
ENDBRANCH   3   5
ENDBRANCH   2   3
ENDBRANCH   1   2
BRANCH   1   9
HETATM    9  C4  UNL     1      -2.133  -2.449  19.181  1.00  0.00     0.117 C
BRANCH   9  10
HETATM   10  N3  UNL     1      -0.912  -2.618  18.756  1.00  0.00    -0.403 N
ATOM     11  H32 UNL     1      -0.233  -3.106  19.338  1.00  0.00     0.155 HD
ATOM     12  H31 UNL     1      -0.669  -2.249  17.837  1.00  0.00     0.155 HD
ENDBRANCH   9  10
ENDBRANCH   1   9
BRANCH   1  13
HETATM   13  C5  UNL     1      -4.937  -3.269  19.185  1.00  0.00     0.092 C
BRANCH  13  14
HETATM   14  C6  UNL     1      -4.985  -4.148  20.417  1.00  0.00     0.161 C
BRANCH  14  15
HETATM   15  N4  UNL     1      -4.560  -3.328  21.535  1.00  0.00    -0.272 N
HETATM   16  C7  UNL     1      -4.729  -2.031  21.922  1.00  0.00     0.219 A
HETATM   17  N5  UNL     1      -3.998  -2.250  23.011  1.00  0.00    -0.280 N
HETATM   18  N6  UNL     1      -3.839  -3.500  22.631  1.00  0.00    -0.239 N
ATOM     19  H5  UNL     1      -3.690  -1.687  23.806  1.00  0.00     0.189 HD
ATOM     20  H6  UNL     1      -3.346  -4.299  23.030  1.00  0.00     0.208 HD
ENDBRANCH  14  15
ENDBRANCH  13  14
ENDBRANCH   1  13
TORSDOF 8
ENDMDL