MODEL 5
REMARK VINA RESULT: -5.482292511      3.168      5.031
REMARK  7 active torsions:
REMARK  status: ('A' for Active; 'I' for Inactive)
REMARK    1  A    between atoms: N1_2  and  N2_4
REMARK    2  A    between atoms: C2_6  and  C3_7
REMARK    3  A    between atoms: C3_7  and  C4_8
REMARK    4  A    between atoms: C4_8  and  N3_9
REMARK    5  A    between atoms: N3_9  and  C5_10
REMARK    6  A    between atoms: N3_9  and  C6_14
REMARK    7  A    between atoms: C6_14  and  N5_15
ROOT
HETATM    1  N3  UNL     1      -1.932  -5.140  15.783  1.00  0.00    -0.360 N
ENDROOT
BRANCH   1   2
HETATM    2  C4  UNL     1      -2.524  -6.256  16.486  1.00  0.00     0.130 C
BRANCH   2   3
HETATM    3  C3  UNL     1      -1.450  -7.081  17.160  1.00  0.00     0.066 C
BRANCH   3   4
HETATM    4  C2  UNL     1      -2.076  -8.038  18.106  1.00  0.00     0.081 C
HETATM    5  N2  UNL     1      -3.354  -8.175  18.172  1.00  0.00    -0.320 N
ATOM      6  H2  UNL     1      -3.920  -7.599  17.549  1.00  0.00     0.185 HD
BRANCH   5   7
HETATM    7  N1  UNL     1      -4.023  -9.039  19.021  1.00  0.00    -0.341 N
HETATM    8  C1  UNL     1      -3.379 -10.102  19.753  1.00  0.00     0.167 C
ATOM      9  H1  UNL     1      -5.029  -8.917  19.136  1.00  0.00     0.179 HD
ENDBRANCH   5   7
ENDBRANCH   3   4
ENDBRANCH   2   3
ENDBRANCH   1   2
BRANCH   1  10
HETATM   10  C5  UNL     1      -0.816  -5.417  14.942  1.00  0.00     0.172 C
HETATM   11  N4  UNL     1      -0.386  -4.547  14.074  1.00  0.00    -0.395 N
ATOM     12  H42 UNL     1      -0.869  -3.651  14.007  1.00  0.00     0.156 HD
ATOM     13  H41 UNL     1       0.413  -4.745  13.472  1.00  0.00     0.156 HD
ENDBRANCH   1  10
BRANCH   1  14
HETATM   14  C6  UNL     1      -2.514  -3.839  15.982  1.00  0.00     0.255 C
BRANCH  14  15
HETATM   15  N5  UNL     1      -2.543  -3.431  17.377  1.00  0.00    -0.335 N
HETATM   16  C7  UNL     1      -3.607  -3.533  18.195  1.00  0.00     0.110 A
HETATM   17  C8  UNL     1      -3.269  -3.048  19.451  1.00  0.00     0.106 A
HETATM   18  N6  UNL     1      -1.984  -2.653  19.369  1.00  0.00    -0.361 N
HETATM   19  C9  UNL     1      -1.564  -2.894  18.102  1.00  0.00     0.183 A
ATOM     20  H6  UNL     1      -1.429  -2.247  20.122  1.00  0.00     0.166 HD
ENDBRANCH  14  15
ENDBRANCH   1  14
TORSDOF 7
ENDMDL