MODEL 2
REMARK VINA RESULT: -5.686940502      2.531      3.713
REMARK  7 active torsions:
REMARK  status: ('A' for Active; 'I' for Inactive)
REMARK    1  A    between atoms: C2_2  and  C3_3
REMARK    2  A    between atoms: C2_2  and  N3_11
REMARK    3  A    between atoms: C3_3  and  C4_4
REMARK    4  A    between atoms: N3_11  and  C8_13
REMARK    5  A    between atoms: C8_13  and  C9_14
REMARK    6  A    between atoms: C9_14  and  N4_15
REMARK    7  A    between atoms: N4_15  and  C10_17
ROOT
HETATM    1  C1  UNL     1      -2.493  -3.812  15.331  1.00  0.00     0.063 C
HETATM    2  C2  UNL     1      -2.127  -4.450  16.634  1.00  0.00    -0.013 C
ENDROOT
BRANCH   2   3
HETATM    3  C3  UNL     1      -1.454  -5.789  16.344  1.00  0.00     0.110 C
BRANCH   3   4
HETATM    4  C4  UNL     1      -2.012  -6.835  17.270  1.00  0.00     0.032 A
HETATM    5  C5  UNL     1      -3.311  -6.867  17.776  1.00  0.00     0.045 A
HETATM    6  C6  UNL     1      -3.396  -7.990  18.564  1.00  0.00     0.111 A
HETATM    7  N1  UNL     1      -2.212  -8.622  18.548  1.00  0.00    -0.308 N
HETATM    8  C7  UNL     1      -1.888  -9.863  19.265  1.00  0.00     0.177 C
HETATM    9  N2  UNL     1      -1.411  -7.916  17.773  1.00  0.00    -0.303 N
ATOM     10  H2  UNL     1      -0.441  -8.168  17.581  1.00  0.00     0.186 HD
ENDBRANCH   3   4
ENDBRANCH   2   3
BRANCH   2  11
HETATM   11  N3  UNL     1      -1.561  -3.700  17.643  1.00  0.00    -0.375 N
ATOM     12  H3  UNL     1      -0.549  -3.776  17.751  1.00  0.00     0.164 HD
BRANCH  11  13
HETATM   13  C8  UNL     1      -2.213  -2.855  18.525  1.00  0.00     0.080 C
BRANCH  13  14
HETATM   14  C9  UNL     1      -3.580  -3.320  18.951  1.00  0.00     0.166 C
BRANCH  14  15
HETATM   15  N4  UNL     1      -3.727  -3.444  20.389  1.00  0.00    -0.363 N
ATOM     16  H4  UNL     1      -3.105  -4.067  20.903  1.00  0.00     0.162 HD
BRANCH  15  17
HETATM   17  C10 UNL     1      -4.703  -2.728  21.083  1.00  0.00     0.348 C
HETATM   18  O1  UNL     1      -5.421  -1.885  20.519  1.00  0.00    -0.284 OA
ENDBRANCH  15  17
ENDBRANCH  14  15
ENDBRANCH  13  14
ENDBRANCH  11  13
ENDBRANCH   2  11
TORSDOF 7
ENDMDL