MODEL 5
REMARK VINA RESULT: -6.012521620      2.102      6.497
REMARK  9 active torsions:
REMARK  status: ('A' for Active; 'I' for Inactive)
REMARK    1  A    between atoms: C1_1  and  N1_2
REMARK    2  A    between atoms: C1_1  and  N5_12
REMARK    3  A    between atoms: N1_2  and  C2_4
REMARK    4  A    between atoms: C2_4  and  C3_5
REMARK    5  A    between atoms: C3_5  and  N2_6
REMARK    6  A    between atoms: N5_12  and  C5_14
REMARK    7  A    between atoms: C5_14  and  C6_15
REMARK    8  A    between atoms: C6_15  and  C7_16
REMARK    9  A    between atoms: C7_16  and  N6_17
ROOT
HETATM    1  C1  UNL     1      -2.905  -3.941  17.393  1.00  0.00     0.171 C
ENDROOT
BRANCH   1   2
HETATM    2  N1  UNL     1      -2.805  -5.203  17.645  1.00  0.00    -0.385 N
ATOM      3  H1  UNL     1      -2.978  -5.566  18.583  1.00  0.00     0.160 HD
BRANCH   2   4
HETATM    4  C2  UNL     1      -2.443  -6.082  16.567  1.00  0.00     0.142 C
BRANCH   4   5
HETATM    5  C3  UNL     1      -0.971  -6.049  16.243  1.00  0.00     0.171 C
BRANCH   5   6
HETATM    6  N2  UNL     1      -0.823  -5.449  14.934  1.00  0.00    -0.271 N
HETATM    7  C4  UNL     1      -1.556  -5.389  13.784  1.00  0.00     0.219 A
HETATM    8  N3  UNL     1      -0.616  -4.647  13.190  1.00  0.00    -0.280 N
HETATM    9  N4  UNL     1       0.094  -4.702  14.295  1.00  0.00    -0.239 N
ATOM     10  H3  UNL     1      -0.500  -4.219  12.271  1.00  0.00     0.189 HD
ATOM     11  H4  UNL     1       1.001  -4.320  14.566  1.00  0.00     0.208 HD
ENDBRANCH   5   6
ENDBRANCH   4   5
ENDBRANCH   2   4
ENDBRANCH   1   2
BRANCH   1  12
HETATM   12  N5  UNL     1      -1.805  -3.063  17.623  1.00  0.00    -0.386 N
ATOM     13  H5  UNL     1      -1.130  -2.897  16.876  1.00  0.00     0.160 HD
BRANCH  12  14
HETATM   14  C5  UNL     1      -1.632  -2.404  18.902  1.00  0.00     0.122 C
BRANCH  14  15
HETATM   15  C6  UNL     1      -2.926  -2.583  19.683  1.00  0.00     0.041 C
BRANCH  15  16
HETATM   16  C7  UNL     1      -2.694  -2.685  21.170  1.00  0.00     0.151 C
BRANCH  16  17
HETATM   17  N6  UNL     1      -3.955  -2.922  21.821  1.00  0.00    -0.285 N
HETATM   18  C8  UNL     1      -5.058  -2.328  22.257  1.00  0.00     0.216 A
HETATM   19  N7  UNL     1      -4.912  -3.728  22.420  1.00  0.00    -0.292 N
ATOM     20  H7  UNL     1      -5.252  -4.636  22.736  1.00  0.00     0.188 HD
ENDBRANCH  16  17
ENDBRANCH  15  16
ENDBRANCH  14  15
ENDBRANCH  12  14
ENDBRANCH   1  12
TORSDOF 9
ENDMDL