MODEL 1
REMARK VINA RESULT: -5.861487489      0.000      0.000
REMARK  8 active torsions:
REMARK  status: ('A' for Active; 'I' for Inactive)
REMARK    1  A    between atoms: C2_2  and  C4_4
REMARK    2  A    between atoms: C4_4  and  C5_5
REMARK    3  A    between atoms: C4_4  and  N1_7
REMARK    4  A    between atoms: N1_7  and  C6_9
REMARK    5  A    between atoms: C6_9  and  C7_10
REMARK    6  A    between atoms: C7_10  and  N2_11
REMARK    7  A    between atoms: N2_11  and  N3_13
REMARK    8  A    between atoms: C8_15  and  C9_16
ROOT
HETATM    1  C6  UNL     1      -2.221  -2.270  19.755  1.00  0.00     0.135 C
ENDROOT
BRANCH   1   2
HETATM    2  N1  UNL     1      -2.844  -3.439  20.151  1.00  0.00    -0.409 N
ATOM      3  H1  UNL     1      -2.293  -4.297  20.193  1.00  0.00     0.154 HD
BRANCH   2   4
HETATM    4  C4  UNL     1      -4.210  -3.495  20.499  1.00  0.00     0.141 C
BRANCH   4   5
HETATM    5  C2  UNL     1      -4.579  -3.143  21.922  1.00  0.00     0.006 C
HETATM    6  C1  UNL     1      -5.131  -1.677  21.909  1.00  0.00     0.012 C
HETATM    7  C3  UNL     1      -5.715  -3.910  22.503  1.00  0.00     0.012 C
ENDBRANCH   4   5
BRANCH   4   8
HETATM    8  C5  UNL     1      -4.854  -2.424  19.600  1.00  0.00     0.256 C
HETATM    9  O1  UNL     1      -5.119  -2.726  18.478  1.00  0.00    -0.305 OA
ENDBRANCH   4   8
ENDBRANCH   2   4
ENDBRANCH   1   2
BRANCH   1  10
HETATM   10  C7  UNL     1      -1.455  -2.391  18.429  1.00  0.00     0.158 C
BRANCH  10  11
HETATM   11  N2  UNL     1      -1.904  -3.601  17.784  1.00  0.00    -0.336 N
ATOM     12  H2  UNL     1      -1.638  -4.524  18.126  1.00  0.00     0.180 HD
BRANCH  11  13
HETATM   13  N3  UNL     1      -2.698  -3.445  16.699  1.00  0.00    -0.320 N
HETATM   14  C8  UNL     1      -2.490  -4.014  15.603  1.00  0.00     0.084 C
ATOM     15  H3  UNL     1      -3.510  -2.832  16.778  1.00  0.00     0.185 HD
BRANCH  14  16
HETATM   16  C9  UNL     1      -1.350  -4.917  15.383  1.00  0.00     0.025 A
HETATM   17  C10 UNL     1      -0.917  -5.060  13.941  1.00  0.00     0.010 A
HETATM   18  C11 UNL     1      -1.556  -6.205  14.668  1.00  0.00     0.010 A
ENDBRANCH  14  16
ENDBRANCH  11  13
ENDBRANCH  10  11
ENDBRANCH   1  10
TORSDOF 8
ENDMDL