MODEL 4
REMARK VINA RESULT: -5.895151600      1.499      1.929
REMARK  8 active torsions:
REMARK  status: ('A' for Active; 'I' for Inactive)
REMARK    1  A    between atoms: C2_2  and  C3_3
REMARK    2  A    between atoms: C3_3  and  C4_4
REMARK    3  A    between atoms: C4_4  and  N1_5
REMARK    4  A    between atoms: N1_5  and  O1_6
REMARK    5  A    between atoms: N1_5  and  C5_8
REMARK    6  A    between atoms: C5_8  and  N2_9
REMARK    7  A    between atoms: N2_9  and  C6_12
REMARK    8  A    between atoms: C6_12  and  C7_13
ROOT
HETATM    1  N2  UNL     1      -2.010  -3.163  16.408  1.00  0.00    -0.058 N
ATOM      2  H21 UNL     1      -1.914  -2.150  16.340  1.00  0.00     0.279 HD
ATOM      3  H22 UNL     1      -1.203  -3.366  16.999  1.00  0.00     0.279 HD
ENDROOT
BRANCH   1   4
HETATM    4  C5  UNL     1      -1.873  -3.789  15.106  1.00  0.00     0.352 C
BRANCH   4   5
HETATM    5  N1  UNL     1      -0.827  -4.794  15.107  1.00  0.00    -0.174 NA
BRANCH   5   6
HETATM    6  C4  UNL     1      -1.376  -6.135  15.157  1.00  0.00     0.126 C
BRANCH   6   7
HETATM    7  C3  UNL     1      -1.326  -6.691  16.579  1.00  0.00     0.043 C
BRANCH   7   8
HETATM    8  C2  UNL     1      -2.743  -6.800  17.051  1.00  0.00    -0.036 C
HETATM    9  C1  UNL     1      -3.070  -7.489  18.136  1.00  0.00     0.007 C
ENDBRANCH   7   8
ENDBRANCH   6   7
ENDBRANCH   5   6
BRANCH   5  10
HETATM   10  O1  UNL     1      -0.096  -4.672  13.979  1.00  0.00    -0.311 OA
ATOM     11  H1  UNL     1       0.820  -4.795  14.199  1.00  0.00     0.237 HD
ENDBRANCH   5  10
ENDBRANCH   4   5
ENDBRANCH   1   4
BRANCH   1  12
HETATM   12  C6  UNL     1      -3.229  -3.519  17.064  1.00  0.00     0.275 C
BRANCH  12  13
HETATM   13  C7  UNL     1      -3.195  -3.305  18.521  1.00  0.00     0.001 A
HETATM   14  C8  UNL     1      -2.178  -2.691  19.221  1.00  0.00     0.117 A
HETATM   15  N3  UNL     1      -2.517  -2.686  20.529  1.00  0.00    -0.310 N
HETATM   16  N4  UNL     1      -3.694  -3.260  20.711  1.00  0.00    -0.308 N
ATOM     17  H3  UNL     1      -1.943  -2.293  21.274  1.00  0.00     0.186 HD
HETATM   18  C9  UNL     1      -4.381  -3.437  21.989  1.00  0.00     0.177 C
HETATM   19  C10 UNL     1      -4.126  -3.645  19.496  1.00  0.00     0.119 A
ENDBRANCH  12  13
ENDBRANCH   1  12
TORSDOF 8
ENDMDL