MODEL 4
REMARK VINA RESULT: -5.571715950      1.048      1.489
REMARK  7 active torsions:
REMARK  status: ('A' for Active; 'I' for Inactive)
REMARK    1  A    between atoms: N1_2  and  C2_4
REMARK    2  A    between atoms: C2_4  and  C3_5
REMARK    3  A    between atoms: C3_5  and  N2_6
REMARK    4  A    between atoms: C4_8  and  N3_9
REMARK    5  A    between atoms: N3_9  and  C5_11
REMARK    6  A    between atoms: C5_11  and  C6_12
REMARK    7  A    between atoms: C6_12  and  N4_13
ROOT
HETATM    1  N3  UNL     1      -3.429  -3.408  17.403  1.00  0.00    -0.385 N
ATOM      2  H3  UNL     1      -4.069  -3.108  16.668  1.00  0.00     0.160 HD
ENDROOT
BRANCH   1   3
HETATM    3  C4  UNL     1      -2.046  -3.439  17.173  1.00  0.00     0.171 C
HETATM    4  N2  UNL     1      -1.471  -4.491  16.654  1.00  0.00    -0.385 N
ATOM      5  H2  UNL     1      -0.463  -4.478  16.502  1.00  0.00     0.160 HD
BRANCH   4   6
HETATM    6  C3  UNL     1      -2.210  -5.663  16.293  1.00  0.00     0.139 C
BRANCH   6   7
HETATM    7  C2  UNL     1      -1.406  -6.937  16.580  1.00  0.00     0.137 C
BRANCH   7   8
HETATM    8  N1  UNL     1      -1.911  -7.558  17.772  1.00  0.00    -0.406 N
HETATM    9  C1  UNL     1      -1.368  -8.580  18.300  1.00  0.00     0.112 C
ATOM     10  H1  UNL     1      -2.741  -7.162  18.214  1.00  0.00     0.158 HD
ENDBRANCH   7   8
ENDBRANCH   6   7
ENDBRANCH   4   6
ENDBRANCH   1   3
BRANCH   1  11
HETATM   11  C5  UNL     1      -3.939  -3.808  18.704  1.00  0.00     0.148 C
BRANCH  11  12
HETATM   12  C6  UNL     1      -4.717  -2.650  19.266  1.00  0.00     0.259 C
BRANCH  12  13
HETATM   13  N4  UNL     1      -4.775  -2.661  20.709  1.00  0.00    -0.032 N
HETATM   14  C7  UNL     1      -4.736  -3.891  21.428  1.00  0.00     0.468 C
HETATM   15  N5  UNL     1      -4.001  -3.648  22.659  1.00  0.00    -0.049 N
HETATM   16  C8  UNL     1      -3.088  -2.598  22.268  1.00  0.00     0.269 C
ATOM     17  H52 UNL     1      -4.580  -3.434  23.471  1.00  0.00     0.279 HD
ATOM     18  H51 UNL     1      -3.561  -4.472  23.067  1.00  0.00     0.279 HD
HETATM   19  C9  UNL     1      -3.873  -1.737  21.340  1.00  0.00     0.244 A
HETATM   20  C10 UNL     1      -5.297  -1.523  21.421  1.00  0.00     0.275 A
ENDBRANCH  12  13
ENDBRANCH  11  12
ENDBRANCH   1  11
TORSDOF 7
ENDMDL