MODEL 1
REMARK VINA RESULT: -5.965717407      0.000      0.000
REMARK  7 active torsions:
REMARK  status: ('A' for Active; 'I' for Inactive)
REMARK    1  A    between atoms: N1_2  and  C2_4
REMARK    2  A    between atoms: C2_4  and  C3_5
REMARK    3  A    between atoms: C3_5  and  C4_6
REMARK    4  A    between atoms: C4_6  and  N2_7
REMARK    5  A    between atoms: N2_7  and  C5_10
REMARK    6  A    between atoms: C5_10  and  N3_11
REMARK    7  A    between atoms: N3_11  and  C6_13
ROOT
HETATM    1  C5  UNL     1      -3.202  -3.802  17.498  1.00  0.00     0.355 C
ENDROOT
BRANCH   1   2
HETATM    2  N2  UNL     1      -2.862  -3.429  16.082  1.00  0.00    -0.056 N
ATOM      3  H22 UNL     1      -2.263  -2.607  16.015  1.00  0.00     0.279 HD
ATOM      4  H21 UNL     1      -3.656  -3.053  15.563  1.00  0.00     0.279 HD
BRANCH   2   5
HETATM    5  C4  UNL     1      -2.298  -4.580  15.482  1.00  0.00     0.263 C
BRANCH   5   6
HETATM    6  C3  UNL     1      -1.459  -5.413  16.351  1.00  0.00     0.017 C
BRANCH   6   7
HETATM    7  C2  UNL     1      -1.620  -6.846  16.516  1.00  0.00     0.080 C
BRANCH   7   8
HETATM    8  N1  UNL     1      -1.856  -7.477  17.711  1.00  0.00    -0.403 N
HETATM    9  C1  UNL     1      -1.193  -8.620  18.164  1.00  0.00     0.145 C
ATOM     10  H1  UNL     1      -2.574  -7.078  18.317  1.00  0.00     0.158 HD
ENDBRANCH   7   8
ENDBRANCH   6   7
ENDBRANCH   5   6
ENDBRANCH   2   5
ENDBRANCH   1   2
BRANCH   1  11
HETATM   11  N3  UNL     1      -2.831  -2.730  18.383  1.00  0.00    -0.369 N
ATOM     12  H3  UNL     1      -2.257  -1.954  18.055  1.00  0.00     0.161 HD
BRANCH  11  13
HETATM   13  C6  UNL     1      -3.289  -2.783  19.735  1.00  0.00     0.030 C
HETATM   14  C7  UNL     1      -2.499  -2.636  20.781  1.00  0.00     0.027 C
HETATM   15  C8  UNL     1      -3.345  -2.755  21.991  1.00  0.00     0.266 C
HETATM   16  N4  UNL     1      -4.698  -2.744  21.551  1.00  0.00    -0.066 N
HETATM   17  C9  UNL     1      -5.432  -3.790  22.243  1.00  0.00     0.272 C
HETATM   18  C10 UNL     1      -5.376  -1.486  21.821  1.00  0.00     0.272 C
HETATM   19  C11 UNL     1      -4.698  -3.009  20.145  1.00  0.00     0.293 C
ENDBRANCH  11  13
ENDBRANCH   1  11
TORSDOF 7
ENDMDL