MODEL 5
REMARK VINA RESULT: -4.785255517      0.886      1.035
REMARK  8 active torsions:
REMARK  status: ('A' for Active; 'I' for Inactive)
REMARK    1  A    between atoms: N2_4  and  C1_6
REMARK    2  A    between atoms: C1_6  and  N3_7
REMARK    3  A    between atoms: N3_7  and  C2_10
REMARK    4  A    between atoms: C3_11  and  C4_12
REMARK    5  A    between atoms: C4_12  and  N4_13
REMARK    6  A    between atoms: C7_20  and  N6_21
REMARK    7  A    between atoms: N6_21  and  C8_22
REMARK    8  A    between atoms: C8_22  and  O1_23
ROOT
HETATM    1  C2  UNL     1      -2.932  -2.867  19.374  1.00  0.00     0.229 C
HETATM    2  C3  UNL     1      -3.066  -2.858  20.908  1.00  0.00     0.039 C
HETATM    3  C5  UNL     1      -4.155  -3.923  21.128  1.00  0.00     0.011 C
HETATM    4  C6  UNL     1      -4.992  -3.765  19.866  1.00  0.00     0.042 C
HETATM    5  C7  UNL     1      -3.883  -3.842  18.812  1.00  0.00     0.196 C
ENDROOT
BRANCH   1   6
HETATM    6  N3  UNL     1      -1.599  -2.837  18.912  1.00  0.00    -0.051 N
ATOM      7  H32 UNL     1      -1.193  -3.772  18.903  1.00  0.00     0.279 HD
ATOM      8  H31 UNL     1      -0.984  -2.396  19.596  1.00  0.00     0.279 HD
BRANCH   6   9
HETATM    9  C1  UNL     1      -1.479  -2.210  17.632  1.00  0.00     0.371 C
BRANCH   9  10
HETATM   10  N2  UNL     1      -1.766  -3.104  16.535  1.00  0.00    -0.318 N
HETATM   11  N1  UNL     1      -1.676  -2.609  15.379  1.00  0.00    -0.348 N
ATOM     12  H12 UNL     1      -1.415  -1.632  15.244  1.00  0.00     0.176 HD
ATOM     13  H11 UNL     1      -1.879  -3.241  14.605  1.00  0.00     0.176 HD
ATOM     14  H2  UNL     1      -2.025  -4.079  16.686  1.00  0.00     0.181 HD
ENDBRANCH   9  10
ENDBRANCH   6   9
ENDBRANCH   1   6
BRANCH   2  15
HETATM   15  C4  UNL     1      -3.679  -1.548  21.377  1.00  0.00     0.145 C
BRANCH  15  16
HETATM   16  N4  UNL     1      -4.597  -1.723  22.477  1.00  0.00    -0.343 N
HETATM   17  N5  UNL     1      -5.603  -1.039  22.619  1.00  0.00    -0.349 N
ATOM     18  H52 UNL     1      -5.786  -0.319  21.920  1.00  0.00     0.176 HD
ATOM     19  H51 UNL     1      -6.251  -1.162  23.397  1.00  0.00     0.176 HD
ATOM     20  H4  UNL     1      -4.399  -2.447  23.167  1.00  0.00     0.179 HD
ENDBRANCH  15  16
ENDBRANCH   2  15
BRANCH   5  21
HETATM   21  N6  UNL     1      -3.592  -5.091  18.388  1.00  0.00    -0.429 NA
BRANCH  21  22
HETATM   22  C8  UNL     1      -3.339  -6.348  17.986  1.00  0.00     0.309 C
BRANCH  22  23
HETATM   23  O1  UNL     1      -2.903  -6.737  16.791  1.00  0.00    -0.346 OA
ATOM     24  H1  UNL     1      -2.573  -6.183  16.093  1.00  0.00     0.219 HD
ENDBRANCH  22  23
ENDBRANCH  21  22
ENDBRANCH   5  21
TORSDOF 8
ENDMDL