MODEL 5
REMARK VINA RESULT: -4.619854673      2.047      6.201
REMARK  7 active torsions:
REMARK  status: ('A' for Active; 'I' for Inactive)
REMARK    1  A    between atoms: N1_2  and  C2_3
REMARK    2  A    between atoms: N1_2  and  C8_14
REMARK    3  A    between atoms: C2_3  and  C3_4
REMARK    4  A    between atoms: C3_4  and  N2_5
REMARK    5  A    between atoms: N2_5  and  C5_8
REMARK    6  A    between atoms: C5_8  and  C6_9
REMARK    7  A    between atoms: C8_14  and  C9_15
ROOT
HETATM    1  N2  UNL     1      -3.816  -3.229  19.235  1.00  0.00     0.033 N
HETATM    2  C4  UNL     1      -4.442  -4.507  19.377  1.00  0.00     0.362 C
HETATM    3  O1  UNL     1      -4.829  -2.415  18.720  1.00  0.00    -0.061 OA
ENDROOT
BRANCH   1   4
HETATM    4  C3  UNL     1      -2.826  -3.229  18.155  1.00  0.00     0.347 C
BRANCH   4   5
HETATM    5  C2  UNL     1      -3.232  -4.110  17.019  1.00  0.00     0.308 C
BRANCH   5   6
HETATM    6  N1  UNL     1      -2.056  -4.705  16.417  1.00  0.00     0.086 N
HETATM    7  C1  UNL     1      -1.739  -4.168  15.129  1.00  0.00     0.310 C
BRANCH   6   8
HETATM    8  C8  UNL     1      -2.207  -6.149  16.372  1.00  0.00     0.276 C
BRANCH   8   9
HETATM    9  C9  UNL     1      -2.110  -6.754  17.749  1.00  0.00     0.014 A
HETATM   10  C10 UNL     1      -2.981  -7.892  18.122  1.00  0.00     0.007 A
HETATM   11  C11 UNL     1      -1.511  -8.174  17.797  1.00  0.00     0.007 A
ENDBRANCH   8   9
ENDBRANCH   6   8
ENDBRANCH   5   6
ENDBRANCH   4   5
ENDBRANCH   1   4
BRANCH   1  12
HETATM   12  C5  UNL     1      -3.324  -2.573  20.365  1.00  0.00     0.281 C
BRANCH  12  13
HETATM   13  C6  UNL     1      -3.650  -2.980  21.733  1.00  0.00     0.266 A
HETATM   14  C7  UNL     1      -4.771  -2.167  22.397  1.00  0.00     0.272 A
HETATM   15  N3  UNL     1      -3.474  -2.339  22.961  1.00  0.00    -0.062 N
ATOM     16  H32 UNL     1      -3.171  -2.687  23.870  1.00  0.00     0.278 HD
ATOM     17  H31 UNL     1      -2.778  -1.664  23.280  1.00  0.00     0.278 HD
ENDBRANCH  12  13
ENDBRANCH   1  12
TORSDOF 7
ENDMDL