MODEL 4
REMARK VINA RESULT: -7.938585940      1.918      3.336
REMARK  12 active torsions:
REMARK  status: ('A' for Active; 'I' for Inactive)
REMARK    1  A    between atoms: O1_2  and  C2_3
REMARK    2  A    between atoms: C4_5  and  C5_6
REMARK       I    between atoms: C5_6  and  N1_8
REMARK    3  A    between atoms: N1_8  and  C6_10
REMARK    4  A    between atoms: C6_10  and  C7_11
REMARK    5  A    between atoms: C8_14  and  O4_15
REMARK    6  A    between atoms: O4_15  and  C9_16
REMARK    7  A    between atoms: C9_16  and  C10_17
REMARK    8  A    between atoms: C10_17  and  C11_18
REMARK    9  A    between atoms: C15_23  and  O5_24
REMARK   10  A    between atoms: C16_26  and  N3_27
REMARK   11  A    between atoms: N3_27  and  C17_28
REMARK   12  A    between atoms: C18_31  and  N5_32
ROOT
HETATM    1  C17 UNL     1       4.136   0.762  41.025  1.00  0.00     0.218 A
HETATM    2  N4  UNL     1       4.793   1.092  39.871  1.00  0.00    -0.163 N
ATOM      3  H4  UNL     1       5.634   0.564  39.637  1.00  0.00     0.187 HD
HETATM    4  C18 UNL     1       4.415   2.052  39.030  1.00  0.00     0.683 A
HETATM    5  N6  UNL     1       3.305   2.733  39.359  1.00  0.00    -0.177 N
ATOM      6  H6  UNL     1       2.991   3.475  38.734  1.00  0.00     0.185 HD
HETATM    7  C21 UNL     1       2.589   2.488  40.468  1.00  0.00     0.157 A
HETATM    8  N7  UNL     1       1.426   3.246  40.756  1.00  0.00    -0.080 NA
HETATM    9  C22 UNL     1       2.985   1.499  41.326  1.00  0.00     0.144 A
HETATM   10  C23 UNL     1       2.229   1.221  42.521  1.00  0.00     0.108 C
HETATM   11  N8  UNL     1       1.615   0.980  43.483  1.00  0.00    -0.191 NA
ENDROOT
BRANCH   1  12
HETATM   12  N3  UNL     1       4.512  -0.093  41.731  1.00  0.00    -0.379 NA
BRANCH  12  13
HETATM   13  C16 UNL     1       4.935  -1.063  42.526  1.00  0.00     0.178 A
HETATM   14  C2  UNL     1       6.130  -0.989  43.233  1.00  0.00     0.113 A
HETATM   15  C3  UNL     1       6.499  -2.012  44.037  1.00  0.00     0.060 A
HETATM   16  C4  UNL     1       5.728  -3.194  44.215  1.00  0.00     0.071 A
HETATM   17  C8  UNL     1       4.549  -3.232  43.489  1.00  0.00     0.121 A
HETATM   18  C15 UNL     1       4.137  -2.224  42.672  1.00  0.00     0.144 A
BRANCH  14  19
HETATM   19  O1  UNL     1       6.876   0.170  43.050  1.00  0.00    -0.352 OA
HETATM   20  C1  UNL     1       7.160   0.933  44.209  1.00  0.00     0.210 C
ENDBRANCH  14  19
BRANCH  16  21
HETATM   21  C5  UNL     1       6.181  -4.097  45.225  1.00  0.00     0.255 C
HETATM   22  O2  UNL     1       6.395  -3.623  46.415  1.00  0.00    -0.268 OA
HETATM   23  N1  UNL     1       6.448  -5.455  45.130  1.00  0.00    -0.348 N
ATOM     24  H1  UNL     1       6.295  -5.937  44.244  1.00  0.00     0.163 HD
BRANCH  23  25
HETATM   25  C6  UNL     1       6.950  -6.212  46.296  1.00  0.00     0.222 C
BRANCH  25  26
HETATM   26  C7  UNL     1       8.323  -6.635  46.000  1.00  0.00     0.248 C
HETATM   27  N2  UNL     1       8.567  -7.606  45.000  1.00  0.00    -0.061 NA
HETATM   28  O3  UNL     1       9.283  -6.143  46.623  1.00  0.00    -0.275 OA
ENDBRANCH  25  26
ENDBRANCH  23  25
ENDBRANCH  16  21
BRANCH  17  29
HETATM   29  O4  UNL     1       3.805  -4.412  43.648  1.00  0.00    -0.347 OA
BRANCH  29  30
HETATM   30  C9  UNL     1       2.770  -4.553  44.554  1.00  0.00     0.179 C
BRANCH  30  31
HETATM   31  C10 UNL     1       2.736  -5.457  45.677  1.00  0.00     0.070 C
BRANCH  31  32
HETATM   32  C11 UNL     1       2.045  -6.773  45.578  1.00  0.00     0.109 A
HETATM   33  F1  UNL     1       1.484  -7.158  44.400  1.00  0.00    -0.242 F
HETATM   34  C12 UNL     1       2.823  -7.944  46.232  1.00  0.00     0.051 A
HETATM   35  C13 UNL     1       1.535  -7.457  46.795  1.00  0.00     0.024 A
HETATM   36  C14 UNL     1       1.613  -6.808  48.144  1.00  0.00     0.013 C
ENDBRANCH  31  32
ENDBRANCH  30  31
ENDBRANCH  29  30
ENDBRANCH  17  29
BRANCH  18  37
HETATM   37  O5  UNL     1       2.944  -2.270  41.954  1.00  0.00    -0.355 OA
ATOM     38  H5  UNL     1       2.618  -1.537  41.445  1.00  0.00     0.218 HD
ENDBRANCH  18  37
ENDBRANCH  12  13
ENDBRANCH   1  12
BRANCH   4  39
HETATM   39  N5  UNL     1       5.147   2.353  37.833  1.00  0.00    -0.226 N
HETATM   40  C19 UNL     1       6.536   2.701  37.832  1.00  0.00     0.168 C
HETATM   41  C20 UNL     1       4.430   2.298  36.579  1.00  0.00     0.168 C
ENDBRANCH   4  39
TORSDOF 12
ENDMDL