MODEL 3
REMARK VINA RESULT: -8.212144328      1.106      1.228
REMARK  15 active torsions:
REMARK  status: ('A' for Active; 'I' for Inactive)
REMARK    1  A    between atoms: C6_10  and  O2_11
REMARK    2  A    between atoms: O2_11  and  C7_12
REMARK    3  A    between atoms: C8_13  and  O3_14
REMARK    4  A    between atoms: C9_16  and  O4_17
REMARK    5  A    between atoms: C10_19  and  O5_20
REMARK    6  A    between atoms: C11_22  and  C12_23
REMARK    7  A    between atoms: C13_24  and  C14_25
REMARK    8  A    between atoms: C14_25  and  C15_26
REMARK    9  A    between atoms: C14_25  and  O7_30
REMARK   10  A    between atoms: C15_26  and  O6_27
REMARK   11  A    between atoms: O6_27  and  C16_28
REMARK   12  A    between atoms: O7_30  and  C17_31
REMARK   13  A    between atoms: C17_31  and  C19_33
REMARK   14  A    between atoms: C20_34  and  C21_35
REMARK   15  A    between atoms: C24_38  and  O8_39
ROOT
HETATM    1  C7  UNL     1       4.811  -0.554  43.475  1.00  0.00     0.166 C
HETATM    2  C8  UNL     1       5.352   0.192  44.694  1.00  0.00     0.179 C
HETATM    3  C9  UNL     1       6.618   0.815  44.222  1.00  0.00     0.178 C
HETATM    4  C10 UNL     1       6.682   0.582  42.729  1.00  0.00     0.159 C
HETATM    5  C11 UNL     1       5.180   0.455  42.420  1.00  0.00     0.071 C
ENDROOT
BRANCH   5   6
HETATM    6  C12 UNL     1       4.939   0.062  41.039  1.00  0.00    -0.018 C
HETATM    7  C13 UNL     1       4.609   0.846  40.035  1.00  0.00     0.003 C
BRANCH   7   8
HETATM    8  C14 UNL     1       4.422   2.345  40.164  1.00  0.00     0.169 C
BRANCH   8   9
HETATM    9  C15 UNL     1       2.938   2.554  40.255  1.00  0.00     0.211 C
BRANCH   9  10
HETATM   10  O6  UNL     1       2.146   2.243  39.239  1.00  0.00    -0.349 OA
BRANCH  10  11
HETATM   11  C16 UNL     1       1.378   3.091  38.556  1.00  0.00     0.218 C
HETATM   12 CL1  UNL     1       0.603   2.575  37.074  1.00  0.00    -0.071 Cl
ENDBRANCH  10  11
ENDBRANCH   9  10
ENDBRANCH   8   9
BRANCH   8  13
HETATM   13  O7  UNL     1       5.026   2.993  39.119  1.00  0.00    -0.371 OA
BRANCH  13  14
HETATM   14  C17 UNL     1       5.345   2.327  37.993  1.00  0.00     0.141 C
HETATM   15  C18 UNL     1       6.841   2.518  37.752  1.00  0.00     0.044 C
BRANCH  14  16
HETATM   16  C19 UNL     1       4.648   2.943  36.819  1.00  0.00     0.004 C
HETATM   17  C20 UNL     1       4.073   2.233  35.879  1.00  0.00    -0.002 C
BRANCH  17  18
HETATM   18  C21 UNL     1       3.409   2.911  34.759  1.00  0.00    -0.005 C
HETATM   19  C22 UNL     1       2.754   2.229  33.834  1.00  0.00    -0.031 C
HETATM   20  C23 UNL     1       2.670   0.733  33.902  1.00  0.00     0.036 C
ENDBRANCH  17  18
ENDBRANCH  14  16
ENDBRANCH  13  14
ENDBRANCH   8  13
ENDBRANCH   7   8
ENDBRANCH   5   6
BRANCH   1  21
HETATM   21  O2  UNL     1       5.488  -1.707  43.220  1.00  0.00    -0.350 OA
BRANCH  21  22
HETATM   22  C6  UNL     1       5.353  -2.713  44.139  1.00  0.00     0.295 C
HETATM   23  O1  UNL     1       6.545  -2.672  44.917  1.00  0.00    -0.332 OA
HETATM   24  C5  UNL     1       6.310  -2.825  46.259  1.00  0.00     0.403 C
HETATM   25  N1  UNL     1       6.505  -4.183  46.722  1.00  0.00    -0.046 N
HETATM   26  C3  UNL     1       5.604  -5.111  46.049  1.00  0.00     0.215 C
ATOM     27  H12 UNL     1       6.418  -4.247  47.736  1.00  0.00     0.280 HD
ATOM     28  H11 UNL     1       7.479  -4.473  46.628  1.00  0.00     0.280 HD
HETATM   29  C2  UNL     1       5.884  -5.019  44.599  1.00  0.00    -0.026 C
HETATM   30  C4  UNL     1       5.779  -6.477  46.627  1.00  0.00     0.045 C
HETATM   31  C1  UNL     1       6.793  -5.869  44.155  1.00  0.00     0.019 C
HETATM   32  C24 UNL     1       5.289  -4.109  43.587  1.00  0.00     0.203 C
BRANCH  32  33
HETATM   33  O8  UNL     1       3.969  -4.524  43.360  1.00  0.00    -0.386 OA
ATOM     34  H8  UNL     1       3.392  -3.926  43.820  1.00  0.00     0.210 HD
ENDBRANCH  32  33
ENDBRANCH  21  22
ENDBRANCH   1  21
BRANCH   4  35
HETATM   35  O5  UNL     1       7.244   1.645  42.045  1.00  0.00    -0.392 OA
ATOM     36  H5  UNL     1       6.595   2.267  41.739  1.00  0.00     0.210 HD
ENDBRANCH   4  35
BRANCH   2  37
HETATM   37  O3  UNL     1       4.402   1.162  45.008  1.00  0.00    -0.390 OA
ATOM     38  H3  UNL     1       4.715   1.594  45.794  1.00  0.00     0.210 HD
ENDBRANCH   2  37
BRANCH   3  39
HETATM   39  O4  UNL     1       7.749   0.381  44.878  1.00  0.00    -0.390 OA
ATOM     40  H4  UNL     1       8.385   1.062  45.061  1.00  0.00     0.210 HD
ENDBRANCH   3  39
TORSDOF 15
ENDMDL