MODEL 5
REMARK VINA RESULT: -8.464922515      3.179      9.899
REMARK  12 active torsions:
REMARK  status: ('A' for Active; 'I' for Inactive)
REMARK    1  A    between atoms: C2_2  and  C3_3
REMARK    2  A    between atoms: C3_3  and  C5_5
REMARK    3  A    between atoms: C5_5  and  N1_6
REMARK    4  A    between atoms: C5_5  and  C7_10
REMARK       I    between atoms: C7_10  and  N2_12
REMARK    5  A    between atoms: N2_12  and  C8_14
REMARK    6  A    between atoms: C9_17  and  N4_18
REMARK    7  A    between atoms: N4_18  and  C10_20
REMARK    8  A    between atoms: C10_20  and  C11_21
REMARK    9  A    between atoms: C11_21  and  N5_22
REMARK   10  A    between atoms: N5_22  and  C12_24
REMARK   11  A    between atoms: C13_27  and  O2_28
REMARK   12  A    between atoms: C18_36  and  N8_37
ROOT
HETATM    1  C8  UNL     1       4.589  -3.734  43.338  1.00  0.00     0.132 A
HETATM    2  N3  UNL     1       5.277  -2.797  42.691  1.00  0.00    -0.325 N
ATOM      3  H3  UNL     1       6.266  -2.970  42.513  1.00  0.00     0.169 HD
HETATM    4  C9  UNL     1       4.740  -1.603  42.244  1.00  0.00     0.142 A
HETATM    5  C18 UNL     1       3.409  -1.404  42.502  1.00  0.00     0.172 A
HETATM    6  C19 UNL     1       2.648  -2.364  43.179  1.00  0.00     0.107 A
HETATM    7  N9  UNL     1       1.250  -2.130  43.435  1.00  0.00    -0.098 NA
HETATM    8  C20 UNL     1       3.233  -3.518  43.593  1.00  0.00     0.115 A
HETATM    9  C21 UNL     1       2.415  -4.473  44.284  1.00  0.00     0.105 C
HETATM   10  N10 UNL     1       1.767  -5.248  44.852  1.00  0.00    -0.191 NA
ENDROOT
BRANCH   1  11
HETATM   11  N2  UNL     1       5.107  -4.968  43.822  1.00  0.00    -0.310 N
HETATM   12  C7  UNL     1       6.340  -5.153  44.408  1.00  0.00     0.254 C
HETATM   13  O1  UNL     1       7.160  -4.189  44.540  1.00  0.00    -0.271 OA
ATOM     14  H2  UNL     1       4.512  -5.791  43.727  1.00  0.00     0.170 HD
BRANCH  12  15
HETATM   15  C5  UNL     1       6.930  -6.436  44.962  1.00  0.00     0.280 C
BRANCH  15  16
HETATM   16  C3  UNL     1       6.413  -6.886  46.246  1.00  0.00     0.021 C
HETATM   17  C4  UNL     1       6.357  -5.909  47.372  1.00  0.00     0.012 C
BRANCH  16  18
HETATM   18  C2  UNL     1       5.100  -7.657  46.200  1.00  0.00     0.002 C
HETATM   19  C1  UNL     1       4.010  -7.001  46.993  1.00  0.00     0.005 C
ENDBRANCH  16  18
ENDBRANCH  15  16
BRANCH  15  20
HETATM   20  N1  UNL     1       6.853  -7.406  43.861  1.00  0.00    -0.066 N
HETATM   21  C6  UNL     1       7.836  -7.176  42.857  1.00  0.00     0.267 C
ATOM     22  H12 UNL     1       6.904  -8.363  44.211  1.00  0.00     0.277 HD
ATOM     23  H11 UNL     1       5.916  -7.428  43.457  1.00  0.00     0.277 HD
ENDBRANCH  15  20
ENDBRANCH  12  15
ENDBRANCH   1  11
BRANCH   5  24
HETATM   24  N8  UNL     1       2.723  -0.247  42.102  1.00  0.00    -0.110 N
HETATM   25  O3  UNL     1       2.916   0.828  42.676  1.00  0.00    -0.532 OA
HETATM   26  O4  UNL     1       1.812  -0.309  41.089  1.00  0.00    -0.532 OA
ENDBRANCH   5  24
BRANCH   4  27
HETATM   27  N4  UNL     1       5.465  -0.815  41.656  1.00  0.00    -0.352 N
ATOM     28  H4  UNL     1       5.279  -0.980  40.667  1.00  0.00     0.166 HD
BRANCH  27  29
HETATM   29  C10 UNL     1       6.395   0.172  41.673  1.00  0.00     0.082 C
BRANCH  29  30
HETATM   30  C11 UNL     1       5.944   1.555  41.156  1.00  0.00     0.165 C
BRANCH  30  31
HETATM   31  N5  UNL     1       5.059   1.323  40.099  1.00  0.00    -0.371 N
ATOM     32  H5  UNL     1       5.082   0.335  39.848  1.00  0.00     0.161 HD
BRANCH  31  33
HETATM   33  C12 UNL     1       4.265   1.908  39.373  1.00  0.00     0.114 A
HETATM   34  N6  UNL     1       2.977   2.101  39.816  1.00  0.00    -0.308 N
HETATM   35  C13 UNL     1       2.045   2.728  39.099  1.00  0.00     0.226 A
ATOM     36  H6  UNL     1       2.723   1.745  40.737  1.00  0.00     0.171 HD
HETATM   37  N7  UNL     1       2.344   3.206  37.889  1.00  0.00    -0.298 N
HETATM   38  C15 UNL     1       3.564   3.061  37.391  1.00  0.00     0.201 A
ATOM     39  H7  UNL     1       1.629   3.686  37.344  1.00  0.00     0.171 HD
HETATM   40  F1  UNL     1       3.841   3.559  36.154  1.00  0.00    -0.185 F
HETATM   41  C16 UNL     1       4.554   2.403  38.133  1.00  0.00     0.038 A
HETATM   42  C17 UNL     1       5.898   2.285  37.484  1.00  0.00     0.057 C
BRANCH  35  43
HETATM   43  O2  UNL     1       0.743   2.920  39.551  1.00  0.00    -0.327 OA
HETATM   44  C14 UNL     1      -0.368   2.291  38.925  1.00  0.00     0.213 C
ENDBRANCH  35  43
ENDBRANCH  31  33
ENDBRANCH  30  31
ENDBRANCH  29  30
ENDBRANCH  27  29
ENDBRANCH   4  27
TORSDOF 12
ENDMDL