MODEL 2
REMARK VINA RESULT: -8.619160057      4.574      9.415
REMARK  14 active torsions:
REMARK  status: ('A' for Active; 'I' for Inactive)
REMARK    1  A    between atoms: C2_2  and  O1_3
REMARK    2  A    between atoms: O1_3  and  C3_4
REMARK    3  A    between atoms: C3_4  and  C4_6
REMARK    4  A    between atoms: C6_8  and  C7_9
REMARK    5  A    between atoms: C7_9  and  N1_10
REMARK    6  A    between atoms: N1_10  and  N2_11
REMARK       I    between atoms: N2_11  and  C8_13
REMARK    7  A    between atoms: C8_13  and  C9_15
REMARK    8  A    between atoms: C9_15  and  C10_16
REMARK    9  A    between atoms: C9_15  and  N4_20
REMARK   10  A    between atoms: C10_16  and  C11_17
REMARK   11  A    between atoms: N4_20  and  N5_22
REMARK   12  A    between atoms: N5_22  and  C12_24
REMARK   13  A    between atoms: C12_24  and  C13_26
REMARK       I    between atoms: C13_26  and  N6_28
REMARK   14  A    between atoms: N6_28  and  C14_30
ROOT
HETATM    1  C9  UNL     1       2.354  -0.020  42.979  1.00  0.00     0.103 C
ENDROOT
BRANCH   1   2
HETATM    2  C8  UNL     1       1.856   0.770  41.805  1.00  0.00     0.294 C
HETATM    3  N2  UNL     1       1.842   2.194  41.817  1.00  0.00    -0.198 N
ATOM      4  H2  UNL     1       2.193   2.672  42.646  1.00  0.00     0.205 HD
HETATM    5  O3  UNL     1       1.435   0.190  40.779  1.00  0.00    -0.264 OA
BRANCH   3   6
HETATM    6  N1  UNL     1       1.407   2.917  40.830  1.00  0.00    -0.335 NA
BRANCH   6   7
HETATM    7  C7  UNL     1       1.010   3.527  39.886  1.00  0.00     0.223 C
BRANCH   7   8
HETATM    8  C6  UNL     1       1.050   3.027  38.466  1.00  0.00     0.027 A
HETATM    9  C5  UNL     1       2.018   3.363  37.600  1.00  0.00     0.041 A
HETATM   10  C4  UNL     1       1.955   2.842  36.338  1.00  0.00     0.082 A
HETATM   11  S1  UNL     1       0.546   1.890  36.386  1.00  0.00    -0.068 SA
HETATM   12  C20 UNL     1       0.074   2.184  38.014  1.00  0.00     0.100 A
HETATM   13  N7  UNL     1      -1.081   1.649  38.701  1.00  0.00    -0.093 NA
BRANCH  10  14
HETATM   14  C3  UNL     1       2.874   3.045  35.213  1.00  0.00     0.300 C
HETATM   15  O2  UNL     1       3.005   4.151  34.679  1.00  0.00    -0.259 OA
BRANCH  14  16
HETATM   16  O1  UNL     1       3.601   1.966  34.751  1.00  0.00    -0.317 OA
BRANCH  16  17
HETATM   17  C2  UNL     1       3.542   1.588  33.409  1.00  0.00     0.174 C
HETATM   18  C1  UNL     1       2.146   1.375  32.884  1.00  0.00     0.034 C
ENDBRANCH  16  17
ENDBRANCH  14  16
ENDBRANCH  10  14
ENDBRANCH   7   8
ENDBRANCH   6   7
ENDBRANCH   3   6
ENDBRANCH   1   2
BRANCH   1  19
HETATM   19  C10 UNL     1       1.344  -0.349  44.008  1.00  0.00     0.164 C
BRANCH  19  20
HETATM   20  C11 UNL     1       0.867  -1.711  44.057  1.00  0.00     0.236 C
HETATM   21  N3  UNL     1      -0.231  -2.056  44.917  1.00  0.00    -0.062 NA
HETATM   22  O4  UNL     1       1.403  -2.627  43.346  1.00  0.00    -0.277 OA
ENDBRANCH  19  20
ENDBRANCH   1  19
BRANCH   1  23
HETATM   23  N4  UNL     1       3.528  -0.338  43.022  1.00  0.00    -0.301 N
ATOM     24  H4  UNL     1       4.056   0.534  43.047  1.00  0.00     0.186 HD
BRANCH  23  25
HETATM   25  N5  UNL     1       4.430  -1.313  43.052  1.00  0.00    -0.308 N
ATOM     26  H5  UNL     1       4.149  -2.293  43.002  1.00  0.00     0.182 HD
BRANCH  25  27
HETATM   27  C12 UNL     1       5.869  -0.924  43.161  1.00  0.00     0.286 C
HETATM   28 CL1  UNL     1       6.244  -0.513  44.839  1.00  0.00    -0.091 Cl
BRANCH  27  29
HETATM   29  C13 UNL     1       6.065   0.254  42.271  1.00  0.00     0.257 C
HETATM   30  O5  UNL     1       6.095   1.378  42.885  1.00  0.00    -0.270 OA
HETATM   31  N6  UNL     1       6.212   0.259  40.892  1.00  0.00    -0.354 N
ATOM     32  H6  UNL     1       6.181  -0.644  40.420  1.00  0.00     0.163 HD
BRANCH  31  33
HETATM   33  C14 UNL     1       6.405   1.415  40.069  1.00  0.00     0.084 C
HETATM   34  C15 UNL     1       5.018   1.808  39.564  1.00  0.00     0.025 C
HETATM   35  C16 UNL     1       5.112   2.880  38.503  1.00  0.00     0.002 C
HETATM   36  C17 UNL     1       6.016   2.507  37.374  1.00  0.00     0.000 C
HETATM   37  C18 UNL     1       7.411   2.261  37.968  1.00  0.00     0.002 C
HETATM   38  C19 UNL     1       7.251   1.055  38.888  1.00  0.00     0.025 C
ENDBRANCH  31  33
ENDBRANCH  27  29
ENDBRANCH  25  27
ENDBRANCH  23  25
ENDBRANCH   1  23
TORSDOF 14
ENDMDL