MODEL 2
REMARK VINA RESULT: -6.884697256      0.922      1.838
REMARK  17 active torsions:
REMARK  status: ('A' for Active; 'I' for Inactive)
REMARK    1  A    between atoms: C2_2  and  O2_4
REMARK    2  A    between atoms: O2_4  and  C3_5
REMARK    3  A    between atoms: C3_5  and  C4_6
REMARK    4  A    between atoms: C4_6  and  C6_8
REMARK    5  A    between atoms: C6_8  and  O3_9
REMARK    6  A    between atoms: O3_9  and  C7_10
REMARK    7  A    between atoms: C7_10  and  C8_12
REMARK    8  A    between atoms: C8_12  and  C9_13
REMARK    9  A    between atoms: C9_13  and  C10_14
REMARK   10  A    between atoms: C12_17  and  O5_18
REMARK   11  A    between atoms: O5_18  and  C13_19
REMARK   12  A    between atoms: C16_23  and  O7_24
REMARK   13  A    between atoms: C17_26  and  C18_27
REMARK   14  A    between atoms: C18_27  and  O8_29
REMARK   15  A    between atoms: C18_27  and  C20_31
REMARK   16  A    between atoms: C21_34  and  C23_36
REMARK   17  A    between atoms: C23_36  and  O11_37
ROOT
HETATM    1  C8  UNL     1       3.809  -2.329  45.216  1.00  0.00     0.087 C
HETATM    2  C12 UNL     1       3.980  -1.319  46.318  1.00  0.00     0.153 C
HETATM    3  C15 UNL     1       3.626   0.086  45.891  1.00  0.00     0.066 C
HETATM    4  C16 UNL     1       4.527   0.491  44.753  1.00  0.00     0.129 C
HETATM    5  C17 UNL     1       5.169  -0.672  44.041  1.00  0.00     0.071 C
HETATM    6  C21 UNL     1       4.150  -1.754  43.854  1.00  0.00     0.006 C
HETATM    7  C22 UNL     1       4.688  -2.937  43.050  1.00  0.00     0.019 C
ENDROOT
BRANCH   1   8
HETATM    8  C7  UNL     1       4.799  -3.441  45.500  1.00  0.00     0.271 C
HETATM    9  O4  UNL     1       6.003  -3.212  45.735  1.00  0.00    -0.264 OA
BRANCH   8  10
HETATM   10  O3  UNL     1       4.453  -4.785  45.517  1.00  0.00    -0.320 OA
BRANCH  10  11
HETATM   11  C6  UNL     1       4.640  -5.612  46.647  1.00  0.00     0.185 C
BRANCH  11  12
HETATM   12  C4  UNL     1       5.011  -7.015  46.116  1.00  0.00     0.030 C
HETATM   13  C5  UNL     1       4.176  -8.020  46.804  1.00  0.00     0.014 C
BRANCH  12  14
HETATM   14  C3  UNL     1       6.470  -7.215  46.125  1.00  0.00     0.185 C
BRANCH  14  15
HETATM   15  O2  UNL     1       7.341  -6.186  46.081  1.00  0.00    -0.321 OA
BRANCH  15  16
HETATM   16  C2  UNL     1       8.281  -5.743  46.939  1.00  0.00     0.254 C
HETATM   17  C1  UNL     1       7.917  -4.744  48.025  1.00  0.00     0.126 C
HETATM   18  O1  UNL     1       9.465  -6.128  46.877  1.00  0.00    -0.266 OA
ENDBRANCH  15  16
ENDBRANCH  14  15
ENDBRANCH  12  14
ENDBRANCH  11  12
ENDBRANCH  10  11
ENDBRANCH   8  10
ENDBRANCH   1   8
BRANCH   1  19
HETATM   19  C9  UNL     1       2.476  -2.996  45.236  1.00  0.00     0.051 C
BRANCH  19  20
HETATM   20  C10 UNL     1       1.294  -2.197  45.532  1.00  0.00    -0.013 C
HETATM   21  C11 UNL     1       0.103  -2.545  45.053  1.00  0.00     0.080 C
HETATM   22 CL1  UNL     1      -1.377  -1.678  45.337  1.00  0.00    -0.097 Cl
ENDBRANCH  19  20
ENDBRANCH   1  19
BRANCH   2  23
HETATM   23  O5  UNL     1       3.407  -1.704  47.508  1.00  0.00    -0.315 OA
BRANCH  23  24
HETATM   24  C13 UNL     1       3.986  -1.787  48.755  1.00  0.00     0.255 C
HETATM   25  C14 UNL     1       4.787  -2.932  49.246  1.00  0.00     0.126 C
HETATM   26  O6  UNL     1       3.785  -0.803  49.474  1.00  0.00    -0.266 OA
ENDBRANCH  23  24
ENDBRANCH   2  23
BRANCH   6  27
HETATM   27  C23 UNL     1       2.972  -1.317  43.021  1.00  0.00     0.175 C
BRANCH  27  28
HETATM   28  O11 UNL     1       2.679  -2.153  41.948  1.00  0.00    -0.400 OA
ATOM     29  H11 UNL     1       2.790  -1.754  41.093  1.00  0.00     0.209 HD
ENDBRANCH  27  28
ENDBRANCH   6  27
BRANCH   5  30
HETATM   30  C18 UNL     1       6.126  -0.337  42.981  1.00  0.00     0.148 C
HETATM   31  C19 UNL     1       5.701   0.090  41.645  1.00  0.00     0.058 C
BRANCH  30  32
HETATM   32  O8  UNL     1       7.054  -1.408  42.766  1.00  0.00    -0.379 OA
ATOM     33  H8  UNL     1       7.901  -1.076  42.490  1.00  0.00     0.211 HD
ENDBRANCH  30  32
BRANCH  30  34
HETATM   34  C20 UNL     1       7.048   0.729  43.484  1.00  0.00     0.209 C
HETATM   35  O9  UNL     1       7.670   0.616  44.598  1.00  0.00    -0.646 OA
HETATM   36  O10 UNL     1       7.330   1.914  42.826  1.00  0.00    -0.646 OA
ENDBRANCH  30  34
ENDBRANCH   5  30
BRANCH   4  37
HETATM   37  O7  UNL     1       3.870   1.384  43.915  1.00  0.00    -0.395 OA
ATOM     38  H7  UNL     1       3.895   2.260  44.283  1.00  0.00     0.210 HD
ENDBRANCH   4  37
TORSDOF 17
ENDMDL