MODEL 1
REMARK VINA RESULT: -7.897214112      0.000      0.000
REMARK  11 active torsions:
REMARK  status: ('A' for Active; 'I' for Inactive)
REMARK    1  A    between atoms: C2_2  and  N1_3
REMARK       I    between atoms: N1_3  and  C3_5
REMARK       I    between atoms: C3_5  and  N2_7
REMARK    2  A    between atoms: N2_7  and  S1_9
REMARK    3  A    between atoms: S1_9  and  C4_11
REMARK    4  A    between atoms: C4_11  and  C5_12
REMARK    5  A    between atoms: C4_11  and  C11_27
REMARK    6  A    between atoms: C7_17  and  N4_18
REMARK       I    between atoms: N4_18  and  C8_20
REMARK    7  A    between atoms: C13_29  and  C14_30
REMARK    8  A    between atoms: C14_30  and  N7_32
REMARK    9  A    between atoms: N7_32  and  C15_35
REMARK   10  A    between atoms: C15_35  and  C16_36
REMARK   11  A    between atoms: C16_36  and  O5_37
ROOT
HETATM    1  C4  UNL     1       4.648   1.286  41.655  1.00  0.00     0.208 C
ENDROOT
BRANCH   1   2
HETATM    2  S1  UNL     1       5.993   0.112  41.434  1.00  0.00     0.135 S
HETATM    3  O2  UNL     1       7.252   0.793  40.927  1.00  0.00    -0.234 OA
BRANCH   2   4
HETATM    4  N2  UNL     1       6.390  -0.647  42.955  1.00  0.00    -0.257 N
HETATM    5  C3  UNL     1       5.917  -1.956  43.265  1.00  0.00     0.327 C
HETATM    6  N1  UNL     1       6.282  -2.503  44.523  1.00  0.00    -0.343 N
HETATM    7  O1  UNL     1       5.196  -2.603  42.441  1.00  0.00    -0.246 OA
ATOM      8  H1  UNL     1       6.861  -1.974  45.174  1.00  0.00     0.164 HD
ATOM      9  H2  UNL     1       6.969  -0.147  43.631  1.00  0.00     0.181 HD
BRANCH   6  10
HETATM   10  C2  UNL     1       5.811  -3.830  44.857  1.00  0.00     0.120 C
HETATM   11  C1  UNL     1       6.873  -4.870  44.512  1.00  0.00     0.026 C
ENDBRANCH   6  10
ENDBRANCH   2   4
ENDBRANCH   1   2
BRANCH   1  12
HETATM   12  C5  UNL     1       3.530   0.570  42.319  1.00  0.00     0.108 A
HETATM   13  N3  UNL     1       3.096  -0.622  41.917  1.00  0.00    -0.310 N
HETATM   14  C6  UNL     1       2.065  -1.224  42.569  1.00  0.00     0.277 A
ATOM     15  H3  UNL     1       3.536  -1.083  41.121  1.00  0.00     0.170 HD
HETATM   16  O3  UNL     1       1.640  -2.341  42.211  1.00  0.00    -0.266 OA
HETATM   17  C7  UNL     1       1.451  -0.627  43.647  1.00  0.00     0.145 A
HETATM   18  C10 UNL     1       1.915   0.603  44.046  1.00  0.00     0.150 A
HETATM   19  N5  UNL     1       1.292   1.242  45.151  1.00  0.00    -0.080 NA
HETATM   20  N6  UNL     1       2.928   1.155  43.377  1.00  0.00    -0.331 N
ATOM     21  H6  UNL     1       3.267   2.068  43.681  1.00  0.00     0.168 HD
BRANCH  17  22
HETATM   22  N4  UNL     1       0.388  -1.276  44.305  1.00  0.00    -0.320 N
HETATM   23  C8  UNL     1       0.608  -2.164  45.383  1.00  0.00     0.218 C
HETATM   24  C9  UNL     1      -0.472  -2.865  46.101  1.00  0.00     0.117 C
HETATM   25  O4  UNL     1       1.794  -2.372  45.759  1.00  0.00    -0.274 OA
ATOM     26  H4  UNL     1      -0.568  -1.101  43.995  1.00  0.00     0.169 HD
ENDBRANCH  17  22
ENDBRANCH   1  12
BRANCH   1  27
HETATM   27  C11 UNL     1       4.231   1.857  40.330  1.00  0.00     0.008 A
HETATM   28  C12 UNL     1       4.872   1.758  39.124  1.00  0.00     0.028 A
HETATM   29  C13 UNL     1       4.308   2.357  38.068  1.00  0.00     0.010 A
HETATM   30  C18 UNL     1       3.130   3.026  38.286  1.00  0.00     0.061 A
HETATM   31  S2  UNL     1       2.854   2.789  39.955  1.00  0.00    -0.104 SA
BRANCH  29  32
HETATM   32  C14 UNL     1       4.917   2.314  36.697  1.00  0.00     0.401 C
HETATM   33  F1  UNL     1       6.228   2.711  36.794  1.00  0.00    -0.214 F
BRANCH  32  34
HETATM   34  N7  UNL     1       4.174   3.245  35.848  1.00  0.00    -0.038 N
ATOM     35  H72 UNL     1       3.438   3.713  36.378  1.00  0.00     0.281 HD
ATOM     36  H71 UNL     1       4.746   4.053  35.606  1.00  0.00     0.281 HD
BRANCH  34  37
HETATM   37  C15 UNL     1       3.639   2.623  34.669  1.00  0.00     0.262 C
BRANCH  37  38
HETATM   38  C16 UNL     1       2.151   2.618  34.702  1.00  0.00     0.194 C
BRANCH  38  39
HETATM   39  O5  UNL     1       1.673   2.697  33.373  1.00  0.00    -0.394 OA
HETATM   40  C17 UNL     1       2.231   1.640  32.678  1.00  0.00     0.201 C
ENDBRANCH  38  39
ENDBRANCH  37  38
ENDBRANCH  34  37
ENDBRANCH  32  34
ENDBRANCH  29  32
ENDBRANCH   1  27
TORSDOF 11
ENDMDL