MODEL 2
REMARK VINA RESULT: -8.487206340      0.381      1.187
REMARK  11 active torsions:
REMARK  status: ('A' for Active; 'I' for Inactive)
REMARK    1  A    between atoms: C2_2  and  N1_3
REMARK    2  A    between atoms: N1_3  and  C3_4
REMARK    3  A    between atoms: N1_3  and  C5_6
REMARK    4  A    between atoms: C5_6  and  C6_7
REMARK    5  A    between atoms: C6_7  and  N2_8
REMARK    6  A    between atoms: C6_7  and  C8_12
REMARK    7  A    between atoms: C9_15  and  C10_16
REMARK       I    between atoms: C10_16  and  N5_18
REMARK    8  A    between atoms: N5_18  and  N6_20
REMARK       I    between atoms: N6_20  and  C11_22
REMARK    9  A    between atoms: C11_22  and  C12_24
REMARK   10  A    between atoms: C20_36  and  N10_37
REMARK   11  A    between atoms: C21_42  and  C22_43
ROOT
HETATM    1  N2  UNL     1       2.675   4.902  38.750  1.00  0.00    -0.290 N
ATOM      2  H2  UNL     1       2.960   5.303  37.857  1.00  0.00     0.178 HD
HETATM    3  C7  UNL     1       2.485   5.738  39.854  1.00  0.00     0.182 C
HETATM    4  N3  UNL     1       2.342   6.447  40.753  1.00  0.00    -0.172 NA
ENDROOT
BRANCH   1   5
HETATM    5  C6  UNL     1       2.475   3.499  38.857  1.00  0.00     0.085 C
BRANCH   5   6
HETATM    6  C5  UNL     1       1.399   2.906  38.045  1.00  0.00     0.118 C
BRANCH   6   7
HETATM    7  N1  UNL     1       0.271   2.408  38.676  1.00  0.00    -0.389 N
BRANCH   7   8
HETATM    8  C2  UNL     1      -0.438   3.204  39.614  1.00  0.00     0.118 C
HETATM    9  C1  UNL     1      -0.976   4.481  38.898  1.00  0.00     0.026 C
ENDBRANCH   7   8
BRANCH   7  10
HETATM   10  C3  UNL     1      -0.603   1.608  37.870  1.00  0.00     0.118 C
HETATM   11  C4  UNL     1      -0.231   1.644  36.382  1.00  0.00     0.026 C
ENDBRANCH   7  10
ENDBRANCH   6   7
ENDBRANCH   5   6
BRANCH   5  12
HETATM   12  C8  UNL     1       3.651   2.672  39.201  1.00  0.00     0.086 A
HETATM   13  N4  UNL     1       3.768   2.001  40.399  1.00  0.00    -0.345 N
HETATM   14  C9  UNL     1       4.856   1.395  40.838  1.00  0.00     0.147 A
ATOM     15  H4  UNL     1       2.943   1.969  40.999  1.00  0.00     0.166 HD
HETATM   16  C20 UNL     1       5.995   1.417  40.039  1.00  0.00     0.132 A
HETATM   17  N11 UNL     1       5.929   2.042  38.883  1.00  0.00    -0.341 N
HETATM   18  C21 UNL     1       4.782   2.676  38.431  1.00  0.00     0.054 A
ATOM     19  H11 UNL     1       6.760   2.061  38.292  1.00  0.00     0.167 HD
BRANCH  14  20
HETATM   20  C10 UNL     1       4.936   0.650  42.089  1.00  0.00     0.290 C
HETATM   21  O1  UNL     1       5.399   1.186  43.125  1.00  0.00    -0.264 OA
HETATM   22  N5  UNL     1       4.510  -0.699  42.206  1.00  0.00    -0.262 N
ATOM     23  H5  UNL     1       4.164  -1.150  41.359  1.00  0.00     0.190 HD
BRANCH  22  24
HETATM   24  N6  UNL     1       4.520  -1.457  43.362  1.00  0.00    -0.265 N
HETATM   25  C11 UNL     1       5.728  -2.090  43.814  1.00  0.00     0.266 C
HETATM   26  O2  UNL     1       6.783  -1.922  43.128  1.00  0.00    -0.269 OA
ATOM     27  H6  UNL     1       3.660  -1.569  43.899  1.00  0.00     0.190 HD
BRANCH  25  28
HETATM   28  C12 UNL     1       5.714  -2.908  45.035  1.00  0.00     0.190 C
HETATM   29  C13 UNL     1       4.324  -3.102  45.483  1.00  0.00     0.087 C
HETATM   30  N7  UNL     1       3.234  -3.278  45.831  1.00  0.00    -0.195 NA
HETATM   31  C14 UNL     1       6.514  -2.207  46.128  1.00  0.00     0.063 C
HETATM   32  C15 UNL     1       6.678  -3.382  47.103  1.00  0.00     0.132 C
HETATM   33  N8  UNL     1       6.983  -4.471  46.181  1.00  0.00    -0.343 N
HETATM   34  C16 UNL     1       7.602  -5.645  46.067  1.00  0.00     0.116 A
HETATM   35  C19 UNL     1       6.431  -4.184  44.957  1.00  0.00     0.116 A
HETATM   36  C17 UNL     1       7.459  -6.128  44.783  1.00  0.00     0.022 A
HETATM   37  C18 UNL     1       8.046  -7.422  44.346  1.00  0.00     0.069 C
HETATM   38  N9  UNL     1       6.737  -5.213  44.124  1.00  0.00    -0.346 N
ATOM     39  H9  UNL     1       6.458  -5.278  43.144  1.00  0.00     0.167 HD
ENDBRANCH  25  28
ENDBRANCH  22  24
ENDBRANCH  14  20
BRANCH  16  40
HETATM   40  N10 UNL     1       7.106   0.841  40.358  1.00  0.00    -0.383 N
ATOM     41 2H10 UNL     1       7.299   0.684  41.347  1.00  0.00     0.157 HD
ATOM     42 1H10 UNL     1       7.808   0.550  39.678  1.00  0.00     0.157 HD
ENDBRANCH  16  40
BRANCH  18  43
HETATM   43  C22 UNL     1       4.844   3.239  37.094  1.00  0.00     0.174 C
HETATM   44 CL1  UNL     1       4.312   2.322  35.712  1.00  0.00    -0.124 Cl
ENDBRANCH  18  43
ENDBRANCH   5  12
ENDBRANCH   1   5
TORSDOF 11
ENDMDL