MODEL 3
REMARK VINA RESULT: -8.113990991      1.534      1.883
REMARK  15 active torsions:
REMARK  status: ('A' for Active; 'I' for Inactive)
REMARK    1  A    between atoms: C4_4  and  C5_5
REMARK    2  A    between atoms: C5_5  and  C6_6
REMARK    3  A    between atoms: C6_6  and  C7_11
REMARK    4  A    between atoms: N1_7  and  O1_9
REMARK    5  A    between atoms: C7_11  and  N2_12
REMARK    6  A    between atoms: C7_11  and  C10_20
REMARK    7  A    between atoms: N2_12  and  C8_14
REMARK    8  A    between atoms: C8_14  and  C9_15
REMARK    9  A    between atoms: C9_15  and  N3_16
REMARK   10  A    between atoms: C10_20  and  N4_21
REMARK   11  A    between atoms: C10_20  and  N5_24
REMARK   12  A    between atoms: N5_24  and  C11_26
REMARK   13  A    between atoms: C12_28  and  S2_29
REMARK   14  A    between atoms: C18_39  and  O3_40
REMARK   15  A    between atoms: O3_40  and  C19_41
ROOT
HETATM    1  C7  UNL     1       4.714  -0.564  44.291  1.00  0.00     0.097 C
ENDROOT
BRANCH   1   2
HETATM    2  C6  UNL     1       5.839  -0.533  43.367  1.00  0.00     0.066 C
HETATM    3  N1  UNL     1       6.985  -0.096  43.730  1.00  0.00    -0.271 N
ATOM      4  H1  UNL     1       7.762  -0.110  43.070  1.00  0.00     0.194 HD
BRANCH   2   5
HETATM    5  C5  UNL     1       5.653  -1.072  41.958  1.00  0.00     0.100 C
BRANCH   5   6
HETATM    6  C4  UNL     1       5.371   0.052  41.018  1.00  0.00    -0.049 A
HETATM    7  C3  UNL     1       6.352   0.491  40.147  1.00  0.00     0.017 A
HETATM    8  C2  UNL     1       6.128   1.522  39.267  1.00  0.00    -0.025 A
HETATM    9  C1  UNL     1       7.257   1.920  38.362  1.00  0.00     0.051 C
HETATM   10  C18 UNL     1       4.911   2.157  39.226  1.00  0.00     0.113 A
HETATM   11  C17 UNL     1       3.925   1.733  40.087  1.00  0.00     0.150 A
HETATM   12  C16 UNL     1       4.149   0.685  40.981  1.00  0.00     0.052 A
HETATM   13  F1  UNL     1       2.704   2.352  40.061  1.00  0.00    -0.203 F
BRANCH  10  14
HETATM   14  O3  UNL     1       4.715   3.190  38.336  1.00  0.00    -0.343 OA
BRANCH  14  15
HETATM   15  C19 UNL     1       3.809   3.161  37.251  1.00  0.00     0.121 C
HETATM   16  C20 UNL     1       3.463   4.526  36.717  1.00  0.00     0.040 C
HETATM   17  C21 UNL     1       4.279   2.315  36.117  1.00  0.00     0.040 C
ENDBRANCH  14  15
ENDBRANCH  10  14
ENDBRANCH   5   6
ENDBRANCH   2   5
BRANCH   3  18
HETATM   18  O1  UNL     1       7.179   0.387  44.985  1.00  0.00    -0.290 OA
ATOM     19  H1  UNL     1       6.917   1.271  45.211  1.00  0.00     0.244 HD
ENDBRANCH   3  18
ENDBRANCH   1   2
BRANCH   1  20
HETATM   20  N2  UNL     1       4.462   0.711  44.891  1.00  0.00    -0.384 N
ATOM     21  H2  UNL     1       5.130   1.207  45.481  1.00  0.00     0.159 HD
BRANCH  20  22
HETATM   22  C8  UNL     1       3.139   1.216  44.556  1.00  0.00     0.147 C
BRANCH  22  23
HETATM   23  C9  UNL     1       2.475   1.950  45.691  1.00  0.00     0.249 C
BRANCH  23  24
HETATM   24  N3  UNL     1       3.188   1.936  46.923  1.00  0.00    -0.078 N
ATOM     25  H33 UNL     1       4.109   1.519  46.791  1.00  0.00     0.274 HD
ATOM     26  H32 UNL     1       3.457   2.885  47.183  1.00  0.00     0.274 HD
ATOM     27  H31 UNL     1       2.706   1.484  47.700  1.00  0.00     0.274 HD
ENDBRANCH  23  24
ENDBRANCH  22  23
ENDBRANCH  20  22
ENDBRANCH   1  20
BRANCH   1  28
HETATM   28  C10 UNL     1       4.633  -1.733  45.181  1.00  0.00     0.129 C
BRANCH  28  29
HETATM   29  N4  UNL     1       3.473  -2.230  45.445  1.00  0.00    -0.384 N
ATOM     30  H42 UNL     1       2.694  -2.120  44.796  1.00  0.00     0.157 HD
ATOM     31  H41 UNL     1       3.340  -2.720  46.329  1.00  0.00     0.157 HD
ENDBRANCH  28  29
BRANCH  28  32
HETATM   32  N5  UNL     1       5.774  -2.295  45.691  1.00  0.00    -0.321 N
ATOM     33  H5  UNL     1       6.292  -1.654  46.291  1.00  0.00     0.169 HD
BRANCH  32  34
HETATM   34  C11 UNL     1       6.340  -3.443  45.586  1.00  0.00     0.154 A
HETATM   35  S1  UNL     1       6.239  -4.467  44.173  1.00  0.00    -0.041 SA
HETATM   36  C12 UNL     1       7.186  -5.756  44.734  1.00  0.00     0.116 A
HETATM   37  C14 UNL     1       7.537  -5.337  45.987  1.00  0.00     0.146 A
HETATM   38  N6  UNL     1       8.378  -6.221  46.797  1.00  0.00    -0.080 NA
HETATM   39  N7  UNL     1       7.102  -4.173  46.395  1.00  0.00    -0.318 N
HETATM   40  C15 UNL     1       7.437  -3.647  47.748  1.00  0.00     0.159 C
BRANCH  36  41
HETATM   41  S2  UNL     1       7.626  -7.273  43.930  1.00  0.00     0.056 S
HETATM   42  C13 UNL     1       7.707  -7.033  42.172  1.00  0.00     0.133 C
HETATM   43  O2  UNL     1       9.072  -7.862  44.537  1.00  0.00    -0.252 OA
ENDBRANCH  36  41
ENDBRANCH  32  34
ENDBRANCH  28  32
ENDBRANCH   1  28
TORSDOF 15
ENDMDL