MODEL 4
REMARK VINA RESULT: -8.777693958      5.800     13.193
REMARK  11 active torsions:
REMARK  status: ('A' for Active; 'I' for Inactive)
REMARK    1  A    between atoms: C3_5  and  N2_6
REMARK    2  A    between atoms: C10_15  and  N4_16
REMARK    3  A    between atoms: N4_16  and  C11_18
REMARK    4  A    between atoms: C11_18  and  C12_19
REMARK    5  A    between atoms: C12_19  and  N5_20
REMARK    6  A    between atoms: N5_20  and  C14_22
REMARK    7  A    between atoms: C14_22  and  C15_23
REMARK    8  A    between atoms: C15_23  and  C16_24
REMARK    9  A    between atoms: C16_24  and  N6_25
REMARK   10  A    between atoms: N6_25  and  C17_27
REMARK   11  A    between atoms: C22_43  and  N12_44
ROOT
HETATM    1  C12 UNL     1       6.069   0.405  41.073  1.00  0.00     0.291 C
ENDROOT
BRANCH   1   2
HETATM    2  C11 UNL     1       5.528  -0.906  41.524  1.00  0.00     0.150 C
BRANCH   2   3
HETATM    3  N4  UNL     1       6.279  -1.441  42.615  1.00  0.00    -0.384 N
ATOM      4  H4  UNL     1       7.285  -1.519  42.468  1.00  0.00     0.159 HD
BRANCH   3   5
HETATM    5  C10 UNL     1       5.799  -1.877  43.879  1.00  0.00     0.106 A
HETATM    6  C9  UNL     1       5.573  -3.212  44.095  1.00  0.00     0.189 A
HETATM    7  C3  UNL     1       5.081  -3.716  45.308  1.00  0.00     0.145 A
HETATM    8  F1  UNL     1       5.779  -4.176  43.137  1.00  0.00    -0.200 F
HETATM    9  N1  UNL     1       4.834  -2.799  46.281  1.00  0.00    -0.342 N
HETATM   10  C2  UNL     1       5.039  -1.503  46.111  1.00  0.00     0.042 A
ATOM     11  H1  UNL     1       4.476  -3.123  47.179  1.00  0.00     0.167 HD
HETATM   12  C1  UNL     1       4.745  -0.564  47.220  1.00  0.00     0.071 C
HETATM   13  C22 UNL     1       5.523  -1.003  44.917  1.00  0.00     0.154 A
BRANCH   7  14
HETATM   14  N2  UNL     1       4.851  -5.091  45.512  1.00  0.00    -0.361 N
HETATM   15  C4  UNL     1       3.516  -5.622  45.664  1.00  0.00     0.154 C
HETATM   16  C5  UNL     1       3.586  -6.779  46.681  1.00  0.00     0.291 C
HETATM   17  N3  UNL     1       4.668  -6.572  47.602  1.00  0.00     0.087 N
HETATM   18  C6  UNL     1       4.617  -7.595  48.627  1.00  0.00     0.310 C
HETATM   19  C7  UNL     1       5.974  -6.529  47.026  1.00  0.00     0.291 C
HETATM   20  C8  UNL     1       5.953  -6.014  45.588  1.00  0.00     0.154 C
ENDBRANCH   7  14
BRANCH  13  21
HETATM   21  N12 UNL     1       5.720   0.387  44.771  1.00  0.00    -0.111 N
HETATM   22  O1  UNL     1       4.742   1.106  44.520  1.00  0.00    -0.532 OA
HETATM   23  O2  UNL     1       6.949   0.941  44.900  1.00  0.00    -0.532 OA
ENDBRANCH  13  21
ENDBRANCH   3   5
ENDBRANCH   2   3
ENDBRANCH   1   2
BRANCH   1  24
HETATM   24  N5  UNL     1       5.055   1.458  41.098  1.00  0.00     0.085 N
HETATM   25  C13 UNL     1       3.731   0.858  41.021  1.00  0.00     0.309 C
BRANCH  24  26
HETATM   26  C14 UNL     1       5.201   2.404  40.016  1.00  0.00     0.273 C
BRANCH  26  27
HETATM   27  C15 UNL     1       5.829   1.810  38.800  1.00  0.00     0.050 C
BRANCH  27  28
HETATM   28  C16 UNL     1       6.193   2.870  37.770  1.00  0.00     0.140 C
BRANCH  28  29
HETATM   29  N6  UNL     1       5.014   3.601  37.365  1.00  0.00    -0.226 N
ATOM     30  H6  UNL     1       4.868   4.542  37.731  1.00  0.00     0.177 HD
BRANCH  29  31
HETATM   31  C17 UNL     1       4.143   3.104  36.559  1.00  0.00     0.681 A
HETATM   32  N7  UNL     1       2.837   3.018  36.942  1.00  0.00    -0.175 N
HETATM   33  C18 UNL     1       1.880   2.521  36.165  1.00  0.00     0.145 A
ATOM     34  H7  UNL     1       2.582   3.353  37.871  1.00  0.00     0.186 HD
HETATM   35  N8  UNL     1       0.640   2.435  36.517  1.00  0.00    -0.383 N
HETATM   36  C19 UNL     1       2.196   2.059  34.894  1.00  0.00     0.122 A
ATOM     37  H82 UNL     1       0.408   2.775  37.450  1.00  0.00     0.157 HD
ATOM     38  H81 UNL     1      -0.095   2.054  35.921  1.00  0.00     0.157 HD
HETATM   39  N9  UNL     1       1.446   1.523  33.925  1.00  0.00    -0.346 N
HETATM   40  C21 UNL     1       3.512   2.138  34.491  1.00  0.00     0.152 A
HETATM   41  C20 UNL     1       2.302   1.264  32.902  1.00  0.00     0.182 A
ATOM     42  H9  UNL     1       0.442   1.346  33.948  1.00  0.00     0.167 HD
HETATM   43  N10 UNL     1       3.555   1.638  33.248  1.00  0.00    -0.336 N
ATOM     44  H10 UNL     1       4.387   1.554  32.664  1.00  0.00     0.168 HD
HETATM   45  N11 UNL     1       4.431   2.650  35.322  1.00  0.00    -0.174 N
ATOM     46  H11 UNL     1       5.398   2.698  35.001  1.00  0.00     0.186 HD
ENDBRANCH  29  31
ENDBRANCH  28  29
ENDBRANCH  27  28
ENDBRANCH  26  27
ENDBRANCH  24  26
ENDBRANCH   1  24
TORSDOF 11
ENDMDL