MODEL 3
REMARK VINA RESULT: -7.739628010      1.705      2.458
REMARK  14 active torsions:
REMARK  status: ('A' for Active; 'I' for Inactive)
REMARK    1  A    between atoms: C2_2  and  N1_3
REMARK    2  A    between atoms: N1_3  and  C3_5
REMARK    3  A    between atoms: C4_8  and  N3_9
REMARK    4  A    between atoms: C7_12  and  N4_13
REMARK    5  A    between atoms: C11_19  and  N6_20
REMARK    6  A    between atoms: N6_20  and  C12_22
REMARK    7  A    between atoms: C12_22  and  C13_23
REMARK    8  A    between atoms: C13_23  and  S1_24
REMARK    9  A    between atoms: S1_24  and  C14_25
REMARK   10  A    between atoms: C14_25  and  C15_26
REMARK   11  A    between atoms: C15_26  and  C16_27
REMARK   12  A    between atoms: C16_27  and  C17_28
REMARK   13  A    between atoms: C18_30  and  N7_31
REMARK   14  A    between atoms: C19_36  and  N9_37
ROOT
HETATM    1  C3  UNL     1       2.523  -1.601  42.488  1.00  0.00     0.707 A
HETATM    2  N2  UNL     1       2.974  -0.557  41.754  1.00  0.00    -0.021 N
ATOM      3  H2  UNL     1       2.338   0.192  41.479  1.00  0.00     0.203 HD
HETATM    4  C4  UNL     1       4.275  -0.519  41.391  1.00  0.00     0.709 A
HETATM    5  N5  UNL     1       5.042  -1.533  41.788  1.00  0.00    -0.021 N
ATOM      6  H5  UNL     1       6.025  -1.513  41.520  1.00  0.00     0.203 HD
HETATM    7  C11 UNL     1       4.616  -2.580  42.517  1.00  0.00     0.707 A
HETATM    8  N10 UNL     1       3.327  -2.614  42.875  1.00  0.00    -0.022 N
ATOM      9  H10 UNL     1       2.960  -3.388  43.427  1.00  0.00     0.203 HD
ENDROOT
BRANCH   7  10
HETATM   10  N6  UNL     1       5.441  -3.504  42.844  1.00  0.00    -0.224 N
ATOM     11  H6  UNL     1       5.735  -4.129  42.093  1.00  0.00     0.177 HD
BRANCH  10  12
HETATM   12  C12 UNL     1       5.997  -3.764  44.128  1.00  0.00     0.148 C
BRANCH  12  13
HETATM   13  C13 UNL     1       6.072  -2.540  45.014  1.00  0.00     0.094 C
BRANCH  13  14
HETATM   14  S1  UNL     1       5.861  -3.095  46.738  1.00  0.00    -0.167 SA
BRANCH  14  15
HETATM   15  C14 UNL     1       7.468  -3.337  47.530  1.00  0.00     0.074 C
BRANCH  15  16
HETATM   16  C15 UNL     1       7.633  -4.791  47.991  1.00  0.00     0.015 C
BRANCH  16  17
HETATM   17  C16 UNL     1       7.977  -5.577  46.775  1.00  0.00     0.051 C
BRANCH  17  18
HETATM   18  C17 UNL     1       6.917  -6.566  46.367  1.00  0.00     0.036 A
HETATM   19  S2  UNL     1       5.469  -6.978  47.188  1.00  0.00    -0.055 SA
HETATM   20  C18 UNL     1       4.854  -8.094  46.063  1.00  0.00     0.144 A
HETATM   21  N8  UNL     1       5.778  -8.108  45.108  1.00  0.00    -0.317 N
HETATM   22  C19 UNL     1       6.829  -7.348  45.236  1.00  0.00     0.189 A
ATOM     23  H8  UNL     1       5.666  -8.704  44.287  1.00  0.00     0.169 HD
BRANCH  20  24
HETATM   24  N7  UNL     1       3.736  -8.785  46.113  1.00  0.00    -0.380 N
ATOM     25  H72 UNL     1       2.822  -8.472  46.440  1.00  0.00     0.158 HD
ATOM     26  H71 UNL     1       3.569  -9.753  45.837  1.00  0.00     0.158 HD
ENDBRANCH  20  24
BRANCH  22  27
HETATM   27  N9  UNL     1       7.902  -7.338  44.246  1.00  0.00    -0.097 N
HETATM   28  O1  UNL     1       9.005  -7.849  44.468  1.00  0.00    -0.530 OA
HETATM   29  O2  UNL     1       7.729  -6.775  43.009  1.00  0.00    -0.530 OA
ENDBRANCH  22  27
ENDBRANCH  17  18
ENDBRANCH  16  17
ENDBRANCH  15  16
ENDBRANCH  14  15
ENDBRANCH  13  14
ENDBRANCH  12  13
ENDBRANCH  10  12
ENDBRANCH   7  10
BRANCH   4  30
HETATM   30  N3  UNL     1       4.801   0.549  40.620  1.00  0.00    -0.214 N
HETATM   31  C5  UNL     1       6.191   0.724  40.291  1.00  0.00     0.143 C
HETATM   32  C6  UNL     1       6.254   1.789  39.218  1.00  0.00     0.058 C
HETATM   33  C7  UNL     1       4.823   1.823  38.728  1.00  0.00     0.241 C
HETATM   34  C10 UNL     1       4.060   1.651  40.021  1.00  0.00     0.177 C
BRANCH  33  35
HETATM   35  N4  UNL     1       4.516   3.034  38.027  1.00  0.00     0.086 N
HETATM   36  C8  UNL     1       4.136   2.679  36.673  1.00  0.00     0.310 C
HETATM   37  C9  UNL     1       3.512   3.831  38.681  1.00  0.00     0.310 C
ENDBRANCH  33  35
ENDBRANCH   4  30
BRANCH   1  38
HETATM   38  N1  UNL     1       1.287  -1.670  42.851  1.00  0.00    -0.225 N
ATOM     39  H1  UNL     1       0.567  -1.744  42.134  1.00  0.00     0.177 HD
BRANCH  38  40
HETATM   40  C2  UNL     1       0.886  -1.648  44.239  1.00  0.00     0.133 C
HETATM   41  C1  UNL     1       0.884  -0.207  44.745  1.00  0.00     0.027 C
ENDBRANCH  38  40
ENDBRANCH   1  38
TORSDOF 14
ENDMDL