MODEL 2
REMARK VINA RESULT: -6.865757897      1.228      3.541
REMARK  7 active torsions:
REMARK  status: ('A' for Active; 'I' for Inactive)
REMARK    1  A    between atoms: C2_2  and  N1_3
REMARK    2  A    between atoms: C3_6  and  C4_7
REMARK    3  A    between atoms: C4_7  and  N3_8
REMARK    4  A    between atoms: N3_8  and  C5_10
REMARK    5  A    between atoms: C5_10  and  C6_11
REMARK    6  A    between atoms: C11_19  and  N5_20
REMARK    7  A    between atoms: C16_25  and  C17_26
ROOT
HETATM    1  N1  UNL     1       4.850  50.257  18.888  1.00  0.00    -0.293 N
HETATM    2  N2  UNL     1       5.979  49.603  19.053  1.00  0.00    -0.295 N
ATOM      3  H2  UNL     1       6.046  48.586  19.014  1.00  0.00     0.187 HD
HETATM    4  C3  UNL     1       7.002  50.376  19.272  1.00  0.00     0.092 A
HETATM    5  C11 UNL     1       6.491  51.650  19.251  1.00  0.00     0.085 A
HETATM    6  C16 UNL     1       5.091  51.511  18.994  1.00  0.00     0.061 A
ENDROOT
BRANCH   4   7
HETATM    7  C4  UNL     1       8.455  50.014  19.231  1.00  0.00     0.120 C
BRANCH   7   8
HETATM    8  N3  UNL     1       8.939  49.164  20.232  1.00  0.00    -0.376 N
ATOM      9  H3  UNL     1       9.293  48.234  20.009  1.00  0.00     0.164 HD
BRANCH   8  10
HETATM   10  C5  UNL     1       8.918  49.637  21.555  1.00  0.00     0.065 C
BRANCH  10  11
HETATM   11  C6  UNL     1       9.033  48.654  22.681  1.00  0.00     0.027 C
HETATM   12  C7  UNL     1       9.116  49.170  24.073  1.00  0.00     0.037 C
HETATM   13  C8  UNL     1       8.473  48.174  25.092  1.00  0.00     0.233 C
HETATM   14  N4  UNL     1       8.833  46.869  24.555  1.00  0.00    -0.075 N
HETATM   15  C9  UNL     1       7.931  46.571  23.469  1.00  0.00     0.233 C
ATOM     16  H42 UNL     1       9.813  46.811  24.282  1.00  0.00     0.277 HD
ATOM     17  H41 UNL     1       8.847  46.139  25.268  1.00  0.00     0.277 HD
HETATM   18  C10 UNL     1       7.739  47.815  22.634  1.00  0.00     0.037 C
ENDBRANCH  10  11
ENDBRANCH   8  10
ENDBRANCH   7   8
ENDBRANCH   4   7
BRANCH   5  19
HETATM   19  N5  UNL     1       7.259  52.806  19.494  1.00  0.00    -0.377 N
HETATM   20  C12 UNL     1       7.746  53.848  18.670  1.00  0.00     0.123 C
HETATM   21  C13 UNL     1       8.156  54.981  19.617  1.00  0.00     0.021 C
HETATM   22  C14 UNL     1       7.592  54.591  20.960  1.00  0.00     0.021 C
HETATM   23  C15 UNL     1       7.677  53.094  20.884  1.00  0.00     0.123 C
ENDBRANCH   5  19
BRANCH   1  24
HETATM   24  C2  UNL     1       3.615  49.503  18.636  1.00  0.00     0.144 C
HETATM   25  C1  UNL     1       3.958  48.324  17.792  1.00  0.00     0.028 C
ENDBRANCH   1  24
BRANCH   6  26
HETATM   26  C17 UNL     1       4.248  52.707  19.082  1.00  0.00     0.040 A
HETATM   27  C18 UNL     1       2.993  52.644  20.014  1.00  0.00     0.011 A
HETATM   28  C19 UNL     1       4.133  53.538  20.333  1.00  0.00     0.011 A
ENDBRANCH   6  26
TORSDOF 7
ENDMDL