MODEL 4
REMARK VINA RESULT: -7.028573602      1.174      1.730
REMARK  9 active torsions:
REMARK  status: ('A' for Active; 'I' for Inactive)
REMARK    1  A    between atoms: C2_2  and  C3_3
REMARK    2  A    between atoms: C5_5  and  C6_6
REMARK    3  A    between atoms: C6_6  and  C8_8
REMARK    4  A    between atoms: C6_6  and  C10_11
REMARK    5  A    between atoms: C10_11  and  O3_13
REMARK    6  A    between atoms: O3_13  and  C11_14
REMARK    7  A    between atoms: C11_14  and  C12_15
REMARK    8  A    between atoms: C13_16  and  O4_17
REMARK    9  A    between atoms: C15_20  and  O5_21
ROOT
HETATM    1  C10 UNL     1       8.272  49.829  19.471  1.00  0.00     0.278 C
HETATM    2  O2  UNL     1       9.398  50.100  19.040  1.00  0.00    -0.264 OA
ENDROOT
BRANCH   1   3
HETATM    3  C6  UNL     1       7.125  50.711  19.019  1.00  0.00     0.122 C
HETATM    4  C7  UNL     1       7.987  51.857  18.325  1.00  0.00     0.039 C
BRANCH   3   5
HETATM    5  C5  UNL     1       6.529  51.387  20.153  1.00  0.00     0.003 C
HETATM    6  C3  UNL     1       7.021  52.477  20.946  1.00  0.00    -0.086 C
HETATM    7  C4  UNL     1       6.850  53.901  20.462  1.00  0.00     0.043 C
BRANCH   6   8
HETATM    8  C2  UNL     1       8.314  52.335  21.714  1.00  0.00     0.029 C
HETATM    9  C1  UNL     1       8.305  53.326  22.908  1.00  0.00     0.010 C
ENDBRANCH   6   8
ENDBRANCH   3   5
BRANCH   3  10
HETATM   10  C8  UNL     1       6.364  50.114  17.954  1.00  0.00     0.144 C
HETATM   11  C9  UNL     1       5.599  48.850  17.903  1.00  0.00     0.092 C
HETATM   12  O1  UNL     1       6.301  50.722  16.854  1.00  0.00    -0.297 OA
ENDBRANCH   3  10
ENDBRANCH   1   3
BRANCH   1  13
HETATM   13  O3  UNL     1       8.111  48.761  20.320  1.00  0.00    -0.320 OA
BRANCH  13  14
HETATM   14  C11 UNL     1       8.933  48.701  21.469  1.00  0.00     0.186 C
BRANCH  14  15
HETATM   15  C12 UNL     1       8.178  48.270  22.677  1.00  0.00     0.045 C
HETATM   16  C13 UNL     1       8.076  46.750  22.736  1.00  0.00     0.127 C
HETATM   17  C14 UNL     1       7.628  46.573  24.192  1.00  0.00     0.064 C
HETATM   18  C15 UNL     1       8.471  47.581  24.945  1.00  0.00     0.124 C
HETATM   19  C16 UNL     1       8.991  48.558  23.918  1.00  0.00     0.019 C
HETATM   20  C17 UNL     1       8.849  49.972  24.379  1.00  0.00     0.013 C
BRANCH  16  21
HETATM   21  O4  UNL     1       9.354  46.237  22.653  1.00  0.00    -0.395 OA
ATOM     22  H4  UNL     1       9.405  45.709  21.865  1.00  0.00     0.210 HD
ENDBRANCH  16  21
BRANCH  18  23
HETATM   23  O5  UNL     1       7.642  48.238  25.842  1.00  0.00    -0.395 OA
ATOM     24  H5  UNL     1       8.005  48.117  26.712  1.00  0.00     0.210 HD
ENDBRANCH  18  23
ENDBRANCH  14  15
ENDBRANCH  13  14
ENDBRANCH   1  13
TORSDOF 9
ENDMDL