MODEL 1
REMARK VINA RESULT: -6.171450284      0.000      0.000
REMARK  7 active torsions:
REMARK  status: ('A' for Active; 'I' for Inactive)
REMARK    1  A    between atoms: O1_2  and  C2_3
REMARK    2  A    between atoms: C2_3  and  C3_5
REMARK    3  A    between atoms: C3_5  and  C5_7
REMARK    4  A    between atoms: C5_7  and  O3_8
REMARK    5  A    between atoms: C5_7  and  C7_10
REMARK    6  A    between atoms: C12_18  and  C13_19
REMARK    7  A    between atoms: C13_19  and  C14_20
ROOT
HETATM    1  C7  UNL     1       7.436  52.187  21.303  1.00  0.00     0.022 C
HETATM    2  C8  UNL     1       6.120  52.040  20.557  1.00  0.00     0.009 C
HETATM    3  C9  UNL     1       6.056  50.739  19.744  1.00  0.00     0.014 C
HETATM    4  C10 UNL     1       7.400  50.320  19.524  1.00  0.00     0.018 C
HETATM    5  C11 UNL     1       7.849  49.172  18.739  1.00  0.00     0.245 C
HETATM    6  N1  UNL     1       9.185  49.568  19.234  1.00  0.00    -0.064 N
ATOM      7  H11 UNL     1       9.811  50.174  18.703  1.00  0.00     0.278 HD
ATOM      8  H12 UNL     1       9.965  48.913  19.298  1.00  0.00     0.278 HD
HETATM    9  C12 UNL     1       8.421  50.046  20.446  1.00  0.00     0.139 C
HETATM   10  C15 UNL     1       8.576  51.561  20.593  1.00  0.00     0.030 C
HETATM   11  C16 UNL     1       8.192  51.587  19.104  1.00  0.00     0.021 C
ENDROOT
BRANCH   1  12
HETATM   12  C5  UNL     1       7.655  53.648  21.601  1.00  0.00     0.138 C
BRANCH  12  13
HETATM   13  C3  UNL     1       8.600  53.766  22.759  1.00  0.00     0.111 C
HETATM   14  C4  UNL     1       8.649  52.466  23.532  1.00  0.00     0.023 C
BRANCH  13  15
HETATM   15  C2  UNL     1       8.196  54.786  23.753  1.00  0.00     0.264 C
HETATM   16  O2  UNL     1       7.015  54.785  24.180  1.00  0.00    -0.265 OA
BRANCH  15  17
HETATM   17  O1  UNL     1       9.057  55.746  24.240  1.00  0.00    -0.326 OA
HETATM   18  C1  UNL     1       8.952  57.074  23.758  1.00  0.00     0.213 C
ENDBRANCH  15  17
ENDBRANCH  13  15
ENDBRANCH  12  13
BRANCH  12  19
HETATM   19  O3  UNL     1       7.888  54.458  20.549  1.00  0.00    -0.389 OA
HETATM   20  C6  UNL     1       7.205  55.589  20.372  1.00  0.00     0.202 C
ENDBRANCH  12  19
ENDBRANCH   1  12
BRANCH   9  21
HETATM   21  C13 UNL     1       8.696  49.178  21.527  1.00  0.00     0.051 C
BRANCH  21  22
HETATM   22  C14 UNL     1       7.814  48.796  22.623  1.00  0.00     0.088 C
HETATM   23  S1  UNL     1       8.564  48.740  24.271  1.00  0.00    -0.098 SA
ENDBRANCH  21  22
ENDBRANCH   9  21
TORSDOF 7
ENDMDL