MODEL 4
REMARK VINA RESULT: -5.682165129      2.771      4.934
REMARK  7 active torsions:
REMARK  status: ('A' for Active; 'I' for Inactive)
REMARK    1  A    between atoms: C2_2  and  C3_3
REMARK    2  A    between atoms: C3_3  and  S1_4
REMARK    3  A    between atoms: S1_4  and  C4_5
REMARK    4  A    between atoms: N3_14  and  O1_16
REMARK    5  A    between atoms: C10_18  and  C11_19
REMARK    6  A    between atoms: C11_19  and  C12_20
REMARK       I    between atoms: C12_20  and  N4_22
REMARK    7  A    between atoms: N4_22  and  C14_24
ROOT
HETATM    1  C4  UNL     1       8.557  50.083  21.343  1.00  0.00     0.033 A
HETATM    2  C5  UNL     1       8.737  49.289  22.444  1.00  0.00     0.084 A
HETATM    3  C6  UNL     1       8.771  47.865  22.333  1.00  0.00     0.103 C
HETATM    4  N1  UNL     1       8.774  46.717  22.258  1.00  0.00    -0.191 NA
HETATM    5  C7  UNL     1       8.827  49.849  23.710  1.00  0.00     0.029 A
HETATM    6  C8  UNL     1       9.027  48.973  24.909  1.00  0.00     0.070 C
HETATM    7  N2  UNL     1       8.731  51.178  23.821  1.00  0.00    -0.343 N
ATOM      8  H2  UNL     1       8.796  51.591  24.752  1.00  0.00     0.167 HD
HETATM    9  C9  UNL     1       8.553  51.995  22.774  1.00  0.00     0.133 A
HETATM   10  N3  UNL     1       8.460  53.277  22.889  1.00  0.00    -0.253 N
ATOM     11  H3  UNL     1       8.325  53.829  22.042  1.00  0.00     0.196 HD
HETATM   12  C10 UNL     1       8.459  51.477  21.502  1.00  0.00     0.015 A
ENDROOT
BRANCH   1  13
HETATM   13  S1  UNL     1       8.503  49.479  19.671  1.00  0.00    -0.128 SA
BRANCH  13  14
HETATM   14  C3  UNL     1       6.818  49.086  19.204  1.00  0.00     0.079 C
BRANCH  14  15
HETATM   15  C2  UNL     1       6.626  49.068  17.735  1.00  0.00     0.006 C
HETATM   16  C1  UNL     1       5.200  48.631  17.409  1.00  0.00     0.006 C
ENDBRANCH  14  15
ENDBRANCH  13  14
ENDBRANCH   1  13
BRANCH  12  17
HETATM   17  C11 UNL     1       8.230  52.318  20.323  1.00  0.00     0.146 C
BRANCH  17  18
HETATM   18  C12 UNL     1       6.831  52.823  20.286  1.00  0.00     0.223 C
HETATM   19  O2  UNL     1       5.902  51.989  20.428  1.00  0.00    -0.273 OA
HETATM   20  N4  UNL     1       6.594  54.207  20.094  1.00  0.00    -0.357 N
HETATM   21  C13 UNL     1       7.720  55.101  19.933  1.00  0.00     0.152 C
BRANCH  20  22
HETATM   22  C14 UNL     1       5.268  54.766  20.056  1.00  0.00     0.120 C
HETATM   23  C15 UNL     1       4.791  55.310  21.369  1.00  0.00     0.026 C
ENDBRANCH  20  22
ENDBRANCH  17  18
ENDBRANCH  12  17
BRANCH  10  24
HETATM   24  O1  UNL     1       8.533  53.936  24.088  1.00  0.00    -0.288 OA
ATOM     25  H1  UNL     1       7.817  54.442  24.454  1.00  0.00     0.244 HD
ENDBRANCH  10  24
TORSDOF 7
ENDMDL