MODEL 2
REMARK VINA RESULT: -6.424380537      0.898      1.265
REMARK  9 active torsions:
REMARK  status: ('A' for Active; 'I' for Inactive)
REMARK    1  A    between atoms: C3_3  and  C4_4
REMARK    2  A    between atoms: C8_9  and  C9_10
REMARK    3  A    between atoms: C9_10  and  O2_11
REMARK    4  A    between atoms: O2_11  and  C10_12
REMARK    5  A    between atoms: C13_16  and  C14_17
REMARK    6  A    between atoms: C15_18  and  C16_19
REMARK    7  A    between atoms: C16_19  and  C17_20
REMARK    8  A    between atoms: C17_20  and  O4_21
REMARK    9  A    between atoms: C18_23  and  O5_24
ROOT
HETATM    1  C4  UNL     1       7.646  52.557  20.344  1.00  0.00    -0.011 A
HETATM    2  C5  UNL     1       8.053  53.130  19.226  1.00  0.00    -0.006 A
HETATM    3  C6  UNL     1       8.470  54.569  19.056  1.00  0.00     0.052 C
HETATM    4  C7  UNL     1       8.038  52.174  18.132  1.00  0.00     0.172 A
HETATM    5  O1  UNL     1       8.316  52.392  16.931  1.00  0.00    -0.292 OA
HETATM    6  C8  UNL     1       7.635  50.889  18.692  1.00  0.00     0.106 A
HETATM    7  C12 UNL     1       8.760  49.877  18.716  1.00  0.00     0.192 C
HETATM    8  O3  UNL     1       9.355  50.004  19.967  1.00  0.00    -0.377 OA
HETATM    9  C13 UNL     1       8.338  50.293  20.859  1.00  0.00     0.184 C
HETATM   10  C18 UNL     1       7.336  51.130  20.110  1.00  0.00     0.134 A
ENDROOT
BRANCH   9  11
HETATM   11  C14 UNL     1       7.713  49.060  21.415  1.00  0.00     0.004 C
HETATM   12  C15 UNL     1       7.846  48.772  22.684  1.00  0.00    -0.026 C
BRANCH  12  13
HETATM   13  C16 UNL     1       8.591  49.595  23.646  1.00  0.00     0.053 C
BRANCH  13  14
HETATM   14  C17 UNL     1       8.933  48.711  24.836  1.00  0.00     0.168 C
BRANCH  14  15
HETATM   15  O4  UNL     1       7.758  48.502  25.574  1.00  0.00    -0.401 OA
ATOM     16  H4  UNL     1       7.953  48.664  26.489  1.00  0.00     0.209 HD
ENDBRANCH  14  15
ENDBRANCH  13  14
ENDBRANCH  12  13
ENDBRANCH   9  11
BRANCH  10  17
HETATM   17  O5  UNL     1       6.025  50.821  20.477  1.00  0.00    -0.381 OA
ATOM     18  H5  UNL     1       5.998  50.178  21.176  1.00  0.00     0.211 HD
ENDBRANCH  10  17
BRANCH   1  19
HETATM   19  C3  UNL     1       7.546  53.290  21.617  1.00  0.00     0.006 C
HETATM   20  C2  UNL     1       8.466  53.259  22.538  1.00  0.00    -0.030 C
HETATM   21  C1  UNL     1       8.294  54.034  23.813  1.00  0.00     0.036 C
ENDBRANCH   1  19
BRANCH   6  22
HETATM   22  C9  UNL     1       6.510  50.255  17.910  1.00  0.00     0.191 C
BRANCH  22  23
HETATM   23  O2  UNL     1       6.934  49.148  17.182  1.00  0.00    -0.390 OA
BRANCH  23  24
HETATM   24  C10 UNL     1       6.755  49.419  15.828  1.00  0.00     0.163 C
HETATM   25  C11 UNL     1       8.026  49.380  15.048  1.00  0.00     0.033 C
ENDBRANCH  23  24
ENDBRANCH  22  23
ENDBRANCH   6  22
TORSDOF 9
ENDMDL