MODEL 1
REMARK VINA RESULT: -6.746682566      0.000      0.000
REMARK  8 active torsions:
REMARK  status: ('A' for Active; 'I' for Inactive)
REMARK    1  A    between atoms: C2_2  and  N1_3
REMARK    2  A    between atoms: C2_2  and  C10_15
REMARK    3  A    between atoms: N1_3  and  N2_5
REMARK    4  A    between atoms: C3_7  and  C4_8
REMARK    5  A    between atoms: C4_8  and  C5_9
REMARK       I    between atoms: C10_15  and  N3_17
REMARK    6  A    between atoms: N3_17  and  C11_19
REMARK    7  A    between atoms: C11_19  and  C12_20
REMARK    8  A    between atoms: C12_20  and  C13_21
ROOT
HETATM    1  C1  UNL     1       5.280  50.453  19.341  1.00  0.00     0.044 C
HETATM    2  C2  UNL     1       6.221  49.791  18.353  1.00  0.00     0.187 C
ENDROOT
BRANCH   2   3
HETATM    3  N1  UNL     1       5.624  48.585  17.856  1.00  0.00    -0.324 N
ATOM      4  H1  UNL     1       5.809  47.708  18.342  1.00  0.00     0.181 HD
BRANCH   3   5
HETATM    5  N2  UNL     1       4.807  48.571  16.743  1.00  0.00    -0.319 N
HETATM    6  C3  UNL     1       3.589  48.142  16.735  1.00  0.00     0.083 C
ATOM      7  H2  UNL     1       5.191  48.924  15.867  1.00  0.00     0.185 HD
BRANCH   6   8
HETATM    8  C4  UNL     1       2.911  47.604  17.939  1.00  0.00     0.074 C
BRANCH   8   9
HETATM    9  C5  UNL     1       2.278  48.672  18.749  1.00  0.00    -0.007 C
HETATM   10  C6  UNL     1       1.155  48.516  19.415  1.00  0.00    -0.025 C
HETATM   11  C7  UNL     1       0.269  47.318  19.535  1.00  0.00     0.046 C
HETATM   12  S1  UNL     1       0.297  49.748  20.432  1.00  0.00    -0.135 SA
HETATM   13  C8  UNL     1      -1.154  47.814  19.531  1.00  0.00     0.015 C
HETATM   14  C9  UNL     1      -1.287  48.837  20.635  1.00  0.00     0.079 C
ENDBRANCH   8   9
ENDBRANCH   6   8
ENDBRANCH   3   5
ENDBRANCH   2   3
BRANCH   2  15
HETATM   15  C10 UNL     1       7.519  49.468  19.008  1.00  0.00     0.241 C
HETATM   16  O1  UNL     1       8.435  48.961  18.340  1.00  0.00    -0.271 OA
HETATM   17  N3  UNL     1       7.700  49.742  20.391  1.00  0.00    -0.359 N
ATOM     18  H3  UNL     1       6.924  50.162  20.902  1.00  0.00     0.162 HD
BRANCH  17  19
HETATM   19  C11 UNL     1       8.903  49.467  21.108  1.00  0.00     0.125 C
BRANCH  19  20
HETATM   20  C12 UNL     1       8.828  49.807  22.563  1.00  0.00     0.051 C
BRANCH  20  21
HETATM   21  C13 UNL     1       7.873  48.831  23.231  1.00  0.00     0.123 C
HETATM   22  C14 UNL     1       8.275  48.519  24.629  1.00  0.00     0.034 C
HETATM   23  C15 UNL     1       7.945  47.042  24.749  1.00  0.00     0.029 C
HETATM   24  C16 UNL     1       8.102  46.606  23.298  1.00  0.00     0.168 C
HETATM   25  O2  UNL     1       7.778  47.677  22.511  1.00  0.00    -0.386 OA
ENDBRANCH  20  21
ENDBRANCH  19  20
ENDBRANCH  17  19
ENDBRANCH   2  15
TORSDOF 8
ENDMDL