MODEL 3
REMARK VINA RESULT: -5.812996840      5.500      7.087
REMARK  9 active torsions:
REMARK  status: ('A' for Active; 'I' for Inactive)
REMARK    1  A    between atoms: C2_2  and  C3_3
REMARK    2  A    between atoms: C3_3  and  C4_4
REMARK    3  A    between atoms: C4_4  and  N1_5
REMARK    4  A    between atoms: C7_11  and  O1_12
REMARK    5  A    between atoms: O1_12  and  C8_13
REMARK    6  A    between atoms: C8_13  and  C9_14
REMARK    7  A    between atoms: C9_14  and  O2_15
REMARK    8  A    between atoms: C9_14  and  C10_17
REMARK    9  A    between atoms: C10_17  and  N2_18
ROOT
HETATM    1  C3  UNL     1       8.093  50.701  20.855  1.00  0.00    -0.017 C
HETATM    2  C5  UNL     1       8.629  50.510  19.477  1.00  0.00     0.013 C
HETATM    3  C6  UNL     1       8.032  49.394  18.687  1.00  0.00     0.033 C
HETATM    4  C7  UNL     1       6.558  49.271  18.725  1.00  0.00     0.121 C
HETATM    5  C15 UNL     1       5.941  50.321  19.655  1.00  0.00     0.033 C
HETATM    6  C16 UNL     1       6.664  50.207  20.977  1.00  0.00     0.013 C
ENDROOT
BRANCH   4   7
HETATM    7  O1  UNL     1       5.905  49.441  17.507  1.00  0.00    -0.383 OA
BRANCH   7   8
HETATM    8  C8  UNL     1       4.574  49.747  17.664  1.00  0.00     0.201 C
BRANCH   8   9
HETATM    9  C9  UNL     1       3.693  48.703  16.996  1.00  0.00     0.159 C
BRANCH   9  10
HETATM   10  O2  UNL     1       4.390  47.874  16.143  1.00  0.00    -0.392 OA
ATOM     11  H2  UNL     1       4.016  47.003  16.082  1.00  0.00     0.210 HD
ENDBRANCH   9  10
BRANCH   9  12
HETATM   12  C10 UNL     1       2.928  47.901  18.008  1.00  0.00     0.151 C
BRANCH  12  13
HETATM   13  N2  UNL     1       1.630  48.387  18.269  1.00  0.00    -0.402 N
HETATM   14  C11 UNL     1       0.829  47.737  19.235  1.00  0.00     0.118 C
HETATM   15  C12 UNL     1       0.640  46.258  18.966  1.00  0.00     0.029 C
HETATM   16  C13 UNL     1      -0.050  45.980  17.659  1.00  0.00     0.077 C
HETATM   17  S1  UNL     1       0.124  47.257  16.423  1.00  0.00    -0.150 SA
HETATM   18  C14 UNL     1       0.891  48.740  17.065  1.00  0.00     0.191 C
ENDBRANCH  12  13
ENDBRANCH   9  12
ENDBRANCH   8   9
ENDBRANCH   7   8
ENDBRANCH   4   7
BRANCH   1  19
HETATM   19  C2  UNL     1       8.894  49.914  21.871  1.00  0.00     0.006 C
HETATM   20  C1  UNL     1       8.163  48.709  22.388  1.00  0.00     0.006 C
ENDBRANCH   1  19
BRANCH   1  21
HETATM   21  C4  UNL     1       8.206  52.160  21.221  1.00  0.00     0.239 C
BRANCH  21  22
HETATM   22  N1  UNL     1       8.493  52.386  22.615  1.00  0.00    -0.079 N
ATOM     23  H13 UNL     1       7.924  51.776  23.203  1.00  0.00     0.274 HD
ATOM     24  H12 UNL     1       9.421  52.036  22.854  1.00  0.00     0.274 HD
ATOM     25  H11 UNL     1       8.392  53.360  22.903  1.00  0.00     0.274 HD
ENDBRANCH  21  22
ENDBRANCH   1  21
TORSDOF 9
ENDMDL