MODEL 1
REMARK VINA RESULT: -7.194127420      0.000      0.000
REMARK  9 active torsions:
REMARK  status: ('A' for Active; 'I' for Inactive)
REMARK    1  A    between atoms: C2_2  and  C3_3
REMARK    2  A    between atoms: C7_9  and  C8_10
REMARK    3  A    between atoms: C8_10  and  C9_11
REMARK    4  A    between atoms: C9_11  and  C10_12
REMARK    5  A    between atoms: C10_12  and  C11_13
REMARK    6  A    between atoms: C11_13  and  C12_14
REMARK    7  A    between atoms: C12_14  and  C13_15
REMARK    8  A    between atoms: C13_15  and  C14_16
REMARK    9  A    between atoms: C14_16  and  O3_17
ROOT
HETATM    1  C3  UNL     1       6.561  50.050  18.030  1.00  0.00    -0.048 C
HETATM    2  C4  UNL     1       6.859  50.787  19.092  1.00  0.00     0.057 C
HETATM    3  C5  UNL     1       6.067  51.520  20.066  1.00  0.00     0.292 C
HETATM    4  O1  UNL     1       4.819  51.588  20.100  1.00  0.00    -0.259 OA
HETATM    5  O2  UNL     1       6.937  52.159  20.991  1.00  0.00    -0.314 OA
HETATM    6  C6  UNL     1       8.135  52.291  20.251  1.00  0.00     0.222 C
HETATM    7  C7  UNL     1       8.264  51.013  19.494  1.00  0.00     0.118 C
HETATM    8  O4  UNL     1       9.014  51.335  18.327  1.00  0.00    -0.347 OA
HETATM    9  C15 UNL     1       8.913  50.414  17.346  1.00  0.00     0.242 C
HETATM   10  N1  UNL     1       8.536  51.021  16.082  1.00  0.00    -0.333 N
ATOM     11  H1  UNL     1       8.752  51.880  15.577  1.00  0.00     0.165 HD
HETATM   12  C16 UNL     1       7.715  49.850  15.869  1.00  0.00     0.232 C
HETATM   13  O5  UNL     1       7.231  49.378  14.814  1.00  0.00    -0.273 OA
HETATM   14  C17 UNL     1       7.714  49.511  17.308  1.00  0.00     0.156 C
ENDROOT
BRANCH   7  15
HETATM   15  C8  UNL     1       8.937  49.910  20.126  1.00  0.00     0.046 C
BRANCH  15  16
HETATM   16  C9  UNL     1       8.923  49.519  21.521  1.00  0.00     0.003 C
BRANCH  16  17
HETATM   17  C10 UNL     1       7.813  48.645  22.005  1.00  0.00     0.000 C
BRANCH  17  18
HETATM   18  C11 UNL     1       8.388  47.343  22.616  1.00  0.00     0.000 C
BRANCH  18  19
HETATM   19  C12 UNL     1       7.384  46.829  23.594  1.00  0.00     0.002 C
BRANCH  19  20
HETATM   20  C13 UNL     1       7.708  46.891  25.026  1.00  0.00     0.026 C
BRANCH  20  21
HETATM   21  C14 UNL     1       8.840  47.805  25.362  1.00  0.00     0.164 C
BRANCH  21  22
HETATM   22  O3  UNL     1       9.584  47.388  26.440  1.00  0.00    -0.401 OA
ATOM     23  H3  UNL     1       9.962  48.101  26.941  1.00  0.00     0.209 HD
ENDBRANCH  21  22
ENDBRANCH  20  21
ENDBRANCH  19  20
ENDBRANCH  18  19
ENDBRANCH  17  18
ENDBRANCH  16  17
ENDBRANCH  15  16
ENDBRANCH   7  15
BRANCH   1  24
HETATM   24  C2  UNL     1       5.176  49.852  17.662  1.00  0.00     0.031 C
HETATM   25  C1  UNL     1       4.676  48.443  17.859  1.00  0.00     0.010 C
ENDBRANCH   1  24
TORSDOF 9
ENDMDL