MODEL 5
REMARK VINA RESULT: -5.099916567      0.744      1.442
REMARK  5 active torsions:
REMARK  status: ('A' for Active; 'I' for Inactive)
REMARK    1  A    between atoms: O1_1  and  C1_3
REMARK    2  A    between atoms: C1_3  and  C2_4
REMARK    3  A    between atoms: C2_4  and  O2_5
REMARK    4  A    between atoms: C2_4  and  C3_7
REMARK    5  A    between atoms: C3_7  and  C4_8
ROOT
HETATM    1  C2  UNL     1     -17.784 -12.522  14.835  1.00  0.00     0.142 C
ENDROOT
BRANCH   1   2
HETATM    2  C1  UNL     1     -18.460 -12.249  13.527  1.00  0.00     0.195 C
BRANCH   2   3
HETATM    3  O1  UNL     1     -17.559 -12.669  12.519  1.00  0.00    -0.398 OA
ATOM      4  H1  UNL     1     -18.071 -12.755  11.724  1.00  0.00     0.209 HD
ENDBRANCH   2   3
ENDBRANCH   1   2
BRANCH   1   5
HETATM    5  O2  UNL     1     -16.996 -11.408  15.145  1.00  0.00    -0.393 OA
ATOM      6  H2  UNL     1     -17.005 -10.830  14.391  1.00  0.00     0.210 HD
ENDBRANCH   1   5
BRANCH   1   7
HETATM    7  C3  UNL     1     -18.756 -12.703  15.972  1.00  0.00     0.038 C
BRANCH   7   8
HETATM    8  C4  UNL     1     -18.388 -13.853  16.874  1.00  0.00    -0.012 C
HETATM    9  C5  UNL     1     -18.371 -15.105  16.001  1.00  0.00     0.005 C
HETATM   10  C6  UNL     1     -18.361 -16.188  17.037  1.00  0.00     0.000 C
HETATM   11  C7  UNL     1     -19.387 -15.692  18.060  1.00  0.00     0.000 C
HETATM   12  C8  UNL     1     -19.439 -14.188  17.878  1.00  0.00     0.005 C
ENDBRANCH   7   8
ENDBRANCH   1   7
TORSDOF 5
ENDMDL