MODEL 2
REMARK VINA RESULT: -5.098167386      1.194      1.194
REMARK  5 active torsions:
REMARK  status: ('A' for Active; 'I' for Inactive)
REMARK    1  A    between atoms: N1_1  and  C1_5
REMARK    2  A    between atoms: C1_5  and  C2_6
REMARK    3  A    between atoms: C2_6  and  C3_7
REMARK    4  A    between atoms: C3_7  and  N2_8
REMARK    5  A    between atoms: C8_13  and  O1_14
ROOT
HETATM    1  N2  UNL     1     -18.236 -13.967  16.377  1.00  0.00    -0.388 N
HETATM    2  C4  UNL     1     -18.414 -14.573  15.113  1.00  0.00     0.119 C
HETATM    3  C5  UNL     1     -17.923 -13.762  13.946  1.00  0.00     0.020 C
HETATM    4  C6  UNL     1     -18.316 -12.315  14.017  1.00  0.00     0.006 C
HETATM    5  C7  UNL     1     -19.068 -11.985  15.300  1.00  0.00     0.053 C
HETATM    6  C8  UNL     1     -18.219 -12.548  16.424  1.00  0.00     0.215 C
ENDROOT
BRANCH   1   7
HETATM    7  C3  UNL     1     -17.232 -14.523  17.213  1.00  0.00     0.121 C
BRANCH   7   8
HETATM    8  C2  UNL     1     -16.356 -15.531  16.494  1.00  0.00     0.046 C
BRANCH   8   9
HETATM    9  C1  UNL     1     -14.902 -15.355  16.863  1.00  0.00     0.231 C
BRANCH   9  10
HETATM   10  N1  UNL     1     -14.617 -13.995  17.274  1.00  0.00    -0.079 N
ATOM     11  H13 UNL     1     -14.722 -13.341  16.497  1.00  0.00     0.274 HD
ATOM     12  H12 UNL     1     -15.345 -13.630  17.888  1.00  0.00     0.274 HD
ATOM     13  H11 UNL     1     -13.695 -13.918  17.703  1.00  0.00     0.274 HD
ENDBRANCH   9  10
ENDBRANCH   8   9
ENDBRANCH   7   8
ENDBRANCH   1   7
BRANCH   6  14
HETATM   14  O1  UNL     1     -16.913 -12.106  16.210  1.00  0.00    -0.377 OA
ATOM     15  H1  UNL     1     -16.834 -11.214  16.528  1.00  0.00     0.212 HD
ENDBRANCH   6  14
TORSDOF 5
ENDMDL