MODEL 2
REMARK VINA RESULT: -5.060362907      2.268      4.223
REMARK  5 active torsions:
REMARK  status: ('A' for Active; 'I' for Inactive)
REMARK    1  A    between atoms: N1_1  and  C1_5
REMARK    2  A    between atoms: C1_5  and  C2_6
REMARK    3  A    between atoms: C2_6  and  N2_7
REMARK    4  A    between atoms: C2_6  and  C3_11
REMARK    5  A    between atoms: C3_11  and  N3_12
ROOT
HETATM    1  C2  UNL     1     -18.064 -12.502  14.872  1.00  0.00     0.236 C
ENDROOT
BRANCH   1   2
HETATM    2  C1  UNL     1     -18.448 -12.194  13.479  1.00  0.00     0.264 C
BRANCH   2   3
HETATM    3  N1  UNL     1     -17.265 -11.731  12.725  1.00  0.00    -0.077 N
ATOM      4  H13 UNL     1     -17.102 -10.730  12.841  1.00  0.00     0.274 HD
ATOM      5  H12 UNL     1     -16.393 -12.070  13.133  1.00  0.00     0.274 HD
ATOM      6  H11 UNL     1     -17.356 -11.994  11.743  1.00  0.00     0.274 HD
ENDBRANCH   2   3
ENDBRANCH   1   2
BRANCH   1   7
HETATM    7  N2  UNL     1     -17.044 -11.538  15.291  1.00  0.00    -0.072 N
ATOM      8  H23 UNL     1     -16.834 -11.596  16.287  1.00  0.00     0.274 HD
ATOM      9  H22 UNL     1     -16.115 -11.773  14.941  1.00  0.00     0.274 HD
ATOM     10  H21 UNL     1     -17.348 -10.606  15.007  1.00  0.00     0.274 HD
ENDBRANCH   1   7
BRANCH   1  11
HETATM   11  C3  UNL     1     -17.649 -13.896  15.155  1.00  0.00     0.306 C
BRANCH  11  12
HETATM   12  N3  UNL     1     -17.795 -14.402  16.481  1.00  0.00     0.090 N
HETATM   13  C4  UNL     1     -19.152 -14.003  16.897  1.00  0.00     0.272 C
HETATM   14  C5  UNL     1     -19.467 -14.495  18.281  1.00  0.00     0.030 C
HETATM   15  C6  UNL     1     -19.667 -15.991  18.149  1.00  0.00     0.003 C
HETATM   16  C7  UNL     1     -18.841 -16.594  17.086  1.00  0.00     0.030 C
HETATM   17  C8  UNL     1     -17.633 -15.824  16.633  1.00  0.00     0.272 C
ENDBRANCH  11  12
ENDBRANCH   1  11
TORSDOF 5
ENDMDL