MODEL 3
REMARK VINA RESULT: -5.301284636      0.512      1.296
REMARK  3 active torsions:
REMARK  status: ('A' for Active; 'I' for Inactive)
REMARK    1  A    between atoms: C2_3  and  N2_4
REMARK    2  A    between atoms: C2_3  and  C4_8
REMARK    3  A    between atoms: N2_4  and  C3_6
ROOT
HETATM    1  N1  UNL     1     -16.538 -15.578  17.864  1.00  0.00    -0.195 NA
HETATM    2  C1  UNL     1     -16.813 -15.430  16.742  1.00  0.00     0.085 C
HETATM    3  C2  UNL     1     -17.155 -15.226  15.327  1.00  0.00     0.195 C
ENDROOT
BRANCH   3   4
HETATM    4  N2  UNL     1     -16.029 -15.520  14.501  1.00  0.00    -0.351 N
ATOM      5  H2  UNL     1     -15.878 -14.968  13.657  1.00  0.00     0.163 HD
BRANCH   4   6
HETATM    6  C3  UNL     1     -15.112 -16.560  14.820  1.00  0.00     0.349 C
HETATM    7  O1  UNL     1     -15.221 -17.686  14.262  1.00  0.00    -0.284 OA
ENDBRANCH   4   6
ENDBRANCH   3   4
BRANCH   3   8
HETATM    8  C4  UNL     1     -17.675 -13.827  15.192  1.00  0.00     0.022 C
HETATM    9  C5  UNL     1     -17.792 -13.353  13.788  1.00  0.00     0.007 C
HETATM   10  C6  UNL     1     -19.092 -12.572  13.674  1.00  0.00     0.000 C
HETATM   11  C7  UNL     1     -19.430 -12.290  15.124  1.00  0.00     0.000 C
HETATM   12  C8  UNL     1     -19.058 -13.642  15.752  1.00  0.00     0.007 C
ENDBRANCH   3   8
TORSDOF 3
ENDMDL