MODEL 2
REMARK VINA RESULT: -4.817034861      0.159      1.516
REMARK  2 active torsions:
REMARK  status: ('A' for Active; 'I' for Inactive)
REMARK    1  A    between atoms: S1_2  and  N1_5
REMARK    2  A    between atoms: N1_5  and  C1_7
ROOT
HETATM    1  N1  UNL     1     -17.157 -14.163  13.978  1.00  0.00    -0.296 N
ATOM      2  H1  UNL     1     -16.345 -14.456  13.435  1.00  0.00     0.175 HD
ENDROOT
BRANCH   1   3
HETATM    3  S1  UNL     1     -18.057 -12.772  13.597  1.00  0.00     0.204 S
HETATM    4  O1  UNL     1     -19.372 -13.176  12.958  1.00  0.00    -0.578 OA
HETATM    5  O2  UNL     1     -18.291 -12.000  14.864  1.00  0.00    -0.578 OA
HETATM    6  O3  UNL     1     -17.230 -11.766  12.514  1.00  0.00    -0.578 OA
ENDBRANCH   1   3
BRANCH   1   7
HETATM    7  C1  UNL     1     -17.622 -14.888  15.110  1.00  0.00     0.095 C
HETATM    8  C2  UNL     1     -17.246 -16.350  15.130  1.00  0.00     0.026 C
HETATM    9  C3  UNL     1     -16.151 -15.993  16.132  1.00  0.00     0.004 C
HETATM   10  C4  UNL     1     -16.876 -14.702  16.401  1.00  0.00     0.026 C
ENDBRANCH   1   7
TORSDOF 2
ENDMDL