MODEL 4
REMARK VINA RESULT: -4.816483868      2.925      3.312
REMARK  6 active torsions:
REMARK  status: ('A' for Active; 'I' for Inactive)
REMARK    1  A    between atoms: N1_1  and  C1_5
REMARK    2  A    between atoms: C1_5  and  C2_6
REMARK    3  A    between atoms: C2_6  and  C3_7
REMARK    4  A    between atoms: C3_7  and  C4_8
REMARK    5  A    between atoms: C4_8  and  C5_9
REMARK    6  A    between atoms: C6_10  and  C7_11
ROOT
HETATM    1  C3  UNL     1     -19.070 -11.681  15.261  1.00  0.00     0.014 C
ENDROOT
BRANCH   1   2
HETATM    2  C2  UNL     1     -19.188 -12.628  14.116  1.00  0.00     0.028 C
BRANCH   2   3
HETATM    3  C1  UNL     1     -17.795 -12.845  13.550  1.00  0.00     0.229 C
BRANCH   3   4
HETATM    4  N1  UNL     1     -17.519 -11.716  12.684  1.00  0.00    -0.079 N
ATOM      5  H13 UNL     1     -18.129 -10.917  12.857  1.00  0.00     0.274 HD
ATOM      6  H12 UNL     1     -16.637 -11.251  12.897  1.00  0.00     0.274 HD
ATOM      7  H11 UNL     1     -17.571 -12.064  11.727  1.00  0.00     0.274 HD
ENDBRANCH   3   4
ENDBRANCH   2   3
ENDBRANCH   1   2
BRANCH   1   8
HETATM    8  C4  UNL     1     -18.149 -12.155  16.353  1.00  0.00     0.094 C
BRANCH   8   9
HETATM    9  C5  UNL     1     -18.762 -13.346  16.943  1.00  0.00    -0.104 C
HETATM   10  C6  UNL     1     -19.261 -14.338  17.412  1.00  0.00    -0.074 C
BRANCH  10  11
HETATM   11  C7  UNL     1     -19.862 -15.567  17.967  1.00  0.00     0.202 C
HETATM   12  C8  UNL     1     -20.742 -15.220  19.122  1.00  0.00     0.071 C
HETATM   13  C9  UNL     1     -19.517 -15.620  19.873  1.00  0.00     0.173 C
HETATM   14  O1  UNL     1     -18.978 -16.284  18.771  1.00  0.00    -0.373 OA
ENDBRANCH  10  11
ENDBRANCH   8   9
ENDBRANCH   1   8
TORSDOF 6
ENDMDL