MODEL 3
REMARK VINA RESULT: -5.020681519      2.270      4.159
REMARK  4 active torsions:
REMARK  status: ('A' for Active; 'I' for Inactive)
REMARK    1  A    between atoms: N1_1  and  C1_5
REMARK    2  A    between atoms: C1_5  and  C2_6
REMARK    3  A    between atoms: C2_6  and  C3_7
REMARK    4  A    between atoms: N2_13  and  N3_14
ROOT
HETATM    1  C3  UNL     1     -19.083 -12.985  15.710  1.00  0.00    -0.006 C
HETATM    2  C4  UNL     1     -18.727 -13.215  17.164  1.00  0.00     0.027 C
HETATM    3  C5  UNL     1     -19.229 -14.643  16.925  1.00  0.00     0.083 C
HETATM    4  C6  UNL     1     -18.728 -14.434  15.486  1.00  0.00     0.010 C
HETATM    5  C7  UNL     1     -17.286 -14.760  15.605  1.00  0.00     0.023 C
HETATM    6  C8  UNL     1     -17.223 -15.797  16.712  1.00  0.00     0.114 C
HETATM    7  N2  UNL     1     -18.412 -15.669  17.481  1.00  0.00    -0.233 NA
ENDROOT
BRANCH   1   8
HETATM    8  C2  UNL     1     -18.225 -12.057  14.933  1.00  0.00     0.032 C
BRANCH   8   9
HETATM    9  C1  UNL     1     -18.527 -12.162  13.433  1.00  0.00     0.230 C
BRANCH   9  10
HETATM   10  N1  UNL     1     -17.303 -11.772  12.760  1.00  0.00    -0.079 N
ATOM     11  H13 UNL     1     -17.112 -10.771  12.807  1.00  0.00     0.274 HD
ATOM     12  H12 UNL     1     -16.457 -12.079  13.238  1.00  0.00     0.274 HD
ATOM     13  H11 UNL     1     -17.387 -12.128  11.808  1.00  0.00     0.274 HD
ENDBRANCH   9  10
ENDBRANCH   8   9
ENDBRANCH   1   8
BRANCH   7  14
HETATM   14  N3  UNL     1     -19.120 -16.855  17.539  1.00  0.00    -0.363 NA
ATOM     15  H32 UNL     1     -19.910 -16.796  18.182  1.00  0.00     0.171 HD
ATOM     16  H31 UNL     1     -18.503 -17.613  17.828  1.00  0.00     0.171 HD
ENDBRANCH   7  14
TORSDOF 4
ENDMDL