MODEL 2
REMARK VINA RESULT: -4.939103215      0.918      1.173
REMARK  3 active torsions:
REMARK  status: ('A' for Active; 'I' for Inactive)
REMARK    1  A    between atoms: N1_2  and  C2_4
REMARK    2  A    between atoms: C2_4  and  C3_5
REMARK    3  A    between atoms: C4_9  and  C5_10
ROOT
HETATM    1  C3  UNL     1     -16.440 -16.114  15.562  1.00  0.00     0.236 A
HETATM    2  N2  UNL     1     -15.807 -15.550  14.381  1.00  0.00    -0.059 N
ATOM      3  H21 UNL     1     -15.313 -15.905  13.562  1.00  0.00     0.278 HD
ATOM      4  H22 UNL     1     -14.969 -15.007  14.177  1.00  0.00     0.278 HD
HETATM    5  C4  UNL     1     -17.242 -15.260  14.763  1.00  0.00     0.248 A
ENDROOT
BRANCH   5   6
HETATM    6  C5  UNL     1     -17.567 -13.829  14.995  1.00  0.00     0.218 C
HETATM    7  C6  UNL     1     -18.902 -13.579  15.627  1.00  0.00     0.037 C
HETATM    8  C7  UNL     1     -19.401 -12.318  14.948  1.00  0.00     0.029 C
HETATM    9  C8  UNL     1     -18.814 -12.476  13.562  1.00  0.00     0.233 C
HETATM   10  N3  UNL     1     -17.523 -13.051  13.761  1.00  0.00    -0.069 N
ATOM     11  H32 UNL     1     -16.776 -12.356  13.756  1.00  0.00     0.277 HD
ATOM     12  H31 UNL     1     -17.205 -13.596  12.960  1.00  0.00     0.277 HD
ENDBRANCH   5   6
BRANCH   1  13
HETATM   13  C2  UNL     1     -15.769 -15.743  16.853  1.00  0.00     0.153 C
BRANCH  13  14
HETATM   14  N1  UNL     1     -14.737 -16.697  17.145  1.00  0.00    -0.406 N
HETATM   15  C1  UNL     1     -14.841 -17.940  16.943  1.00  0.00     0.112 C
ATOM     16  H1  UNL     1     -13.863 -16.350  17.541  1.00  0.00     0.158 HD
ENDBRANCH  13  14
ENDBRANCH   1  13
TORSDOF 3
ENDMDL