MODEL 2
REMARK VINA RESULT: -6.046985964      0.910      1.452
REMARK  3 active torsions:
REMARK  status: ('A' for Active; 'I' for Inactive)
REMARK    1  A    between atoms: C2_2  and  O1_4
REMARK    2  A    between atoms: O1_4  and  C4_5
REMARK    3  A    between atoms: C4_5  and  C5_7
ROOT
HETATM    1  C4  UNL     1       8.971  14.225 -15.528  1.00  0.00     0.263 C
HETATM    2  O2  UNL     1       9.465  14.682 -14.467  1.00  0.00    -0.265 OA
ENDROOT
BRANCH   1   3
HETATM    3  O1  UNL     1       9.001  12.852 -15.693  1.00  0.00    -0.317 OA
BRANCH   3   4
HETATM    4  C2  UNL     1       8.066  11.974 -15.104  1.00  0.00     0.123 C
HETATM    5  C1  UNL     1       8.003  12.074 -13.617  1.00  0.00     0.040 C
HETATM    6  C3  UNL     1       6.696  12.376 -15.657  1.00  0.00     0.040 C
ENDBRANCH   3   4
ENDBRANCH   1   3
BRANCH   1   7
HETATM    7  C5  UNL     1       8.406  15.157 -16.511  1.00  0.00     0.085 C
HETATM    8  C6  UNL     1       8.585  16.600 -16.098  1.00  0.00     0.014 C
HETATM    9  C7  UNL     1       8.210  17.325 -17.395  1.00  0.00     0.001 C
HETATM   10  C8  UNL     1       8.577  16.369 -18.512  1.00  0.00     0.001 C
HETATM   11  C9  UNL     1       9.111  15.119 -17.846  1.00  0.00     0.014 C
ENDBRANCH   1   7
TORSDOF 3
ENDMDL