MODEL 5
REMARK VINA RESULT: -6.168163504      1.413      5.105
REMARK  2 active torsions:
REMARK  status: ('A' for Active; 'I' for Inactive)
REMARK    1  A    between atoms: C2_2  and  C3_3
REMARK    2  A    between atoms: C4_5  and  C5_6
ROOT
HETATM    1  C5  UNL     1       7.944  14.616 -17.841  1.00  0.00     0.033 C
HETATM    2  C6  UNL     1       8.993  15.530 -18.499  1.00  0.00     0.013 C
HETATM    3  C7  UNL     1       8.984  15.165 -19.972  1.00  0.00     0.027 C
HETATM    4  C8  UNL     1       7.570  14.768 -20.346  1.00  0.00     0.167 C
HETATM    5  O2  UNL     1       6.624  15.497 -19.633  1.00  0.00    -0.390 OA
HETATM    6  C9  UNL     1       6.629  15.120 -18.261  1.00  0.00     0.176 C
ENDROOT
BRANCH   1   7
HETATM    7  C4  UNL     1       8.215  14.446 -16.425  1.00  0.00    -0.010 C
HETATM    8  C2  UNL     1       7.853  13.572 -15.550  1.00  0.00    -0.028 C
HETATM    9  C1  UNL     1       6.990  12.419 -15.801  1.00  0.00     0.051 C
BRANCH   8  10
HETATM   10  C3  UNL     1       8.344  13.731 -14.141  1.00  0.00     0.265 C
HETATM   11  O1  UNL     1       7.631  13.334 -13.191  1.00  0.00    -0.302 OA
ENDBRANCH   8  10
ENDBRANCH   1   7
TORSDOF 2
ENDMDL