MODEL 2
REMARK VINA RESULT: -5.663849357      1.313      2.145
REMARK  3 active torsions:
REMARK  status: ('A' for Active; 'I' for Inactive)
REMARK    1  A    between atoms: C2_2  and  O2_4
REMARK    2  A    between atoms: O2_4  and  C3_5
REMARK    3  A    between atoms: C3_5  and  C5_7
ROOT
HETATM    1  C3  UNL     1       8.240  15.884 -15.975  1.00  0.00     0.132 C
HETATM    2  C4  UNL     1       8.957  17.003 -15.257  1.00  0.00     0.040 C
ENDROOT
BRANCH   1   3
HETATM    3  O2  UNL     1       8.792  14.668 -15.504  1.00  0.00    -0.316 OA
BRANCH   3   4
HETATM    4  C2  UNL     1       7.983  13.760 -14.865  1.00  0.00     0.255 C
HETATM    5  C1  UNL     1       7.146  12.758 -15.615  1.00  0.00     0.126 C
HETATM    6  O1  UNL     1       7.951  13.778 -13.606  1.00  0.00    -0.266 OA
ENDBRANCH   3   4
ENDBRANCH   1   3
BRANCH   1   7
HETATM    7  C5  UNL     1       8.448  16.054 -17.463  1.00  0.00     0.015 C
HETATM    8  C6  UNL     1       7.100  16.130 -18.127  1.00  0.00     0.007 C
HETATM    9  C7  UNL     1       7.008  14.845 -18.956  1.00  0.00     0.000 C
HETATM   10  C8  UNL     1       8.470  14.720 -19.398  1.00  0.00     0.000 C
HETATM   11  C9  UNL     1       9.152  14.840 -18.042  1.00  0.00     0.007 C
ENDBRANCH   1   7
TORSDOF 3
ENDMDL