MODEL 5
REMARK VINA RESULT: -5.634766272      0.687      1.653
REMARK  3 active torsions:
REMARK  status: ('A' for Active; 'I' for Inactive)
REMARK    1  A    between atoms: C2_2  and  C3_3
REMARK    2  A    between atoms: C3_3  and  O2_5
REMARK    3  A    between atoms: O2_5  and  C4_6
ROOT
HETATM    1  C4  UNL     1       8.679  15.144 -16.310  1.00  0.00     0.132 C
HETATM    2  C5  UNL     1       8.362  14.358 -17.537  1.00  0.00     0.032 C
HETATM    3  C6  UNL     1       8.814  14.958 -18.812  1.00  0.00     0.002 C
HETATM    4  C7  UNL     1       8.839  16.434 -18.867  1.00  0.00     0.000 C
HETATM    5  C8  UNL     1       8.194  17.154 -17.739  1.00  0.00     0.002 C
HETATM    6  C9  UNL     1       8.401  16.593 -16.388  1.00  0.00     0.032 C
ENDROOT
BRANCH   1   7
HETATM    7  O2  UNL     1       7.944  14.540 -15.239  1.00  0.00    -0.313 OA
BRANCH   7   8
HETATM    8  C3  UNL     1       8.399  13.478 -14.511  1.00  0.00     0.282 C
HETATM    9  O1  UNL     1       9.157  13.699 -13.541  1.00  0.00    -0.260 OA
BRANCH   8  10
HETATM   10  C2  UNL     1       7.989  12.131 -14.883  1.00  0.00     0.072 C
HETATM   11  C1  UNL     1       6.825  11.934 -15.477  1.00  0.00     0.017 C
ENDBRANCH   8  10
ENDBRANCH   7   8
ENDBRANCH   1   7
TORSDOF 3
ENDMDL