MODEL 4
REMARK VINA RESULT: -4.932582697      1.508      4.512
REMARK  3 active torsions:
REMARK  status: ('A' for Active; 'I' for Inactive)
REMARK    1  A    between atoms: C2_2  and  O1_4
REMARK    2  A    between atoms: O1_4  and  C4_5
REMARK    3  A    between atoms: C4_5  and  C6_7
ROOT
HETATM    1  C4  UNL     1       8.257  14.633 -17.691  1.00  0.00     0.154 C
HETATM    2  C5  UNL     1       6.830  14.877 -18.135  1.00  0.00     0.042 C
ENDROOT
BRANCH   1   3
HETATM    3  O1  UNL     1       8.892  15.841 -17.560  1.00  0.00    -0.379 OA
BRANCH   3   4
HETATM    4  C2  UNL     1       8.034  16.905 -17.350  1.00  0.00     0.114 C
HETATM    5  C1  UNL     1       8.282  17.614 -16.042  1.00  0.00     0.039 C
HETATM    6  C3  UNL     1       8.236  17.884 -18.489  1.00  0.00     0.039 C
ENDBRANCH   3   4
ENDBRANCH   1   3
BRANCH   1   7
HETATM    7  C6  UNL     1       8.223  13.894 -16.372  1.00  0.00     0.109 A
HETATM    8  C7  UNL     1       6.953  13.184 -16.009  1.00  0.00     0.051 C
HETATM    9  O2  UNL     1       9.356  12.962 -16.263  1.00  0.00    -0.367 OA
HETATM   10  C8  UNL     1       9.254  14.082 -15.427  1.00  0.00     0.155 A
HETATM   11  C9  UNL     1       9.039  13.861 -13.946  1.00  0.00     0.042 C
ENDBRANCH   1   7
TORSDOF 3
ENDMDL