MODEL 5
REMARK VINA RESULT: -4.906882945      1.964      3.230
REMARK  3 active torsions:
REMARK  status: ('A' for Active; 'I' for Inactive)
REMARK    1  A    between atoms: C3_3  and  C4_4
REMARK    2  A    between atoms: C6_6  and  S1_7
REMARK    3  A    between atoms: S1_7  and  C7_8
ROOT
HETATM    1  C4  UNL     1       8.691  15.378 -17.302  1.00  0.00     0.023 A
HETATM    2  C5  UNL     1       8.544  15.578 -15.781  1.00  0.00     0.026 A
HETATM    3  C6  UNL     1       9.352  14.474 -16.334  1.00  0.00     0.063 A
ENDROOT
BRANCH   3   4
HETATM    4  S1  UNL     1       8.852  12.753 -16.170  1.00  0.00    -0.087 SA
BRANCH   4   5
HETATM    5  C7  UNL     1       7.564  12.560 -14.948  1.00  0.00     0.182 C
HETATM    6  C8  UNL     1       7.926  12.224 -13.548  1.00  0.00     0.104 C
HETATM    7  O1  UNL     1       6.412  12.697 -15.250  1.00  0.00    -0.286 OA
ENDBRANCH   4   5
ENDBRANCH   3   4
BRANCH   1   8
HETATM    8  C3  UNL     1       7.392  15.044 -17.937  1.00  0.00    -0.025 C
HETATM    9  C2  UNL     1       7.361  14.893 -19.250  1.00  0.00    -0.035 C
HETATM   10  C1  UNL     1       6.110  14.560 -19.960  1.00  0.00     0.036 C
ENDBRANCH   1   8
TORSDOF 3
ENDMDL