MODEL 4
REMARK VINA RESULT: -5.595228144      1.297      2.373
REMARK  2 active torsions:
REMARK  status: ('A' for Active; 'I' for Inactive)
REMARK    1  A    between atoms: C2_2  and  C3_3
REMARK    2  A    between atoms: C2_2  and  C7_7
ROOT
HETATM    1  C1  UNL     1       8.825  16.265 -15.505  1.00  0.00     0.015 C
HETATM    2  C2  UNL     1       8.187  14.979 -15.933  1.00  0.00     0.041 C
ENDROOT
BRANCH   2   3
HETATM    3  C3  UNL     1       8.373  14.733 -17.395  1.00  0.00    -0.006 C
HETATM    4  C4  UNL     1       8.796  15.893 -18.234  1.00  0.00     0.005 C
HETATM    5  C5  UNL     1       7.871  15.321 -19.321  1.00  0.00     0.001 C
HETATM    6  C6  UNL     1       7.040  14.788 -18.145  1.00  0.00     0.005 C
ENDBRANCH   2   3
BRANCH   2   7
HETATM    7  C7  UNL     1       8.672  13.847 -15.072  1.00  0.00     0.263 C
HETATM    8  O1  UNL     1       8.523  12.618 -15.684  1.00  0.00    -0.359 OA
HETATM    9  C8  UNL     1       8.227  11.698 -14.686  1.00  0.00     0.197 C
HETATM   10  C9  UNL     1       7.820  12.506 -13.498  1.00  0.00     0.197 C
HETATM   11  O2  UNL     1       7.892  13.826 -13.924  1.00  0.00    -0.359 OA
ENDBRANCH   2   7
TORSDOF 2
ENDMDL