MODEL 2
REMARK VINA RESULT: -6.560312941      0.859      1.835
REMARK  2 active torsions:
REMARK  status: ('A' for Active; 'I' for Inactive)
REMARK    1  A    between atoms: C2_2  and  C3_3
REMARK    2  A    between atoms: C2_2  and  C4_6
ROOT
HETATM    1  C4  UNL     1       8.401  14.483 -15.779  1.00  0.00    -0.001 C
HETATM    2  C5  UNL     1       8.963  15.819 -15.382  1.00  0.00     0.005 C
HETATM    3  C6  UNL     1       8.279  16.920 -16.198  1.00  0.00     0.000 C
HETATM    4  C7  UNL     1       8.426  16.728 -17.658  1.00  0.00     0.000 C
HETATM    5  C8  UNL     1       8.948  15.400 -18.067  1.00  0.00     0.000 C
HETATM    6  C9  UNL     1       8.445  14.242 -17.273  1.00  0.00     0.005 C
ENDROOT
BRANCH   1   7
HETATM    7  C2  UNL     1       9.030  13.328 -15.115  1.00  0.00     0.087 C
HETATM    8  C1  UNL     1       8.770  12.086 -15.945  1.00  0.00     0.021 C
BRANCH   7   9
HETATM    9  C3  UNL     1       8.632  13.040 -13.743  1.00  0.00     0.177 C
HETATM   10  O1  UNL     1       9.228  12.382 -12.888  1.00  0.00    -0.648 OA
HETATM   11  O2  UNL     1       7.403  13.581 -13.320  1.00  0.00    -0.648 OA
ENDBRANCH   7   9
ENDBRANCH   1   7
TORSDOF 2
ENDMDL