MODEL 2
REMARK VINA RESULT: -6.134191548      0.070      1.038
REMARK  2 active torsions:
REMARK  status: ('A' for Active; 'I' for Inactive)
REMARK    1  A    between atoms: C2_2  and  C4_4
REMARK    2  A    between atoms: C6_6  and  C8_8
ROOT
HETATM    1  C4  UNL     1       8.844  14.349 -17.151  1.00  0.00     0.154 C
HETATM    2  C5  UNL     1       7.550  13.854 -16.536  1.00  0.00     0.082 C
HETATM    3  C6  UNL     1       8.571  13.247 -15.584  1.00  0.00     0.120 C
HETATM    4  C7  UNL     1       9.040  11.900 -16.081  1.00  0.00     0.055 C
HETATM    5  O2  UNL     1       9.393  14.309 -15.873  1.00  0.00    -0.363 OA
ENDROOT
BRANCH   3   6
HETATM    6  C8  UNL     1       8.112  13.142 -14.186  1.00  0.00     0.157 C
HETATM    7  C9  UNL     1       7.850  11.844 -13.521  1.00  0.00     0.094 C
HETATM    8  O1  UNL     1       7.939  14.158 -13.540  1.00  0.00    -0.295 OA
ENDBRANCH   3   6
BRANCH   1   9
HETATM    9  C2  UNL     1       8.711  15.679 -17.755  1.00  0.00    -0.064 C
HETATM   10  C1  UNL     1       8.445  16.726 -16.989  1.00  0.00     0.016 C
HETATM   11  C3  UNL     1       8.872  15.857 -19.221  1.00  0.00     0.045 C
ENDBRANCH   1   9
TORSDOF 2
ENDMDL