MODEL 2
REMARK VINA RESULT: -6.029955034      1.102      1.440
REMARK  2 active torsions:
REMARK  status: ('A' for Active; 'I' for Inactive)
REMARK    1  A    between atoms: C2_2  and  C3_4
REMARK    2  A    between atoms: C5_6  and  C6_7
ROOT
HETATM    1  C3  UNL     1       8.826  13.916 -15.214  1.00  0.00     0.193 C
HETATM    2  C4  UNL     1       8.966  13.399 -16.654  1.00  0.00     0.072 C
HETATM    3  C5  UNL     1       8.919  14.897 -16.862  1.00  0.00     0.129 C
HETATM    4  O2  UNL     1       8.054  14.956 -15.774  1.00  0.00    -0.372 OA
ENDROOT
BRANCH   3   5
HETATM    5  C6  UNL     1       8.384  15.380 -18.164  1.00  0.00     0.015 C
HETATM    6  C7  UNL     1       8.524  16.863 -18.427  1.00  0.00     0.007 C
HETATM    7  C8  UNL     1       8.713  16.489 -19.904  1.00  0.00     0.001 C
HETATM    8  C9  UNL     1       9.199  15.128 -19.383  1.00  0.00     0.007 C
ENDBRANCH   3   5
BRANCH   1   9
HETATM    9  C2  UNL     1       8.057  13.018 -14.328  1.00  0.00     0.151 C
HETATM   10  C1  UNL     1       7.823  11.619 -14.759  1.00  0.00     0.093 C
HETATM   11  O1  UNL     1       7.644  13.465 -13.270  1.00  0.00    -0.296 OA
ENDBRANCH   1   9
TORSDOF 2
ENDMDL