MODEL 4
REMARK VINA RESULT: -7.086325563      1.620      1.849
REMARK  7 active torsions:
REMARK  status: ('A' for Active; 'I' for Inactive)
REMARK    1  A    between atoms: C2_2  and  C3_3
REMARK    2  A    between atoms: C3_3  and  C4_4
REMARK    3  A    between atoms: C4_4  and  C5_5
REMARK    4  A    between atoms: C5_5  and  C6_6
REMARK    5  A    between atoms: C7_9  and  C8_10
REMARK    6  A    between atoms: C14_24  and  C15_25
REMARK    7  A    between atoms: C15_25  and  C16_26
ROOT
HETATM    1  C8  UNL     1       1.672  76.616   7.589  1.00  0.00     0.059 A
HETATM    2  C9  UNL     1       2.207  76.601   8.860  1.00  0.00     0.143 A
HETATM    3  C10 UNL     1       1.802  77.461   9.944  1.00  0.00     0.120 C
HETATM    4  N2  UNL     1       1.489  78.160  10.816  1.00  0.00    -0.190 NA
HETATM    5  N3  UNL     1       3.168  75.637   8.878  1.00  0.00    -0.290 N
ATOM      6  H3  UNL     1       3.737  75.397   9.691  1.00  0.00     0.188 HD
HETATM    7  N4  UNL     1       3.262  75.054   7.695  1.00  0.00    -0.303 N
ATOM      8  H4  UNL     1       3.902  74.302   7.441  1.00  0.00     0.186 HD
HETATM    9  C11 UNL     1       2.354  75.636   6.885  1.00  0.00     0.037 A
HETATM   10  C12 UNL     1       2.080  75.315   5.450  1.00  0.00     0.070 C
ENDROOT
BRANCH   1  11
HETATM   11  C7  UNL     1       0.606  77.471   7.068  1.00  0.00     0.116 A
HETATM   12  N1  UNL     1      -0.646  77.014   6.875  1.00  0.00    -0.353 N
HETATM   13  C6  UNL     1      -1.648  77.816   6.390  1.00  0.00     0.032 A
ATOM     14  H1  UNL     1      -0.856  76.041   7.096  1.00  0.00     0.166 HD
HETATM   15  C14 UNL     1      -1.338  79.118   6.099  1.00  0.00     0.035 A
HETATM   16  N5  UNL     1      -0.073  79.603   6.288  1.00  0.00    -0.323 N
HETATM   17  C13 UNL     1       0.857  78.790   6.758  1.00  0.00     0.273 A
ATOM     18  H5  UNL     1       0.148  80.574   6.070  1.00  0.00     0.169 HD
HETATM   19  O1  UNL     1       2.030  79.260   6.928  1.00  0.00    -0.266 OA
BRANCH  13  20
HETATM   20  C5  UNL     1      -3.018  77.276   6.254  1.00  0.00     0.059 C
BRANCH  20  21
HETATM   21  C4  UNL     1      -3.058  75.777   6.094  1.00  0.00     0.006 C
BRANCH  21  22
HETATM   22  C3  UNL     1      -3.210  75.342   4.672  1.00  0.00     0.000 C
BRANCH  22  23
HETATM   23  C2  UNL     1      -4.447  74.517   4.416  1.00  0.00    -0.005 C
HETATM   24  C1  UNL     1      -5.402  75.421   3.619  1.00  0.00     0.005 C
ENDBRANCH  22  23
ENDBRANCH  21  22
ENDBRANCH  20  21
ENDBRANCH  13  20
BRANCH  15  25
HETATM   25  C15 UNL     1      -2.296  80.061   5.508  1.00  0.00     0.073 C
BRANCH  25  26
HETATM   26  C16 UNL     1      -1.672  81.410   5.146  1.00  0.00     0.130 C
HETATM   27  C17 UNL     1      -2.611  82.472   5.591  1.00  0.00     0.059 C
HETATM   28  N6  UNL     1      -3.345  83.288   5.943  1.00  0.00    -0.197 NA
ENDBRANCH  25  26
ENDBRANCH  15  25
ENDBRANCH   1  11
TORSDOF 7
ENDMDL