MODEL 4
REMARK VINA RESULT: -6.264584093      1.975      2.714
REMARK  10 active torsions:
REMARK  status: ('A' for Active; 'I' for Inactive)
REMARK    1  A    between atoms: C2_2  and  C3_3
REMARK    2  A    between atoms: C3_3  and  C4_4
REMARK    3  A    between atoms: C3_3  and  C8_10
REMARK    4  A    between atoms: C4_4  and  C5_5
REMARK    5  A    between atoms: C5_5  and  C6_6
REMARK    6  A    between atoms: C6_6  and  O2_8
REMARK    7  A    between atoms: C8_10  and  C9_12
REMARK    8  A    between atoms: C9_12  and  C11_14
REMARK    9  A    between atoms: C17_20  and  O4_21
REMARK   10  A    between atoms: C18_23  and  O5_24
ROOT
HETATM    1  C9  UNL     1      -0.384  76.615   7.625  1.00  0.00     0.058 C
HETATM    2  C10 UNL     1      -1.437  75.704   8.129  1.00  0.00     0.018 C
ENDROOT
BRANCH   1   3
HETATM    3  C8  UNL     1      -0.590  76.965   6.212  1.00  0.00     0.135 C
HETATM    4  O3  UNL     1       0.042  76.494   5.288  1.00  0.00    -0.297 OA
BRANCH   3   5
HETATM    5  C3  UNL     1      -1.633  77.961   5.825  1.00  0.00     0.056 C
BRANCH   5   6
HETATM    6  C2  UNL     1      -1.219  79.313   6.285  1.00  0.00     0.007 C
HETATM    7  C1  UNL     1      -1.761  80.489   5.537  1.00  0.00     0.006 C
ENDBRANCH   5   6
BRANCH   5   8
HETATM    8  C4  UNL     1      -2.974  77.469   6.175  1.00  0.00     0.022 C
BRANCH   8   9
HETATM    9  C5  UNL     1      -4.107  77.696   5.248  1.00  0.00     0.112 C
BRANCH   9  10
HETATM   10  C6  UNL     1      -4.191  76.511   4.312  1.00  0.00     0.258 C
HETATM   11  O1  UNL     1      -4.790  76.560   3.214  1.00  0.00    -0.265 OA
BRANCH  10  12
HETATM   12  O2  UNL     1      -3.582  75.331   4.689  1.00  0.00    -0.326 OA
HETATM   13  C7  UNL     1      -4.395  74.250   5.117  1.00  0.00     0.213 C
ENDBRANCH  10  12
ENDBRANCH   9  10
ENDBRANCH   8   9
ENDBRANCH   5   8
ENDBRANCH   3   5
ENDBRANCH   1   3
BRANCH   1  14
HETATM   14  C11 UNL     1       1.028  76.160   7.880  1.00  0.00     0.033 C
HETATM   15  C12 UNL     1       1.271  74.726   8.096  1.00  0.00     0.022 C
HETATM   16  C13 UNL     1       2.638  74.423   7.444  1.00  0.00     0.009 C
HETATM   17  C17 UNL     1       1.770  74.587   9.554  1.00  0.00     0.133 C
HETATM   18  C14 UNL     1       3.505  75.414   8.245  1.00  0.00     0.015 C
HETATM   19  C15 UNL     1       2.705  75.802   9.452  1.00  0.00     0.009 C
HETATM   20  C16 UNL     1       3.457  76.097  10.664  1.00  0.00     0.020 C
HETATM   21  C18 UNL     1       1.690  76.844   9.030  1.00  0.00     0.134 C
BRANCH  21  22
HETATM   22  O5  UNL     1       0.873  77.260  10.040  1.00  0.00    -0.394 OA
ATOM     23  H5  UNL     1      -0.027  77.451   9.803  1.00  0.00     0.210 HD
ENDBRANCH  21  22
BRANCH  17  24
HETATM   24  O4  UNL     1       2.511  73.409   9.631  1.00  0.00    -0.394 OA
ATOM     25  H4  UNL     1       1.916  72.687   9.463  1.00  0.00     0.210 HD
ENDBRANCH  17  24
ENDBRANCH   1  14
TORSDOF 10
ENDMDL