MODEL 1
REMARK VINA RESULT: -7.364880253      0.000      0.000
REMARK  7 active torsions:
REMARK  status: ('A' for Active; 'I' for Inactive)
REMARK    1  A    between atoms: C2_2  and  C3_3
REMARK       I    between atoms: C3_3  and  N1_5
REMARK    2  A    between atoms: N1_5  and  C4_6
REMARK    3  A    between atoms: N1_5  and  C9_20
REMARK    4  A    between atoms: C5_9  and  C6_10
REMARK    5  A    between atoms: C6_10  and  S1_11
REMARK    6  A    between atoms: S1_11  and  C7_12
REMARK    7  A    between atoms: C7_12  and  C8_13
ROOT
HETATM    1  C4  UNL     1      -0.918  76.020   6.762  1.00  0.00     0.703 A
HETATM    2  N2  UNL     1       0.234  75.505   6.339  1.00  0.00    -0.177 N
ATOM      3  H2  UNL     1       0.642  75.628   5.412  1.00  0.00     0.185 HD
HETATM    4  C5  UNL     1       0.764  74.794   7.350  1.00  0.00     0.121 A
HETATM    5  N3  UNL     1      -0.094  74.893   8.391  1.00  0.00    -0.274 N
ATOM      6  H3  UNL     1       0.029  74.460   9.306  1.00  0.00     0.189 HD
HETATM    7  N4  UNL     1      -1.110  75.637   8.027  1.00  0.00    -0.130 N
ATOM      8  H4  UNL     1      -1.911  75.881   8.610  1.00  0.00     0.205 HD
ENDROOT
BRANCH   1   9
HETATM    9  N1  UNL     1      -1.844  76.850   6.040  1.00  0.00    -0.145 N
HETATM   10  C3  UNL     1      -1.736  78.245   6.197  1.00  0.00     0.238 C
HETATM   11  O1  UNL     1      -0.804  78.669   6.965  1.00  0.00    -0.273 OA
BRANCH  10  12
HETATM   12  C2  UNL     1      -2.628  79.242   5.535  1.00  0.00     0.099 C
HETATM   13  C1  UNL     1      -1.951  80.578   5.447  1.00  0.00     0.014 C
ENDBRANCH  10  12
BRANCH   9  14
HETATM   14  C9  UNL     1      -2.848  76.298   5.174  1.00  0.00     0.111 C
HETATM   15  C10 UNL     1      -4.247  76.789   5.560  1.00  0.00     0.026 C
HETATM   16  C11 UNL     1      -5.170  76.469   4.386  1.00  0.00     0.002 C
HETATM   17  C12 UNL     1      -5.060  75.036   3.965  1.00  0.00     0.000 C
HETATM   18  C13 UNL     1      -4.301  74.264   5.012  1.00  0.00     0.002 C
HETATM   19  C14 UNL     1      -2.901  74.799   5.183  1.00  0.00     0.026 C
ENDBRANCH   9  14
ENDBRANCH   1   9
BRANCH   4  20
HETATM   20  C6  UNL     1       2.018  74.009   7.333  1.00  0.00     0.152 C
BRANCH  20  21
HETATM   21  S1  UNL     1       2.914  74.068   5.819  1.00  0.00    -0.151 SA
BRANCH  21  22
HETATM   22  C7  UNL     1       3.647  72.564   5.219  1.00  0.00     0.187 C
BRANCH  22  23
HETATM   23  C8  UNL     1       3.441  72.298   3.784  1.00  0.00     0.182 C
HETATM   24  O2  UNL     1       3.277  73.187   2.952  1.00  0.00    -0.647 OA
HETATM   25  O3  UNL     1       3.434  70.971   3.360  1.00  0.00    -0.647 OA
ENDBRANCH  22  23
ENDBRANCH  21  22
ENDBRANCH  20  21
ENDBRANCH   4  20
TORSDOF 7
ENDMDL