MODEL 2
REMARK VINA RESULT: -6.771260047      0.974      1.765
REMARK  9 active torsions:
REMARK  status: ('A' for Active; 'I' for Inactive)
REMARK    1  A    between atoms: O1_2  and  C2_3
REMARK    2  A    between atoms: C2_3  and  C3_5
REMARK    3  A    between atoms: C3_5  and  C6_8
REMARK    4  A    between atoms: C8_10  and  C9_11
REMARK    5  A    between atoms: C9_11  and  C11_14
REMARK    6  A    between atoms: C11_14  and  O3_15
REMARK    7  A    between atoms: C11_14  and  N2_17
REMARK    8  A    between atoms: N2_17  and  C12_19
REMARK    9  A    between atoms: C12_19  and  C13_20
ROOT
HETATM    1  C9  UNL     1       0.055  77.663   7.086  1.00  0.00     0.145 C
HETATM    2  C10 UNL     1       1.067  76.828   6.369  1.00  0.00     0.068 C
HETATM    3  N1  UNL     1       1.852  76.196   5.787  1.00  0.00    -0.197 NA
ENDROOT
BRANCH   1   4
HETATM    4  C8  UNL     1      -0.232  78.777   6.109  1.00  0.00     0.013 A
HETATM    5  C6  UNL     1      -0.503  80.163   6.453  1.00  0.00     0.009 A
HETATM    6  C7  UNL     1      -1.621  79.266   5.904  1.00  0.00     0.012 A
BRANCH   5   7
HETATM    7  C3  UNL     1       0.003  81.240   5.490  1.00  0.00     0.045 C
HETATM    8  C4  UNL     1       1.226  80.724   4.795  1.00  0.00     0.026 C
HETATM    9  C5  UNL     1      -1.037  81.599   4.472  1.00  0.00     0.026 C
BRANCH   7  10
HETATM   10  C2  UNL     1       0.339  82.446   6.264  1.00  0.00     0.266 C
HETATM   11  O2  UNL     1      -0.543  83.287   6.640  1.00  0.00    -0.264 OA
BRANCH  10  12
HETATM   12  O1  UNL     1       1.673  82.670   6.595  1.00  0.00    -0.326 OA
HETATM   13  C1  UNL     1       2.019  82.725   7.967  1.00  0.00     0.213 C
ENDBRANCH  10  12
ENDBRANCH   7  10
ENDBRANCH   5   7
ENDBRANCH   1   4
BRANCH   1  14
HETATM   14  C11 UNL     1      -1.128  76.820   7.403  1.00  0.00     0.231 C
BRANCH  14  15
HETATM   15  O3  UNL     1      -0.792  76.233   8.687  1.00  0.00    -0.376 OA
ATOM     16  H3  UNL     1      -1.515  76.493   9.245  1.00  0.00     0.212 HD
ENDBRANCH  14  15
BRANCH  14  17
HETATM   17  N2  UNL     1      -1.286  75.649   6.595  1.00  0.00    -0.395 N
ATOM     18  H2  UNL     1      -0.759  74.806   6.823  1.00  0.00     0.155 HD
BRANCH  17  19
HETATM   19  C12 UNL     1      -2.151  75.643   5.502  1.00  0.00     0.120 C
BRANCH  19  20
HETATM   20  C13 UNL     1      -3.610  75.540   5.977  1.00  0.00     0.003 C
HETATM   21  C14 UNL     1      -4.200  74.225   5.456  1.00  0.00     0.006 C
HETATM   22  C15 UNL     1      -4.498  74.283   3.990  1.00  0.00     0.000 C
HETATM   23  C16 UNL     1      -5.401  75.456   3.691  1.00  0.00     0.000 C
HETATM   24  C17 UNL     1      -4.594  76.723   4.014  1.00  0.00     0.000 C
HETATM   25  C18 UNL     1      -4.437  76.691   5.530  1.00  0.00     0.006 C
ENDBRANCH  19  20
ENDBRANCH  17  19
ENDBRANCH  14  17
ENDBRANCH   1  14
TORSDOF 9
ENDMDL