MODEL 4
REMARK VINA RESULT: -5.804997677      1.665      2.483
REMARK  8 active torsions:
REMARK  status: ('A' for Active; 'I' for Inactive)
REMARK    1  A    between atoms: C2_2  and  N1_4
REMARK    2  A    between atoms: N1_4  and  C4_5
REMARK    3  A    between atoms: N1_4  and  C7_14
REMARK    4  A    between atoms: C4_5  and  C5_6
REMARK    5  A    between atoms: C5_6  and  N2_7
REMARK    6  A    between atoms: C5_6  and  C6_11
REMARK    7  A    between atoms: C8_17  and  C9_18
REMARK    8  A    between atoms: C13_24  and  C14_25
ROOT
HETATM    1  C7  UNL     1      -0.530  79.413   6.249  1.00  0.00     0.121 A
HETATM    2  N3  UNL     1      -0.999  78.110   6.503  1.00  0.00    -0.331 N
ATOM      3  H3  UNL     1      -0.342  77.440   6.901  1.00  0.00     0.168 HD
HETATM    4  C8  UNL     1      -2.215  77.698   6.264  1.00  0.00     0.086 A
HETATM    5  N4  UNL     1      -3.085  78.568   5.745  1.00  0.00    -0.355 N
ATOM      6  H4  UNL     1      -4.041  78.271   5.551  1.00  0.00     0.166 HD
HETATM    7  C12 UNL     1      -2.720  79.813   5.479  1.00  0.00     0.101 A
HETATM    8  C13 UNL     1      -1.406  80.308   5.722  1.00  0.00     0.009 A
ENDROOT
BRANCH   1   9
HETATM    9  N1  UNL     1       0.803  79.596   6.519  1.00  0.00    -0.317 N
BRANCH   9  10
HETATM   10  C2  UNL     1       1.763  79.544   5.407  1.00  0.00    -0.013 C
HETATM   11  C1  UNL     1       2.827  80.548   5.383  1.00  0.00     0.063 C
HETATM   12  C3  UNL     1       2.213  78.201   4.984  1.00  0.00     0.063 C
ENDBRANCH   9  10
BRANCH   9  13
HETATM   13  C4  UNL     1       1.487  79.766   7.741  1.00  0.00     0.115 C
BRANCH  13  14
HETATM   14  C5  UNL     1       2.131  78.708   8.503  1.00  0.00     0.322 C
BRANCH  14  15
HETATM   15  N2  UNL     1       3.070  79.442   9.449  1.00  0.00    -0.061 N
ATOM     16  H23 UNL     1       2.810  80.412   9.624  1.00  0.00     0.275 HD
ATOM     17  H22 UNL     1       3.010  79.133  10.419  1.00  0.00     0.275 HD
ATOM     18  H21 UNL     1       3.992  79.326   9.030  1.00  0.00     0.275 HD
ENDBRANCH  14  15
BRANCH  14  19
HETATM   19  C6  UNL     1       1.414  77.815   9.394  1.00  0.00     0.209 C
HETATM   20  O1  UNL     1       0.371  77.165   9.034  1.00  0.00    -0.646 OA
HETATM   21  O2  UNL     1       1.840  77.612  10.736  1.00  0.00    -0.646 OA
ENDBRANCH  14  19
ENDBRANCH  13  14
ENDBRANCH   9  13
ENDBRANCH   1   9
BRANCH   8  22
HETATM   22  C14 UNL     1      -1.192  81.677   5.394  1.00  0.00    -0.019 C
HETATM   23  C15 UNL     1      -0.610  81.751   3.931  1.00  0.00     0.019 C
HETATM   24  C16 UNL     1      -0.230  82.559   6.109  1.00  0.00     0.019 C
HETATM   25  C17 UNL     1      -2.518  82.409   5.152  1.00  0.00     0.019 C
ENDBRANCH   8  22
BRANCH   4  26
HETATM   26  C9  UNL     1      -2.686  76.316   6.539  1.00  0.00     0.053 A
HETATM   27  C10 UNL     1      -3.941  75.814   5.969  1.00  0.00     0.013 A
HETATM   28  C11 UNL     1      -2.707  75.433   5.261  1.00  0.00     0.013 A
ENDBRANCH   4  26
TORSDOF 8
ENDMDL