MODEL 1
REMARK VINA RESULT: -7.078075599      0.000      0.000
REMARK  9 active torsions:
REMARK  status: ('A' for Active; 'I' for Inactive)
REMARK    1  A    between atoms: C2_2  and  C3_3
REMARK    2  A    between atoms: C3_3  and  C4_4
REMARK    3  A    between atoms: C4_4  and  C5_5
REMARK    4  A    between atoms: C7_7  and  C8_8
REMARK    5  A    between atoms: C8_8  and  O1_9
REMARK    6  A    between atoms: O1_9  and  C9_10
REMARK    7  A    between atoms: C10_11  and  C11_12
REMARK    8  A    between atoms: C11_12  and  O2_13
REMARK    9  A    between atoms: C13_16  and  O3_17
ROOT
HETATM    1  C5  UNL     1      -0.748  78.251   6.986  1.00  0.00     0.127 C
HETATM    2  C6  UNL     1      -0.921  77.215   5.883  1.00  0.00     0.072 C
HETATM    3  C7  UNL     1      -0.886  75.859   6.594  1.00  0.00     0.090 C
HETATM    4  C12 UNL     1       0.377  75.118   6.236  1.00  0.00     0.073 C
HETATM    5  C13 UNL     1       1.009  74.646   7.519  1.00  0.00     0.133 C
HETATM    6  C14 UNL     1       1.389  75.849   8.338  1.00  0.00     0.028 C
HETATM    7  C15 UNL     1       2.501  76.643   7.716  1.00  0.00     0.022 C
HETATM    8  C16 UNL     1       1.856  75.447   9.733  1.00  0.00     0.022 C
HETATM    9  C17 UNL     1       0.167  76.741   8.427  1.00  0.00     0.271 C
HETATM   10  O4  UNL     1       0.358  77.935   7.740  1.00  0.00    -0.355 OA
HETATM   11  O5  UNL     1      -0.968  76.100   7.958  1.00  0.00    -0.347 OA
ENDROOT
BRANCH   3  12
HETATM   12  C8  UNL     1      -2.103  75.093   6.143  1.00  0.00     0.212 C
BRANCH  12  13
HETATM   13  O1  UNL     1      -3.208  75.978   6.231  1.00  0.00    -0.360 OA
BRANCH  13  14
HETATM   14  C9  UNL     1      -4.335  75.675   5.498  1.00  0.00     0.132 C
HETATM   15  C10 UNL     1      -4.259  75.660   4.178  1.00  0.00     0.023 C
BRANCH  15  16
HETATM   16  C11 UNL     1      -5.453  75.337   3.330  1.00  0.00     0.193 C
BRANCH  16  17
HETATM   17  O2  UNL     1      -6.467  76.214   3.638  1.00  0.00    -0.397 OA
ATOM     18  H2  UNL     1      -7.004  75.834   4.324  1.00  0.00     0.209 HD
ENDBRANCH  16  17
ENDBRANCH  15  16
ENDBRANCH  13  14
ENDBRANCH  12  13
ENDBRANCH   3  12
BRANCH   1  19
HETATM   19  C4  UNL     1      -0.567  79.614   6.352  1.00  0.00     0.032 C
BRANCH  19  20
HETATM   20  C3  UNL     1      -1.899  79.913   5.647  1.00  0.00     0.002 C
BRANCH  20  21
HETATM   21  C2  UNL     1      -1.884  81.369   5.237  1.00  0.00    -0.004 C
HETATM   22  C1  UNL     1      -3.261  81.937   5.564  1.00  0.00     0.005 C
ENDBRANCH  20  21
ENDBRANCH  19  20
ENDBRANCH   1  19
BRANCH   5  23
HETATM   23  O3  UNL     1       2.056  73.765   7.324  1.00  0.00    -0.395 OA
ATOM     24  H3  UNL     1       2.170  73.149   8.038  1.00  0.00     0.210 HD
ENDBRANCH   5  23
TORSDOF 9
ENDMDL