MODEL 2
REMARK VINA RESULT: -6.608019027      5.169      7.463
REMARK  8 active torsions:
REMARK  status: ('A' for Active; 'I' for Inactive)
REMARK    1  A    between atoms: C1_2  and  C2_3
REMARK       I    between atoms: C1_2  and  N2_18
REMARK    2  A    between atoms: C2_3  and  C3_4
REMARK    3  A    between atoms: C3_4  and  C4_5
REMARK    4  A    between atoms: C4_5  and  C5_6
REMARK    5  A    between atoms: C5_6  and  C6_7
REMARK    6  A    between atoms: C6_7  and  S1_8
REMARK    7  A    between atoms: S1_8  and  C7_9
REMARK    8  A    between atoms: C9_15  and  O3_16
ROOT
HETATM    1  C5  UNL     1      -0.294  77.648   5.842  1.00  0.00     0.010 C
ENDROOT
BRANCH   1   2
HETATM    2  C4  UNL     1      -1.319  78.432   6.650  1.00  0.00     0.001 C
BRANCH   2   3
HETATM    3  C3  UNL     1      -1.911  79.545   5.804  1.00  0.00     0.009 C
BRANCH   3   4
HETATM    4  C2  UNL     1      -0.935  80.706   5.733  1.00  0.00     0.103 C
BRANCH   4   5
HETATM    5  C1  UNL     1      -1.364  81.698   4.711  1.00  0.00     0.219 C
HETATM    6  O1  UNL     1      -2.557  82.092   4.731  1.00  0.00    -0.273 OA
HETATM    7  N2  UNL     1      -0.469  82.200   3.727  1.00  0.00    -0.352 N
HETATM    8  C10 UNL     1       0.936  81.790   3.636  1.00  0.00     0.126 C
HETATM    9  C13 UNL     1      -0.784  83.161   2.694  1.00  0.00     0.126 C
HETATM   10  C11 UNL     1       1.550  82.893   2.766  1.00  0.00     0.021 C
HETATM   11  C12 UNL     1       0.420  83.101   1.782  1.00  0.00     0.021 C
ENDBRANCH   4   5
ENDBRANCH   3   4
ENDBRANCH   2   3
ENDBRANCH   1   2
BRANCH   1  12
HETATM   12  C6  UNL     1      -0.617  76.172   5.854  1.00  0.00     0.080 C
BRANCH  12  13
HETATM   13  S1  UNL     1      -2.073  75.804   6.863  1.00  0.00    -0.118 SA
BRANCH  13  14
HETATM   14  C7  UNL     1      -3.482  75.593   5.759  1.00  0.00     0.097 A
HETATM   15  S2  UNL     1      -4.253  76.738   4.742  1.00  0.00    -0.018 SA
HETATM   16  C8  UNL     1      -5.446  75.714   4.084  1.00  0.00     0.291 A
HETATM   17  O2  UNL     1      -6.364  75.987   3.230  1.00  0.00    -0.260 OA
HETATM   18  N1  UNL     1      -5.200  74.544   4.674  1.00  0.00    -0.296 N
HETATM   19  C9  UNL     1      -4.217  74.464   5.519  1.00  0.00     0.167 A
ATOM     20  H1  UNL     1      -5.772  73.727   4.465  1.00  0.00     0.171 HD
BRANCH  19  21
HETATM   21  O3  UNL     1      -3.868  73.266   6.203  1.00  0.00    -0.345 OA
ATOM     22  H3  UNL     1      -3.093  73.266   6.751  1.00  0.00     0.219 HD
ENDBRANCH  19  21
ENDBRANCH  13  14
ENDBRANCH  12  13
ENDBRANCH   1  12
TORSDOF 8
ENDMDL