MODEL 2
REMARK VINA RESULT: -6.598816930      1.051      1.515
REMARK  9 active torsions:
REMARK  status: ('A' for Active; 'I' for Inactive)
REMARK    1  A    between atoms: C2_2  and  C3_3
REMARK    2  A    between atoms: C3_3  and  C4_4
REMARK    3  A    between atoms: C4_4  and  C5_5
REMARK    4  A    between atoms: C5_5  and  C6_6
REMARK    5  A    between atoms: C6_6  and  C7_7
REMARK    6  A    between atoms: C7_7  and  C8_8
REMARK    7  A    between atoms: C16_19  and  O2_20
REMARK    8  A    between atoms: C17_22  and  O3_23
REMARK    9  A    between atoms: O3_23  and  O4_24
ROOT
HETATM    1  C8  UNL     1      -1.000  75.915   6.941  1.00  0.00     0.045 C
HETATM    2  N1  UNL     1      -1.027  75.215   8.077  1.00  0.00    -0.271 N
ATOM      3  H1  UNL     1      -1.916  74.944   8.497  1.00  0.00     0.193 HD
HETATM    4  O1  UNL     1       0.193  74.856   8.690  1.00  0.00    -0.270 OA
HETATM    5  C9  UNL     1       1.349  74.495   7.982  1.00  0.00     0.187 C
HETATM    6  C10 UNL     1       0.911  74.708   6.526  1.00  0.00     0.084 C
HETATM    7  C11 UNL     1       0.417  76.125   6.643  1.00  0.00     0.110 C
HETATM    8  C12 UNL     1       0.966  76.701   5.411  1.00  0.00     0.071 C
HETATM    9  C13 UNL     1       2.455  76.788   5.782  1.00  0.00    -0.023 C
HETATM   10  C14 UNL     1       3.062  75.942   6.751  1.00  0.00     0.004 C
HETATM   11  C15 UNL     1       2.523  75.418   8.008  1.00  0.00    -0.016 C
HETATM   12  C16 UNL     1       2.354  76.471   9.114  1.00  0.00     0.207 C
HETATM   13  C17 UNL     1       1.095  77.244   8.703  1.00  0.00     0.330 C
HETATM   14  O5  UNL     1       0.761  77.009   7.523  1.00  0.00    -0.338 OA
ENDROOT
BRANCH   1  15
HETATM   15  C7  UNL     1      -2.169  76.344   6.215  1.00  0.00     0.058 C
BRANCH  15  16
HETATM   16  C6  UNL     1      -2.421  77.811   6.152  1.00  0.00     0.006 C
BRANCH  16  17
HETATM   17  C5  UNL     1      -3.711  78.041   5.377  1.00  0.00     0.001 C
BRANCH  17  18
HETATM   18  C4  UNL     1      -4.467  76.737   5.357  1.00  0.00     0.004 C
BRANCH  18  19
HETATM   19  C3  UNL     1      -5.063  76.520   3.998  1.00  0.00     0.026 C
BRANCH  19  20
HETATM   20  C2  UNL     1      -5.080  75.092   3.602  1.00  0.00    -0.037 C
HETATM   21  C1  UNL     1      -4.134  74.283   4.019  1.00  0.00     0.007 C
ENDBRANCH  19  20
ENDBRANCH  18  19
ENDBRANCH  17  18
ENDBRANCH  16  17
ENDBRANCH  15  16
ENDBRANCH   1  15
BRANCH  13  22
HETATM   22  O3  UNL     1       1.490  78.606   8.824  1.00  0.00    -0.207 OA
BRANCH  22  23
HETATM   23  O4  UNL     1       1.287  79.303   7.762  1.00  0.00    -0.248 OA
ATOM     24  H4  UNL     1       1.820  79.039   7.021  1.00  0.00     0.253 HD
ENDBRANCH  22  23
ENDBRANCH  13  22
BRANCH  12  25
HETATM   25  O2  UNL     1       3.499  77.254   9.065  1.00  0.00    -0.386 OA
ATOM     26  H2  UNL     1       4.207  76.660   8.848  1.00  0.00     0.210 HD
ENDBRANCH  12  25
TORSDOF 9
ENDMDL