MODEL 4
REMARK VINA RESULT: -6.461772759      4.419      6.419
REMARK  9 active torsions:
REMARK  status: ('A' for Active; 'I' for Inactive)
REMARK    1  A    between atoms: C2_2  and  C16_23
REMARK    2  A    between atoms: C3_3  and  C4_4
REMARK    3  A    between atoms: C4_4  and  C5_5
REMARK    4  A    between atoms: C5_5  and  C6_6
REMARK    5  A    between atoms: C6_6  and  C7_8
REMARK    6  A    between atoms: C8_9  and  C9_10
REMARK    7  A    between atoms: C11_12  and  O2_13
REMARK    8  A    between atoms: C11_12  and  C12_15
REMARK    9  A    between atoms: C12_15  and  O3_16
ROOT
HETATM    1  C9  UNL     1       0.932  76.211   6.597  1.00  0.00     0.062 C
HETATM    2  C10 UNL     1      -0.146  76.847   5.711  1.00  0.00     0.083 C
HETATM    3  C11 UNL     1      -1.143  77.412   6.657  1.00  0.00     0.186 C
HETATM    4  O4  UNL     1      -0.800  77.015   7.939  1.00  0.00    -0.327 OA
HETATM    5  C13 UNL     1       0.547  76.779   7.953  1.00  0.00     0.155 C
HETATM    6  C14 UNL     1       1.390  78.015   8.184  1.00  0.00     0.064 C
HETATM    7  C15 UNL     1       0.819  75.764   8.989  1.00  0.00     0.098 C
HETATM    8  N1  UNL     1       1.039  74.958   9.783  1.00  0.00    -0.194 NA
ENDROOT
BRANCH   1   9
HETATM    9  C8  UNL     1       0.833  74.748   6.562  1.00  0.00    -0.014 C
HETATM   10  C7  UNL     1       1.790  73.915   6.470  1.00  0.00     0.046 C
BRANCH  10  11
HETATM   11  C6  UNL     1       3.197  74.204   6.383  1.00  0.00     0.149 C
HETATM   12  O1  UNL     1       3.871  74.979   7.086  1.00  0.00    -0.293 OA
BRANCH  11  13
HETATM   13  C5  UNL     1       4.058  73.515   5.319  1.00  0.00     0.086 C
BRANCH  13  14
HETATM   14  C4  UNL     1       3.246  73.099   4.171  1.00  0.00     0.035 C
BRANCH  14  15
HETATM   15  C3  UNL     1       3.596  73.758   2.907  1.00  0.00    -0.024 C
HETATM   16  C2  UNL     1       3.431  74.972   2.467  1.00  0.00    -0.084 C
HETATM   17  C1  UNL     1       2.816  76.145   3.118  1.00  0.00     0.043 C
BRANCH  16  18
HETATM   18  C16 UNL     1       3.940  75.264   1.054  1.00  0.00     0.005 C
HETATM   19  C17 UNL     1       2.906  76.180   0.432  1.00  0.00     0.014 C
HETATM   20  C18 UNL     1       4.034  73.966   0.288  1.00  0.00     0.014 C
ENDBRANCH  16  18
ENDBRANCH  14  15
ENDBRANCH  13  14
ENDBRANCH  11  13
ENDBRANCH  10  11
ENDBRANCH   1   9
BRANCH   3  21
HETATM   21  O2  UNL     1      -1.142  78.825   6.624  1.00  0.00    -0.363 OA
ATOM     22  H2  UNL     1      -1.516  79.153   5.814  1.00  0.00     0.213 HD
ENDBRANCH   3  21
BRANCH   3  23
HETATM   23  C12 UNL     1      -2.575  77.006   6.332  1.00  0.00     0.232 C
BRANCH  23  24
HETATM   24  O3  UNL     1      -2.983  75.877   7.031  1.00  0.00    -0.396 OA
ATOM     25  H3  UNL     1      -3.395  75.230   6.471  1.00  0.00     0.209 HD
ENDBRANCH  23  24
ENDBRANCH   3  23
TORSDOF 9
ENDMDL