MODEL 1
REMARK VINA RESULT: -5.187544130      0.000      0.000
REMARK  2 active torsions:
REMARK  status: ('A' for Active; 'I' for Inactive)
REMARK    1  A    between atoms: N1_2  and  C2_5
REMARK    2  A    between atoms: C5_8  and  N2_9
ROOT
HETATM    1  C2  UNL     1      13.825  13.746  42.999  1.00  0.00     0.185 C
HETATM    2  C3  UNL     1      13.090  12.718  42.182  1.00  0.00     0.035 C
HETATM    3  C4  UNL     1      13.966  12.105  41.139  1.00  0.00     0.035 C
HETATM    4  C5  UNL     1      14.924  13.026  40.468  1.00  0.00     0.189 C
HETATM    5  C7  UNL     1      15.571  14.022  41.402  1.00  0.00     0.014 C
HETATM    6  C8  UNL     1      16.375  15.054  40.688  1.00  0.00     0.012 C
HETATM    7  C9  UNL     1      14.417  14.760  42.081  1.00  0.00     0.039 C
ENDROOT
BRANCH   1   8
HETATM    8  N1  UNL     1      13.024  14.322  44.029  1.00  0.00    -0.075 N
HETATM    9  C1  UNL     1      12.100  13.369  44.612  1.00  0.00     0.267 C
ATOM     10  H12 UNL     1      12.534  15.150  43.693  1.00  0.00     0.277 HD
ATOM     11  H11 UNL     1      13.606  14.756  44.746  1.00  0.00     0.277 HD
ENDBRANCH   1   8
BRANCH   4  12
HETATM   12  N2  UNL     1      16.022  12.216  39.940  1.00  0.00    -0.074 N
HETATM   13  C6  UNL     1      15.748  10.811  39.953  1.00  0.00     0.267 C
ATOM     14  H22 UNL     1      16.282  12.525  39.004  1.00  0.00     0.277 HD
ATOM     15  H21 UNL     1      16.891  12.419  40.433  1.00  0.00     0.277 HD
ENDBRANCH   4  12
TORSDOF 2
ENDMDL