MODEL 1
REMARK VINA RESULT: -5.409003287      0.000      0.000
REMARK  2 active torsions:
REMARK  status: ('A' for Active; 'I' for Inactive)
REMARK    1  A    between atoms: C5_8  and  N2_9
REMARK    2  A    between atoms: N2_9  and  C6_11
ROOT
HETATM    1  C1  UNL     1      10.833  13.600  45.204  1.00  0.00     0.029 C
HETATM    2  C2  UNL     1      11.330  15.005  45.398  1.00  0.00     0.232 C
HETATM    3  N1  UNL     1      12.629  15.082  46.008  1.00  0.00    -0.075 N
ATOM      4  H11 UNL     1      12.625  14.608  46.912  1.00  0.00     0.277 HD
ATOM      5  H12 UNL     1      12.822  16.037  46.311  1.00  0.00     0.277 HD
HETATM    6  C3  UNL     1      13.700  14.592  45.194  1.00  0.00     0.234 C
HETATM    7  C4  UNL     1      13.365  14.445  43.741  1.00  0.00     0.052 C
HETATM    8  C5  UNL     1      12.568  13.204  43.426  1.00  0.00     0.078 C
HETATM    9  C9  UNL     1      11.842  12.664  44.622  1.00  0.00     0.026 C
ENDROOT
BRANCH   8  10
HETATM   10  N2  UNL     1      13.345  12.189  42.785  1.00  0.00    -0.413 N
ATOM     11  H2  UNL     1      14.020  11.616  43.292  1.00  0.00     0.154 HD
BRANCH  10  12
HETATM   12  C6  UNL     1      13.110  12.034  41.382  1.00  0.00     0.077 A
HETATM   13  C7  UNL     1      13.830  10.906  40.642  1.00  0.00     0.027 A
HETATM   14  C8  UNL     1      14.351  12.290  40.530  1.00  0.00     0.027 A
ENDBRANCH  10  12
ENDBRANCH   8  10
TORSDOF 2
ENDMDL