MODEL 4
REMARK VINA RESULT: -4.785819782      1.073      1.929
REMARK  3 active torsions:
REMARK  status: ('A' for Active; 'I' for Inactive)
REMARK    1  A    between atoms: C6_6  and  N1_7
REMARK    2  A    between atoms: N1_7  and  C7_10
REMARK    3  A    between atoms: C9_12  and  N2_13
ROOT
HETATM    1  N1  UNL     1      10.826  15.671  45.332  1.00  0.00    -0.064 N
ATOM      2  H11 UNL     1      10.648  15.808  44.337  1.00  0.00     0.278 HD
ATOM      3  H12 UNL     1      10.852  16.657  45.590  1.00  0.00     0.278 HD
ENDROOT
BRANCH   1   4
HETATM    4  C6  UNL     1      12.052  14.975  45.605  1.00  0.00     0.194 C
HETATM    5  C2  UNL     1      12.980  14.761  44.458  1.00  0.00    -0.019 C
HETATM    6  C1  UNL     1      13.046  15.835  43.418  1.00  0.00     0.017 C
HETATM    7  C3  UNL     1      12.855  13.353  43.915  1.00  0.00     0.017 C
HETATM    8  C4  UNL     1      14.109  14.934  45.456  1.00  0.00     0.013 C
HETATM    9  C5  UNL     1      13.147  15.815  46.231  1.00  0.00     0.034 C
ENDBRANCH   1   4
BRANCH   1  10
HETATM   10  C7  UNL     1       9.765  14.912  46.019  1.00  0.00     0.218 A
HETATM   11  C8  UNL     1       9.918  14.640  47.472  1.00  0.00     0.070 A
HETATM   12  C9  UNL     1      10.039  13.510  46.448  1.00  0.00     0.216 A
BRANCH  12  13
HETATM   13  N2  UNL     1       8.907  12.587  46.366  1.00  0.00    -0.073 N
ATOM     14  H23 UNL     1       9.042  11.939  45.590  1.00  0.00     0.274 HD
ATOM     15  H22 UNL     1       8.930  11.937  47.151  1.00  0.00     0.274 HD
ATOM     16  H21 UNL     1       7.985  13.020  46.300  1.00  0.00     0.274 HD
ENDBRANCH  12  13
ENDBRANCH   1  10
TORSDOF 3
ENDMDL