MODEL 3
REMARK VINA RESULT: -4.851944392      1.557      1.823
REMARK  3 active torsions:
REMARK  status: ('A' for Active; 'I' for Inactive)
REMARK    1  A    between atoms: C2_2  and  C4_4
REMARK    2  A    between atoms: C4_4  and  N1_5
REMARK    3  A    between atoms: C4_4  and  C5_9
ROOT
HETATM    1  C4  UNL     1       9.647  13.664  46.662  1.00  0.00     0.209 C
ENDROOT
BRANCH   1   2
HETATM    2  C2  UNL     1      10.179  12.638  45.712  1.00  0.00     0.010 C
HETATM    3  C1  UNL     1      10.289  11.261  46.339  1.00  0.00     0.011 C
HETATM    4  C3  UNL     1      11.398  13.051  44.957  1.00  0.00     0.011 C
ENDBRANCH   1   2
BRANCH   1   5
HETATM    5  N1  UNL     1       8.286  13.963  46.319  1.00  0.00    -0.073 N
ATOM      6  H13 UNL     1       8.190  14.875  45.872  1.00  0.00     0.274 HD
ATOM      7  H12 UNL     1       7.945  13.388  45.548  1.00  0.00     0.274 HD
ATOM      8  H11 UNL     1       7.703  13.878  47.153  1.00  0.00     0.274 HD
ENDBRANCH   1   5
BRANCH   1   9
HETATM    9  C5  UNL     1      10.505  14.855  46.882  1.00  0.00     0.111 C
HETATM   10  C6  UNL     1       9.938  16.166  46.510  1.00  0.00     0.027 C
HETATM   11  C7  UNL     1      11.138  17.129  46.564  1.00  0.00     0.007 C
HETATM   12  C8  UNL     1      11.443  17.276  48.024  1.00  0.00     0.044 C
HETATM   13  C9  UNL     1      11.140  16.108  48.860  1.00  0.00     0.056 C
HETATM   14  N2  UNL     1      10.914  14.866  48.259  1.00  0.00    -0.396 N
ATOM     15  H2  UNL     1      11.036  13.997  48.780  1.00  0.00     0.159 HD
ENDBRANCH   1   9
TORSDOF 3
ENDMDL