MODEL 3
REMARK VINA RESULT: -4.856594433      3.419      5.826
REMARK  2 active torsions:
REMARK  status: ('A' for Active; 'I' for Inactive)
REMARK    1  A    between atoms: C2_2  and  C3_3
REMARK    2  A    between atoms: C8_11  and  N2_12
ROOT
HETATM    1  C3  UNL     1      12.686  12.869  43.213  1.00  0.00     0.063 C
HETATM    2  C4  UNL     1      13.509  11.579  43.340  1.00  0.00     0.243 C
HETATM    3  N1  UNL     1      13.389  10.888  42.094  1.00  0.00    -0.070 N
ATOM      4  H11 UNL     1      12.484  10.427  41.995  1.00  0.00     0.277 HD
ATOM      5  H12 UNL     1      13.981  10.059  42.055  1.00  0.00     0.277 HD
HETATM    6  C5  UNL     1      13.658  11.803  41.009  1.00  0.00     0.183 C
HETATM    7  C6  UNL     1      14.480  11.084  39.993  1.00  0.00     0.040 C
HETATM    8  C7  UNL     1      14.370  13.057  41.491  1.00  0.00     0.066 C
HETATM    9  C8  UNL     1      13.461  13.854  42.406  1.00  0.00     0.196 C
ENDROOT
BRANCH   9  10
HETATM   10  N2  UNL     1      14.269  14.753  43.190  1.00  0.00    -0.074 N
HETATM   11  C9  UNL     1      15.384  15.225  42.391  1.00  0.00     0.267 C
ATOM     12  H22 UNL     1      13.722  15.521  43.579  1.00  0.00     0.277 HD
ATOM     13  H21 UNL     1      14.575  14.331  44.067  1.00  0.00     0.277 HD
ENDBRANCH   9  10
BRANCH   1  14
HETATM   14  C2  UNL     1      12.328  13.281  44.560  1.00  0.00    -0.029 C
HETATM   15  C1  UNL     1      11.090  13.090  44.980  1.00  0.00     0.007 C
ENDBRANCH   1  14
TORSDOF 2
ENDMDL