MODEL 3
REMARK VINA RESULT: -4.913035128      1.503      1.763
REMARK  3 active torsions:
REMARK  status: ('A' for Active; 'I' for Inactive)
REMARK    1  A    between atoms: C2_2  and  C3_3
REMARK    2  A    between atoms: C6_6  and  N1_7
REMARK    3  A    between atoms: C7_11  and  N2_13
ROOT
HETATM    1  C3  UNL     1      11.591  13.735  44.620  1.00  0.00     0.037 C
HETATM    2  C4  UNL     1      10.883  12.789  45.624  1.00  0.00     0.013 C
HETATM    3  C5  UNL     1      10.034  13.698  46.442  1.00  0.00     0.036 C
HETATM    4  C6  UNL     1      10.461  15.116  46.131  1.00  0.00     0.211 C
HETATM    5  C7  UNL     1      11.806  14.964  45.398  1.00  0.00     0.056 C
HETATM    6  C8  UNL     1      11.884  16.212  44.518  1.00  0.00     0.041 C
ENDROOT
BRANCH   4   7
HETATM    7  N1  UNL     1       9.470  15.714  45.262  1.00  0.00    -0.073 N
ATOM      8  H13 UNL     1       8.550  15.287  45.365  1.00  0.00     0.274 HD
ATOM      9  H12 UNL     1       9.217  16.660  45.551  1.00  0.00     0.274 HD
ATOM     10  H11 UNL     1       9.813  15.676  44.302  1.00  0.00     0.274 HD
ENDBRANCH   4   7
BRANCH   5  11
HETATM   11  N2  UNL     1      12.808  14.918  46.378  1.00  0.00    -0.415 N
HETATM   12  C9  UNL     1      13.073  16.051  47.181  1.00  0.00     0.140 C
ATOM     13  H2  UNL     1      13.347  14.063  46.512  1.00  0.00     0.153 HD
ENDBRANCH   5  11
BRANCH   1  14
HETATM   14  C2  UNL     1      12.737  12.981  44.138  1.00  0.00    -0.030 C
HETATM   15  C1  UNL     1      13.083  13.118  42.850  1.00  0.00     0.007 C
ENDBRANCH   1  14
TORSDOF 3
ENDMDL