MODEL 3
REMARK VINA RESULT: -4.926329549      1.915      2.608
REMARK  3 active torsions:
REMARK  status: ('A' for Active; 'I' for Inactive)
REMARK    1  A    between atoms: N1_1  and  C1_5
REMARK    2  A    between atoms: C5_9  and  N2_10
REMARK    3  A    between atoms: N2_10  and  C6_12
ROOT
HETATM    1  C1  UNL     1      10.124  14.052  46.082  1.00  0.00     0.185 C
HETATM    2  C2  UNL     1      10.298  15.526  46.117  1.00  0.00     0.033 C
HETATM    3  C3  UNL     1      11.595  16.062  45.620  1.00  0.00     0.004 C
HETATM    4  C4  UNL     1      12.169  15.312  44.465  1.00  0.00     0.025 C
HETATM    5  C5  UNL     1      12.221  13.845  44.886  1.00  0.00     0.079 C
HETATM    6  C9  UNL     1      10.821  13.356  44.923  1.00  0.00     0.057 C
ENDROOT
BRANCH   5   7
HETATM    7  N2  UNL     1      13.149  13.085  44.151  1.00  0.00    -0.413 N
ATOM      8  H2  UNL     1      14.046  12.813  44.553  1.00  0.00     0.154 HD
BRANCH   7   9
HETATM    9  C6  UNL     1      12.788  12.708  42.826  1.00  0.00     0.077 A
HETATM   10  C7  UNL     1      13.885  13.021  41.786  1.00  0.00     0.027 A
HETATM   11  C8  UNL     1      13.491  11.618  42.124  1.00  0.00     0.027 A
ENDBRANCH   7   9
ENDBRANCH   5   7
BRANCH   1  12
HETATM   12  N1  UNL     1      10.568  13.416  47.290  1.00  0.00    -0.075 N
ATOM     13  H13 UNL     1      11.586  13.407  47.347  1.00  0.00     0.274 HD
ATOM     14  H12 UNL     1      10.363  13.993  48.106  1.00  0.00     0.274 HD
ATOM     15  H11 UNL     1      10.186  12.476  47.402  1.00  0.00     0.274 HD
ENDBRANCH   1  12
TORSDOF 3
ENDMDL