MODEL 5
REMARK VINA RESULT: -5.066251990      2.663      3.412
REMARK  2 active torsions:
REMARK  status: ('A' for Active; 'I' for Inactive)
REMARK    1  A    between atoms: C4_4  and  O1_5
REMARK    2  A    between atoms: O1_5  and  C5_6
ROOT
HETATM    1  C5  UNL     1      13.422  14.607  44.195  1.00  0.00     0.149 C
HETATM    2  C6  UNL     1      12.423  15.764  44.258  1.00  0.00     0.061 C
HETATM    3  C7  UNL     1      11.975  15.634  45.701  1.00  0.00     0.235 C
HETATM    4  N1  UNL     1      13.178  15.325  46.436  1.00  0.00    -0.073 N
ATOM      5  H11 UNL     1      13.016  14.673  47.204  1.00  0.00     0.277 HD
ATOM      6  H12 UNL     1      13.514  16.110  46.993  1.00  0.00     0.277 HD
HETATM    7  C8  UNL     1      14.155  14.849  45.501  1.00  0.00     0.264 C
ENDROOT
BRANCH   1   8
HETATM    8  O1  UNL     1      14.232  14.667  43.094  1.00  0.00    -0.379 OA
BRANCH   8   9
HETATM    9  C4  UNL     1      13.767  13.838  42.104  1.00  0.00     0.122 C
HETATM   10  C3  UNL     1      14.893  13.333  41.192  1.00  0.00     0.032 C
HETATM   11  C2  UNL     1      14.113  12.295  40.371  1.00  0.00     0.002 C
HETATM   12  C1  UNL     1      13.212  11.636  41.388  1.00  0.00     0.002 C
HETATM   13  C9  UNL     1      13.191  12.544  42.601  1.00  0.00     0.032 C
ENDBRANCH   8   9
ENDBRANCH   1   8
TORSDOF 2
ENDMDL