MODEL 3
REMARK VINA RESULT: -5.372834526      4.096      5.986
REMARK  3 active torsions:
REMARK  status: ('A' for Active; 'I' for Inactive)
REMARK    1  A    between atoms: C7_7  and  C8_8
REMARK    2  A    between atoms: C8_8  and  N1_10
REMARK    3  A    between atoms: N1_10  and  N2_11
ROOT
HETATM    1  C1  UNL     1      10.106  11.817  46.276  1.00  0.00     0.012 C
HETATM    2  C2  UNL     1      10.649  12.613  45.573  1.00  0.00    -0.112 C
HETATM    3  C3  UNL     1      11.293  13.588  44.707  1.00  0.00     0.070 C
HETATM    4  C4  UNL     1      12.777  13.431  44.640  1.00  0.00     0.017 C
HETATM    5  C5  UNL     1      13.165  14.737  43.930  1.00  0.00     0.002 C
HETATM    6  C6  UNL     1      12.276  15.743  44.651  1.00  0.00     0.007 C
HETATM    7  C7  UNL     1      11.091  14.998  45.149  1.00  0.00     0.022 C
ENDROOT
BRANCH   7   8
HETATM    8  C8  UNL     1      10.843  15.151  46.639  1.00  0.00     0.100 C
HETATM    9  C9  UNL     1       9.694  16.121  46.797  1.00  0.00     0.030 C
BRANCH   8  10
HETATM   10  N1  UNL     1      12.001  15.543  47.380  1.00  0.00    -0.143 NA
BRANCH  10  11
HETATM   11  N2  UNL     1      11.814  15.173  48.715  1.00  0.00    -0.348 N
ATOM     12  H22 UNL     1      11.903  14.224  49.078  1.00  0.00     0.172 HD
ATOM     13  H21 UNL     1      11.576  16.009  49.248  1.00  0.00     0.172 HD
ENDBRANCH  10  11
ENDBRANCH   8  10
ENDBRANCH   7   8
TORSDOF 3
ENDMDL