MODEL 1
REMARK VINA RESULT: -5.399769556      0.000      0.000
REMARK  2 active torsions:
REMARK  status: ('A' for Active; 'I' for Inactive)
REMARK    1  A    between atoms: C3_3  and  N1_4
REMARK    2  A    between atoms: N1_4  and  C4_6
ROOT
HETATM    1  C4  UNL     1      12.317  13.424  44.111  1.00  0.00     0.080 C
HETATM    2  C5  UNL     1      13.299  14.192  44.974  1.00  0.00     0.052 C
HETATM    3  C6  UNL     1      12.643  15.508  45.335  1.00  0.00     0.234 C
HETATM    4  N2  UNL     1      11.222  15.478  45.077  1.00  0.00    -0.075 N
ATOM      5  H21 UNL     1      11.024  15.587  44.083  1.00  0.00     0.277 HD
ATOM      6  H22 UNL     1      10.764  16.321  45.425  1.00  0.00     0.277 HD
HETATM    7  C7  UNL     1      10.599  14.278  45.612  1.00  0.00     0.234 C
HETATM    8  C8  UNL     1      11.186  13.015  45.018  1.00  0.00     0.052 C
ENDROOT
BRANCH   1   9
HETATM    9  N1  UNL     1      12.965  12.381  43.441  1.00  0.00    -0.413 N
ATOM     10  H1  UNL     1      13.399  11.627  43.974  1.00  0.00     0.154 HD
BRANCH   9  11
HETATM   11  C3  UNL     1      13.022  12.368  42.032  1.00  0.00     0.077 C
HETATM   12  C2  UNL     1      14.232  13.201  41.561  1.00  0.00     0.025 C
HETATM   13  C1  UNL     1      14.303  12.247  40.388  1.00  0.00     0.004 C
HETATM   14  C9  UNL     1      13.634  11.216  41.315  1.00  0.00     0.025 C
ENDBRANCH   9  11
ENDBRANCH   1   9
TORSDOF 2
ENDMDL