MODEL 2
REMARK VINA RESULT: -4.936984745      1.896      2.745
REMARK  2 active torsions:
REMARK  status: ('A' for Active; 'I' for Inactive)
REMARK    1  A    between atoms: C2_3  and  N2_4
REMARK    2  A    between atoms: C2_3  and  C3_8
ROOT
HETATM    1  N1  UNL     1      15.432   9.433  39.604  1.00  0.00    -0.195 NA
HETATM    2  C1  UNL     1      14.733  10.092  40.250  1.00  0.00     0.094 C
HETATM    3  C2  UNL     1      13.846  10.945  41.068  1.00  0.00     0.319 C
ENDROOT
BRANCH   3   4
HETATM    4  N2  UNL     1      13.740  10.283  42.362  1.00  0.00    -0.060 N
ATOM      5  H23 UNL     1      14.599   9.815  42.652  1.00  0.00     0.276 HD
ATOM      6  H22 UNL     1      13.682  10.930  43.149  1.00  0.00     0.276 HD
ATOM      7  H21 UNL     1      12.939   9.657  42.289  1.00  0.00     0.276 HD
ENDBRANCH   3   4
BRANCH   3   8
HETATM    8  C3  UNL     1      14.507  12.292  41.333  1.00  0.00     0.230 C
HETATM    9  C4  UNL     1      15.043  12.795  40.016  1.00  0.00     0.036 C
HETATM   10  C5  UNL     1      15.707  14.126  40.276  1.00  0.00     0.004 C
HETATM   11  C6  UNL     1      15.461  14.642  41.663  1.00  0.00     0.027 C
HETATM   12  C7  UNL     1      14.051  14.466  42.132  1.00  0.00     0.233 C
HETATM   13  N3  UNL     1      13.458  13.216  41.772  1.00  0.00    -0.068 N
ATOM     14  H32 UNL     1      12.720  13.323  41.076  1.00  0.00     0.277 HD
ATOM     15  H31 UNL     1      12.890  12.827  42.525  1.00  0.00     0.277 HD
ENDBRANCH   3   8
TORSDOF 2
ENDMDL