MODEL 5
REMARK VINA RESULT: -4.553059013      3.405      4.104
REMARK  2 active torsions:
REMARK  status: ('A' for Active; 'I' for Inactive)
REMARK    1  A    between atoms: N1_1  and  C1_5
REMARK    2  A    between atoms: C4_9  and  C5_10
ROOT
HETATM    1  C1  UNL     1      14.850  16.166  41.935  1.00  0.00     0.188 C
HETATM    2  C2  UNL     1      15.620  16.121  40.660  1.00  0.00     0.059 C
HETATM    3  C3  UNL     1      16.125  14.703  40.466  1.00  0.00     0.170 C
HETATM    4  O1  UNL     1      14.989  13.892  40.439  1.00  0.00    -0.382 OA
HETATM    5  C4  UNL     1      14.584  13.669  41.750  1.00  0.00     0.147 C
HETATM    6  C7  UNL     1      14.697  14.864  42.631  1.00  0.00     0.068 C
ENDROOT
BRANCH   1   7
HETATM    7  N1  UNL     1      13.553  16.829  41.738  1.00  0.00    -0.075 N
ATOM      8  H13 UNL     1      13.664  17.772  41.367  1.00  0.00     0.274 HD
ATOM      9  H12 UNL     1      13.033  16.419  40.963  1.00  0.00     0.274 HD
ATOM     10  H11 UNL     1      13.009  16.825  42.602  1.00  0.00     0.274 HD
ENDBRANCH   1   7
BRANCH   5  11
HETATM   11  C5  UNL     1      13.232  13.050  41.801  1.00  0.00     0.017 C
HETATM   12  C6  UNL     1      12.991  11.819  41.375  1.00  0.00     0.083 C
HETATM   13 CL1  UNL     1      14.300  10.855  40.719  1.00  0.00    -0.097 Cl
ENDBRANCH   5  11
TORSDOF 2
ENDMDL