MODEL 1
REMARK VINA RESULT: -5.453610557      0.000      0.000
REMARK  2 active torsions:
REMARK  status: ('A' for Active; 'I' for Inactive)
REMARK    1  A    between atoms: C4_4  and  N1_5
REMARK    2  A    between atoms: N1_5  and  C5_8
ROOT
HETATM    1  N1  UNL     1      12.147  14.076  45.164  1.00  0.00    -0.042 N
ATOM      2  H11 UNL     1      12.126  15.069  45.395  1.00  0.00     0.280 HD
ATOM      3  H12 UNL     1      12.442  13.710  46.069  1.00  0.00     0.280 HD
ENDROOT
BRANCH   1   4
HETATM    4  C4  UNL     1      13.109  13.795  44.147  1.00  0.00     0.188 C
HETATM    5  C3  UNL     1      12.727  12.590  43.290  1.00  0.00     0.033 C
HETATM    6  C2  UNL     1      13.326  12.867  41.914  1.00  0.00     0.002 C
HETATM    7  C1  UNL     1      14.119  14.157  42.087  1.00  0.00     0.002 C
HETATM    8  C8  UNL     1      13.226  14.874  43.095  1.00  0.00     0.033 C
ENDBRANCH   1   4
BRANCH   1   9
HETATM    9  C5  UNL     1      10.842  13.591  44.798  1.00  0.00     0.384 C
HETATM   10  C6  UNL     1      10.183  12.665  45.784  1.00  0.00     0.090 C
HETATM   11  C7  UNL     1       9.518  13.903  46.336  1.00  0.00     0.238 C
HETATM   12  N2  UNL     1       9.776  14.541  45.058  1.00  0.00    -0.046 N
ATOM     13  H22 UNL     1       9.964  15.542  45.016  1.00  0.00     0.279 HD
ATOM     14  H21 UNL     1       9.019  14.655  44.383  1.00  0.00     0.279 HD
ENDBRANCH   1   9
TORSDOF 2
ENDMDL