MODEL 4
REMARK VINA RESULT: -4.056973876      3.920      4.782
REMARK  1 active torsions:
REMARK  status: ('A' for Active; 'I' for Inactive)
REMARK    1  A    between atoms: C2_2  and  C3_3
ROOT
HETATM    1  C3  UNL     1      12.932  14.825  43.879  1.00  0.00     0.149 C
HETATM    2  C4  UNL     1      11.701  15.468  44.421  1.00  0.00     0.048 C
HETATM    3  C5  UNL     1      14.111  15.296  44.711  1.00  0.00     0.274 C
HETATM    4  N1  UNL     1      15.202  15.348  43.753  1.00  0.00    -0.030 N
ATOM      5  H11 UNL     1      15.677  14.462  43.579  1.00  0.00     0.281 HD
ATOM      6  H12 UNL     1      16.041  15.836  44.067  1.00  0.00     0.281 HD
HETATM    7  C6  UNL     1      14.523  15.940  42.597  1.00  0.00     0.479 C
HETATM    8 CL1  UNL     1      15.427  15.586  41.109  1.00  0.00    -0.065 Cl
HETATM    9  N2  UNL     1      13.275  15.206  42.548  1.00  0.00    -0.023 N
ATOM     10  H21 UNL     1      12.531  15.725  42.083  1.00  0.00     0.282 HD
ATOM     11  H22 UNL     1      13.309  14.413  41.907  1.00  0.00     0.282 HD
ENDROOT
BRANCH   1  12
HETATM   12  C2  UNL     1      12.882  13.312  43.944  1.00  0.00     0.036 C
HETATM   13  C1  UNL     1      12.927  12.695  42.574  1.00  0.00     0.007 C
ENDBRANCH   1  12
TORSDOF 1
ENDMDL