MODEL 3
REMARK VINA RESULT: -4.567205847      2.072      3.558
REMARK  1 active torsions:
REMARK  status: ('A' for Active; 'I' for Inactive)
REMARK    1  A    between atoms: C1_4  and  C2_5
ROOT
HETATM    1  C2  UNL     1      13.760  12.329  40.931  1.00  0.00     0.069 C
HETATM    2  C3  UNL     1      13.651  13.587  41.709  1.00  0.00     0.015 C
HETATM    3  C4  UNL     1      14.874  14.403  41.817  1.00  0.00     0.028 C
HETATM    4  C5  UNL     1      15.773  14.382  40.621  1.00  0.00     0.234 C
HETATM    5  N2  UNL     1      16.036  13.006  40.276  1.00  0.00    -0.057 N
ATOM      6  H21 UNL     1      16.541  12.533  41.025  1.00  0.00     0.279 HD
ATOM      7  H22 UNL     1      16.737  12.944  39.537  1.00  0.00     0.279 HD
HETATM    8  C6  UNL     1      14.868  12.294  39.924  1.00  0.00     0.289 C
HETATM    9 CL1  UNL     1      15.311  10.568  39.681  1.00  0.00    -0.094 Cl
ENDROOT
BRANCH   1  10
HETATM   10  C1  UNL     1      13.812  11.158  41.840  1.00  0.00     0.060 C
HETATM   11  N1  UNL     1      13.210  11.065  42.960  1.00  0.00    -0.411 N
ATOM     12  H12 UNL     1      12.651  11.871  43.238  1.00  0.00     0.155 HD
ATOM     13  H11 UNL     1      13.246  10.259  43.584  1.00  0.00     0.155 HD
ENDBRANCH   1  10
TORSDOF 1
ENDMDL