MODEL 5
REMARK VINA RESULT: -4.790521824      2.036      3.568
REMARK  3 active torsions:
REMARK  status: ('A' for Active; 'I' for Inactive)
REMARK    1  A    between atoms: N1_1  and  C1_5
REMARK    2  A    between atoms: C1_5  and  C2_6
REMARK    3  A    between atoms: C8_12  and  N2_13
ROOT
HETATM    1  C2  UNL     1      13.317  13.625  42.118  1.00  0.00     0.041 C
HETATM    2  C3  UNL     1      14.673  13.916  41.514  1.00  0.00     0.008 C
HETATM    3  C4  UNL     1      15.271  15.196  42.036  1.00  0.00     0.000 C
HETATM    4  C5  UNL     1      14.381  16.369  41.788  1.00  0.00     0.000 C
HETATM    5  C6  UNL     1      13.087  16.338  42.527  1.00  0.00     0.002 C
HETATM    6  C7  UNL     1      13.096  15.495  43.764  1.00  0.00     0.033 C
HETATM    7  C8  UNL     1      13.349  14.055  43.552  1.00  0.00     0.189 C
ENDROOT
BRANCH   1   8
HETATM    8  C1  UNL     1      13.093  12.126  41.982  1.00  0.00     0.236 C
BRANCH   8   9
HETATM    9  N1  UNL     1      13.391  11.791  40.590  1.00  0.00    -0.079 N
ATOM     10  H13 UNL     1      12.829  12.315  39.919  1.00  0.00     0.274 HD
ATOM     11  H12 UNL     1      14.302  12.125  40.279  1.00  0.00     0.274 HD
ATOM     12  H11 UNL     1      13.280  10.781  40.509  1.00  0.00     0.274 HD
ENDBRANCH   8   9
ENDBRANCH   1   8
BRANCH   7  13
HETATM   13  N2  UNL     1      12.391  13.287  44.363  1.00  0.00    -0.075 N
ATOM     14  H23 UNL     1      12.466  13.521  45.353  1.00  0.00     0.274 HD
ATOM     15  H22 UNL     1      11.432  13.595  44.201  1.00  0.00     0.274 HD
ATOM     16  H21 UNL     1      12.492  12.284  44.206  1.00  0.00     0.274 HD
ENDBRANCH   7  13
TORSDOF 3
ENDMDL