MODEL 5
REMARK VINA RESULT: -4.338881226      3.139      4.452
REMARK  1 active torsions:
REMARK  status: ('A' for Active; 'I' for Inactive)
REMARK    1  A    between atoms: N1_2  and  C2_4
ROOT
HETATM    1  C2  UNL     1      13.456  14.128  44.228  1.00  0.00     0.094 C
HETATM    2  C3  UNL     1      13.601  14.868  42.914  1.00  0.00     0.026 C
HETATM    3  C4  UNL     1      14.210  13.963  41.861  1.00  0.00     0.002 C
HETATM    4  C5  UNL     1      13.222  12.837  41.652  1.00  0.00     0.002 C
HETATM    5  C6  UNL     1      12.973  12.040  42.900  1.00  0.00     0.022 C
HETATM    6  C7  UNL     1      12.666  12.861  44.107  1.00  0.00     0.104 C
HETATM    7 CL1  UNL     1      10.942  13.289  44.239  1.00  0.00    -0.123 Cl
ENDROOT
BRANCH   1   8
HETATM    8  N1  UNL     1      12.819  14.979  45.150  1.00  0.00    -0.420 N
HETATM    9  C1  UNL     1      13.598  15.835  45.940  1.00  0.00     0.140 C
ATOM     10  H1  UNL     1      11.804  14.972  45.244  1.00  0.00     0.153 HD
ENDBRANCH   1   8
TORSDOF 1
ENDMDL