MODEL 3
REMARK VINA RESULT: -4.399860061      2.223      3.436
REMARK  1 active torsions:
REMARK  status: ('A' for Active; 'I' for Inactive)
REMARK    1  A    between atoms: C2_2  and  C3_3
ROOT
HETATM    1  C3  UNL     1      10.647  14.235  45.115  1.00  0.00     0.279 C
HETATM    2  N1  UNL     1       9.460  15.059  45.169  1.00  0.00    -0.054 N
ATOM      3  H11 UNL     1       8.810  14.768  45.898  1.00  0.00     0.279 HD
ATOM      4  H12 UNL     1       8.843  14.915  44.369  1.00  0.00     0.279 HD
HETATM    5  C4  UNL     1       9.881  16.439  45.311  1.00  0.00     0.245 C
HETATM    6  C5  UNL     1      10.471  16.687  46.686  1.00  0.00    -0.008 C
HETATM    7  C6  UNL     1       9.316  16.640  47.671  1.00  0.00     0.018 C
HETATM    8  C7  UNL     1      11.142  18.022  46.664  1.00  0.00     0.018 C
HETATM    9  C8  UNL     1      11.387  15.545  46.999  1.00  0.00     0.126 C
HETATM   10  N2  UNL     1      11.733  14.865  45.785  1.00  0.00    -0.395 N
ATOM     11  H2  UNL     1      12.688  14.835  45.428  1.00  0.00     0.155 HD
ENDROOT
BRANCH   1  12
HETATM   12  C2  UNL     1      10.282  12.881  45.675  1.00  0.00     0.049 C
HETATM   13  C1  UNL     1       8.844  12.886  46.124  1.00  0.00     0.009 C
ENDBRANCH   1  12
TORSDOF 1
ENDMDL