MODEL 5
REMARK VINA RESULT: -4.132782318      1.361      2.778
REMARK  3 active torsions:
REMARK  status: ('A' for Active; 'I' for Inactive)
REMARK    1  A    between atoms: C2_2  and  C3_3
REMARK    2  A    between atoms: C3_3  and  N1_4
REMARK    3  A    between atoms: C7_11  and  N2_13
ROOT
HETATM    1  C3  UNL     1      12.985  15.226  44.386  1.00  0.00     0.155 C
HETATM    2  C4  UNL     1      12.071  14.033  44.312  1.00  0.00     0.041 C
HETATM    3  C5  UNL     1      12.876  13.026  43.544  1.00  0.00     0.005 C
HETATM    4  C6  UNL     1      13.452  13.879  42.423  1.00  0.00     0.041 C
HETATM    5  C7  UNL     1      13.690  15.212  43.058  1.00  0.00     0.152 C
HETATM    6  C8  UNL     1      13.245  16.367  42.186  1.00  0.00     0.049 C
ENDROOT
BRANCH   1   7
HETATM    7  C2  UNL     1      14.010  15.098  45.488  1.00  0.00     0.037 C
HETATM    8  C1  UNL     1      13.807  16.062  46.609  1.00  0.00     0.007 C
ENDBRANCH   1   7
BRANCH   1   9
HETATM    9  N1  UNL     1      12.187  16.402  44.598  1.00  0.00    -0.068 N
ATOM     10  H13 UNL     1      11.430  16.480  43.919  1.00  0.00     0.275 HD
ATOM     11  H12 UNL     1      11.620  16.334  45.443  1.00  0.00     0.275 HD
ATOM     12  H11 UNL     1      12.784  17.229  44.603  1.00  0.00     0.275 HD
ENDBRANCH   1   9
BRANCH   5  13
HETATM   13  N2  UNL     1      15.138  15.358  43.222  1.00  0.00    -0.068 N
ATOM     14  H23 UNL     1      15.373  15.758  44.130  1.00  0.00     0.275 HD
ATOM     15  H22 UNL     1      15.596  14.452  43.326  1.00  0.00     0.275 HD
ATOM     16  H21 UNL     1      15.545  15.897  42.459  1.00  0.00     0.275 HD
ENDBRANCH   5  13
TORSDOF 3
ENDMDL