MODEL 4
REMARK VINA RESULT: -4.752845228      2.212      2.899
REMARK  2 active torsions:
REMARK  status: ('A' for Active; 'I' for Inactive)
REMARK    1  A    between atoms: N1_1  and  C1_5
REMARK    2  A    between atoms: C5_9  and  O1_10
ROOT
HETATM    1  C1  UNL     1      15.626  13.970  40.984  1.00  0.00     0.186 C
HETATM    2  C2  UNL     1      15.305  12.819  40.064  1.00  0.00     0.033 C
HETATM    3  C3  UNL     1      13.920  12.273  40.282  1.00  0.00     0.004 C
HETATM    4  C4  UNL     1      13.484  12.356  41.722  1.00  0.00     0.034 C
HETATM    5  C5  UNL     1      13.434  13.785  42.199  1.00  0.00     0.147 C
HETATM    6  C6  UNL     1      14.386  14.682  41.460  1.00  0.00     0.066 C
ENDROOT
BRANCH   1   7
HETATM    7  N1  UNL     1      16.415  14.943  40.245  1.00  0.00    -0.075 N
ATOM      8  H13 UNL     1      17.182  15.327  40.798  1.00  0.00     0.274 HD
ATOM      9  H12 UNL     1      16.974  14.515  39.508  1.00  0.00     0.274 HD
ATOM     10  H11 UNL     1      15.786  15.665  39.892  1.00  0.00     0.274 HD
ENDBRANCH   1   7
BRANCH   5  11
HETATM   11  O1  UNL     1      13.599  13.836  43.573  1.00  0.00    -0.279 OA
HETATM   12 CL1  UNL     1      12.191  13.412  44.420  1.00  0.00     0.062 Cl
ENDBRANCH   5  11
TORSDOF 2
ENDMDL