MODEL 3
REMARK VINA RESULT: -4.914781715      2.749      3.924
REMARK  2 active torsions:
REMARK  status: ('A' for Active; 'I' for Inactive)
REMARK    1  A    between atoms: N1_2  and  C2_4
REMARK    2  A    between atoms: C2_4  and  C4_6
ROOT
HETATM    1  C4  UNL     1      13.979  12.327  40.639  1.00  0.00     0.033 C
HETATM    2  C5  UNL     1      15.208  13.001  40.129  1.00  0.00     0.010 C
HETATM    3  C6  UNL     1      15.894  13.914  41.077  1.00  0.00     0.028 C
HETATM    4  C7  UNL     1      15.036  14.681  42.003  1.00  0.00     0.232 C
HETATM    5  N2  UNL     1      13.655  14.206  42.051  1.00  0.00    -0.075 N
ATOM      6  H21 UNL     1      13.065  14.560  41.299  1.00  0.00     0.277 HD
ATOM      7  H22 UNL     1      13.105  14.595  42.816  1.00  0.00     0.277 HD
HETATM    8  C8  UNL     1      13.779  12.737  42.081  1.00  0.00     0.238 C
ENDROOT
BRANCH   1   9
HETATM    9  C2  UNL     1      14.017  10.830  40.587  1.00  0.00     0.077 C
HETATM   10  C3  UNL     1      15.307  10.432  39.905  1.00  0.00     0.032 C
BRANCH   9  11
HETATM   11  N1  UNL     1      13.972  10.199  41.861  1.00  0.00    -0.421 N
HETATM   12  C1  UNL     1      14.951   9.195  42.078  1.00  0.00     0.140 C
ATOM     13  H1  UNL     1      13.282  10.450  42.569  1.00  0.00     0.153 HD
ENDBRANCH   9  11
ENDBRANCH   1   9
TORSDOF 2
ENDMDL