MODEL 1
REMARK VINA RESULT: -4.983687519      0.000      0.000
REMARK  2 active torsions:
REMARK  status: ('A' for Active; 'I' for Inactive)
REMARK    1  A    between atoms: C2_2  and  N1_3
REMARK    2  A    between atoms: N1_3  and  C3_6
ROOT
HETATM    1  C1  UNL     1       8.437  15.016  47.496  1.00  0.00     0.046 C
HETATM    2  C2  UNL     1       9.887  14.928  47.080  1.00  0.00     0.125 C
HETATM    3  C6  UNL     1      10.807  15.776  47.923  1.00  0.00     0.066 C
HETATM    4  C7  UNL     1      12.236  15.466  47.476  1.00  0.00     0.235 C
HETATM    5  N2  UNL     1      12.297  15.231  46.035  1.00  0.00    -0.075 N
ATOM      6  H21 UNL     1      12.187  14.248  45.787  1.00  0.00     0.277 HD
ATOM      7  H22 UNL     1      13.233  15.362  45.651  1.00  0.00     0.277 HD
HETATM    8  C8  UNL     1      11.309  16.082  45.415  1.00  0.00     0.235 C
HETATM    9  C9  UNL     1       9.967  15.454  45.664  1.00  0.00     0.066 C
ENDROOT
BRANCH   2  10
HETATM   10  N1  UNL     1      10.309  13.548  47.178  1.00  0.00    -0.062 N
ATOM     11  H12 UNL     1      11.323  13.451  47.234  1.00  0.00     0.278 HD
ATOM     12  H11 UNL     1      10.080  13.132  48.081  1.00  0.00     0.278 HD
BRANCH  10  13
HETATM   13  C3  UNL     1       9.745  12.821  46.078  1.00  0.00     0.187 A
HETATM   14  C4  UNL     1       8.787  11.701  46.242  1.00  0.00     0.035 A
HETATM   15  C5  UNL     1      10.208  11.354  46.059  1.00  0.00     0.035 A
ENDBRANCH  10  13
ENDBRANCH   2  10
TORSDOF 2
ENDMDL