MODEL 5
REMARK VINA RESULT: -5.001559236      2.797      5.186
REMARK  3 active torsions:
REMARK  status: ('A' for Active; 'I' for Inactive)
REMARK    1  A    between atoms: N1_1  and  C1_5
REMARK    2  A    between atoms: C3_7  and  N2_8
REMARK    3  A    between atoms: N2_8  and  C4_10
ROOT
HETATM    1  N2  UNL     1      13.285  11.953  42.652  1.00  0.00    -0.411 N
ATOM      2  H2  UNL     1      13.359  11.062  43.143  1.00  0.00     0.154 HD
ENDROOT
BRANCH   1   3
HETATM    3  C3  UNL     1      13.963  12.177  41.427  1.00  0.00     0.109 A
HETATM    4  C1  UNL     1      14.518  11.024  40.693  1.00  0.00     0.207 A
HETATM    5  C2  UNL     1      13.350  11.815  40.130  1.00  0.00     0.061 A
BRANCH   4   6
HETATM    6  N1  UNL     1      14.218   9.671  41.058  1.00  0.00    -0.073 N
ATOM      7  H13 UNL     1      13.919   9.628  42.032  1.00  0.00     0.274 HD
ATOM      8  H12 UNL     1      13.362   9.363  40.595  1.00  0.00     0.274 HD
ATOM      9  H11 UNL     1      14.967   9.000  40.890  1.00  0.00     0.274 HD
ENDBRANCH   4   6
ENDBRANCH   1   3
BRANCH   1  10
HETATM   10  C4  UNL     1      12.504  13.011  43.164  1.00  0.00     0.077 C
HETATM   11  C5  UNL     1      11.795  12.674  44.461  1.00  0.00     0.024 C
HETATM   12  C6  UNL     1      11.066  13.910  44.941  1.00  0.00     0.002 C
HETATM   13  C7  UNL     1      12.053  14.991  45.356  1.00  0.00     0.000 C
HETATM   14  C8  UNL     1      13.422  14.622  44.860  1.00  0.00     0.002 C
HETATM   15  C9  UNL     1      13.438  14.193  43.412  1.00  0.00     0.024 C
ENDBRANCH   1  10
TORSDOF 3
ENDMDL