MODEL 3
REMARK VINA RESULT: -5.481022042      4.631      5.498
REMARK  3 active torsions:
REMARK  status: ('A' for Active; 'I' for Inactive)
REMARK    1  A    between atoms: C6_6  and  N1_7
REMARK    2  A    between atoms: N1_7  and  C7_9
REMARK    3  A    between atoms: N2_10  and  N3_12
ROOT
HETATM    1  N1  UNL     1      10.758  12.289  45.463  1.00  0.00    -0.380 N
ATOM      2  H1  UNL     1      11.370  11.476  45.526  1.00  0.00     0.160 HD
ENDROOT
BRANCH   1   3
HETATM    3  C6  UNL     1      11.193  13.479  44.717  1.00  0.00     0.083 C
HETATM    4  C5  UNL     1      10.762  14.724  45.414  1.00  0.00     0.026 C
HETATM    5  C4  UNL     1      12.010  15.503  45.649  1.00  0.00     0.011 C
HETATM    6  C2  UNL     1      13.065  14.984  44.730  1.00  0.00    -0.046 C
HETATM    7  C1  UNL     1      13.048  15.598  43.363  1.00  0.00     0.015 C
HETATM    8  C3  UNL     1      14.397  15.181  45.416  1.00  0.00     0.015 C
HETATM    9  C8  UNL     1      12.705  13.519  44.605  1.00  0.00     0.034 C
ENDBRANCH   1   3
BRANCH   1  10
HETATM   10  C7  UNL     1       9.487  12.270  46.097  1.00  0.00     0.192 C
HETATM   11  N2  UNL     1       8.901  11.214  46.512  1.00  0.00    -0.303 N
ATOM     12  H2  UNL     1       7.988  11.313  46.956  1.00  0.00     0.187 HD
BRANCH  11  13
HETATM   13  N3  UNL     1       9.434   9.950  46.394  1.00  0.00    -0.344 N
ATOM     14  H32 UNL     1      10.316   9.862  45.890  1.00  0.00     0.176 HD
ATOM     15  H31 UNL     1       8.995   9.114  46.781  1.00  0.00     0.176 HD
ENDBRANCH  11  13
ENDBRANCH   1  10
TORSDOF 3
ENDMDL