MODEL 2
REMARK VINA RESULT: -4.876075621      1.528      3.368
REMARK  3 active torsions:
REMARK  status: ('A' for Active; 'I' for Inactive)
REMARK    1  A    between atoms: N1_2  and  N2_3
REMARK    2  A    between atoms: C6_8  and  C7_9
REMARK    3  A    between atoms: C7_9  and  N3_11
ROOT
HETATM    1  N2  UNL     1      11.182  13.420  45.702  1.00  0.00    -0.229 NA
HETATM    2  C2  UNL     1      11.484  12.755  44.470  1.00  0.00     0.110 C
HETATM    3  C3  UNL     1      12.714  13.297  43.779  1.00  0.00     0.016 C
HETATM    4  C4  UNL     1      13.384  14.324  44.677  1.00  0.00     0.003 C
HETATM    5  C5  UNL     1      12.343  15.385  44.946  1.00  0.00     0.023 C
HETATM    6  C6  UNL     1      11.067  14.821  45.484  1.00  0.00     0.106 C
ENDROOT
BRANCH   6   7
HETATM    7  C7  UNL     1      10.705  15.623  46.699  1.00  0.00     0.198 C
HETATM    8  C8  UNL     1      10.955  17.098  46.535  1.00  0.00     0.041 C
BRANCH   7   9
HETATM    9  N3  UNL     1      11.268  15.135  47.919  1.00  0.00    -0.074 N
ATOM     10  H33 UNL     1      11.499  14.146  47.833  1.00  0.00     0.274 HD
ATOM     11  H32 UNL     1      12.202  15.522  48.058  1.00  0.00     0.274 HD
ATOM     12  H31 UNL     1      10.690  15.295  48.744  1.00  0.00     0.274 HD
ENDBRANCH   7   9
ENDBRANCH   6   7
BRANCH   1  13
HETATM   13  N1  UNL     1      10.115  12.813  46.309  1.00  0.00    -0.169 NA
HETATM   14  C1  UNL     1      10.020  11.385  46.066  1.00  0.00     0.152 C
ENDBRANCH   1  13
TORSDOF 3
ENDMDL