MODEL 1
REMARK VINA RESULT: -5.687240354      0.000      0.000
REMARK  4 active torsions:
REMARK  status: ('A' for Active; 'I' for Inactive)
REMARK    1  A    between atoms: C2_2  and  C4_5
REMARK    2  A    between atoms: C4_5  and  N2_6
REMARK    3  A    between atoms: C4_5  and  N3_10
REMARK    4  A    between atoms: N3_10  and  C5_13
ROOT
HETATM    1  C1  UNL     1      14.947  15.125  43.055  1.00  0.00     0.029 C
HETATM    2  C2  UNL     1      15.085  15.381  41.559  1.00  0.00     0.146 C
HETATM    3  C3  UNL     1      15.352  16.783  41.357  1.00  0.00     0.067 C
HETATM    4  N1  UNL     1      15.574  17.911  41.220  1.00  0.00    -0.197 NA
ENDROOT
BRANCH   2   5
HETATM    5  C4  UNL     1      16.175  14.522  40.962  1.00  0.00     0.397 C
BRANCH   5   6
HETATM    6  N2  UNL     1      17.076  15.407  40.219  1.00  0.00    -0.049 N
ATOM      7  H23 UNL     1      17.184  15.135  39.242  1.00  0.00     0.276 HD
ATOM      8  H22 UNL     1      16.679  16.332  40.057  1.00  0.00     0.276 HD
ATOM      9  H21 UNL     1      17.962  15.437  40.724  1.00  0.00     0.276 HD
ENDBRANCH   5   6
BRANCH   5  10
HETATM   10  N3  UNL     1      15.550  13.580  40.054  1.00  0.00    -0.041 N
ATOM     11  H32 UNL     1      14.815  14.023  39.502  1.00  0.00     0.280 HD
ATOM     12  H31 UNL     1      16.179  13.317  39.295  1.00  0.00     0.280 HD
BRANCH  10  13
HETATM   13  C5  UNL     1      15.056  12.418  40.762  1.00  0.00     0.188 C
HETATM   14  C6  UNL     1      13.590  12.114  40.470  1.00  0.00     0.033 C
HETATM   15  C7  UNL     1      13.984  10.654  40.450  1.00  0.00     0.004 C
HETATM   16  C8  UNL     1      15.398  11.144  40.057  1.00  0.00     0.033 C
ENDBRANCH  10  13
ENDBRANCH   5  10
ENDBRANCH   2   5
TORSDOF 4
ENDMDL