MODEL 5
REMARK VINA RESULT: -4.774872361      1.707      2.194
REMARK  3 active torsions:
REMARK  status: ('A' for Active; 'I' for Inactive)
REMARK    1  A    between atoms: C2_2  and  N1_4
REMARK    2  A    between atoms: N1_4  and  C4_6
REMARK    3  A    between atoms: C7_9  and  N2_10
ROOT
HETATM    1  C4  UNL     1      12.923  13.808  44.398  1.00  0.00     0.079 C
HETATM    2  C5  UNL     1      13.432  14.838  43.445  1.00  0.00     0.027 C
HETATM    3  C6  UNL     1      13.927  14.030  42.234  1.00  0.00     0.035 C
HETATM    4  C7  UNL     1      13.426  12.645  42.427  1.00  0.00     0.185 C
HETATM    5  C8  UNL     1      12.285  12.825  43.397  1.00  0.00     0.057 C
ENDROOT
BRANCH   1   6
HETATM    6  N1  UNL     1      12.066  14.167  45.424  1.00  0.00    -0.414 N
ATOM      7  H1  UNL     1      12.466  14.339  46.346  1.00  0.00     0.153 HD
BRANCH   6   8
HETATM    8  C2  UNL     1      10.693  14.306  45.268  1.00  0.00     0.068 C
HETATM    9  C1  UNL     1       9.948  13.607  46.386  1.00  0.00     0.031 C
HETATM   10  C3  UNL     1      10.352  15.801  45.411  1.00  0.00     0.031 C
ENDBRANCH   6   8
ENDBRANCH   1   6
BRANCH   4  11
HETATM   11  N2  UNL     1      13.009  11.990  41.210  1.00  0.00    -0.075 N
ATOM     12  H23 UNL     1      11.993  12.012  41.124  1.00  0.00     0.274 HD
ATOM     13  H22 UNL     1      13.265  12.551  40.398  1.00  0.00     0.274 HD
ATOM     14  H21 UNL     1      13.355  11.036  41.108  1.00  0.00     0.274 HD
ENDBRANCH   4  11
TORSDOF 3
ENDMDL