MODEL 1
REMARK VINA RESULT: -5.105630019      0.000      0.000
REMARK  2 active torsions:
REMARK  status: ('A' for Active; 'I' for Inactive)
REMARK    1  A    between atoms: C4_4  and  O1_5
REMARK    2  A    between atoms: O1_5  and  C5_6
ROOT
HETATM    1  O1  UNL     1      13.872  14.517  45.918  1.00  0.00    -0.377 OA
ENDROOT
BRANCH   1   2
HETATM    2  C4  UNL     1      13.307  14.969  44.706  1.00  0.00     0.122 C
HETATM    3  C3  UNL     1      14.333  14.923  43.604  1.00  0.00     0.032 C
HETATM    4  C2  UNL     1      13.778  14.245  42.365  1.00  0.00     0.002 C
HETATM    5  C1  UNL     1      13.273  12.866  42.644  1.00  0.00     0.000 C
HETATM    6  C9  UNL     1      12.666  12.720  44.019  1.00  0.00     0.002 C
HETATM    7  C8  UNL     1      12.126  14.058  44.437  1.00  0.00     0.032 C
ENDBRANCH   1   2
BRANCH   1   8
HETATM    8  C5  UNL     1      14.723  15.478  46.406  1.00  0.00     0.173 C
HETATM    9  C6  UNL     1      15.614  14.918  47.520  1.00  0.00     0.265 C
HETATM   10  N1  UNL     1      14.436  15.017  48.380  1.00  0.00    -0.070 N
HETATM   11  C7  UNL     1      14.085  16.200  47.581  1.00  0.00     0.265 C
ATOM     12  H12 UNL     1      13.789  14.237  48.499  1.00  0.00     0.277 HD
ATOM     13  H11 UNL     1      14.512  15.058  49.396  1.00  0.00     0.277 HD
ENDBRANCH   1   8
TORSDOF 2
ENDMDL