MODEL 3
REMARK VINA RESULT: -5.213261528      0.856      1.075
REMARK  2 active torsions:
REMARK  status: ('A' for Active; 'I' for Inactive)
REMARK    1  A    between atoms: C3_3  and  N1_4
REMARK    2  A    between atoms: N1_4  and  C4_6
ROOT
HETATM    1  C4  UNL     1      12.681  13.709  44.133  1.00  0.00     0.102 C
HETATM    2  C5  UNL     1      11.525  12.765  44.205  1.00  0.00     0.028 C
HETATM    3  C6  UNL     1      10.654  12.892  45.395  1.00  0.00     0.029 C
HETATM    4  C7  UNL     1      10.554  14.260  45.983  1.00  0.00     0.232 C
HETATM    5  N2  UNL     1      11.844  14.896  46.112  1.00  0.00    -0.073 N
ATOM      6  H21 UNL     1      12.473  14.400  46.743  1.00  0.00     0.277 HD
ATOM      7  H22 UNL     1      11.806  15.775  46.628  1.00  0.00     0.277 HD
HETATM    8  C8  UNL     1      12.381  15.045  44.773  1.00  0.00     0.256 C
ENDROOT
BRANCH   1   9
HETATM    9  N1  UNL     1      13.062  13.882  42.789  1.00  0.00    -0.411 N
ATOM     10  H1  UNL     1      12.833  14.737  42.284  1.00  0.00     0.154 HD
BRANCH   9  11
HETATM   11  C3  UNL     1      13.771  12.833  42.162  1.00  0.00     0.077 C
HETATM   12  C2  UNL     1      12.936  12.056  41.169  1.00  0.00     0.025 C
HETATM   13  C1  UNL     1      14.144  12.022  40.262  1.00  0.00     0.004 C
HETATM   14  C9  UNL     1      14.721  13.162  41.070  1.00  0.00     0.025 C
ENDBRANCH   9  11
ENDBRANCH   1   9
TORSDOF 2
ENDMDL