MODEL 4
REMARK VINA RESULT: -5.090711618      3.273      5.514
REMARK  3 active torsions:
REMARK  status: ('A' for Active; 'I' for Inactive)
REMARK    1  A    between atoms: N1_1  and  C1_5
REMARK    2  A    between atoms: C1_5  and  C2_6
REMARK    3  A    between atoms: C1_5  and  C7_11
ROOT
HETATM    1  C1  UNL     1      13.936  13.932  41.928  1.00  0.00     0.218 C
ENDROOT
BRANCH   1   2
HETATM    2  N1  UNL     1      13.878  12.637  41.277  1.00  0.00    -0.073 N
ATOM      3  H13 UNL     1      13.826  11.877  41.956  1.00  0.00     0.274 HD
ATOM      4  H12 UNL     1      12.982  12.490  40.811  1.00  0.00     0.274 HD
ATOM      5  H11 UNL     1      14.660  12.515  40.634  1.00  0.00     0.274 HD
ENDBRANCH   1   2
BRANCH   1   6
HETATM    6  C2  UNL     1      13.571  13.820  43.394  1.00  0.00     0.018 C
HETATM    7  C3  UNL     1      12.777  15.056  43.767  1.00  0.00     0.007 C
HETATM    8  C4  UNL     1      12.027  14.570  44.997  1.00  0.00     0.000 C
HETATM    9  C5  UNL     1      11.531  13.232  44.563  1.00  0.00     0.000 C
HETATM   10  C6  UNL     1      12.650  12.700  43.693  1.00  0.00     0.007 C
ENDBRANCH   1   6
BRANCH   1  11
HETATM   11  C7  UNL     1      15.327  14.469  41.730  1.00  0.00     0.218 C
HETATM   12  C8  UNL     1      15.402  15.910  41.281  1.00  0.00     0.062 C
HETATM   13  C9  UNL     1      16.617  15.402  40.517  1.00  0.00     0.235 C
HETATM   14  N2  UNL     1      15.952  14.105  40.475  1.00  0.00    -0.069 N
ATOM     15  H22 UNL     1      16.484  13.240  40.378  1.00  0.00     0.277 HD
ATOM     16  H21 UNL     1      15.396  13.821  39.669  1.00  0.00     0.277 HD
ENDBRANCH   1  11
TORSDOF 3
ENDMDL