MODEL 1
REMARK VINA RESULT: -4.373308436      0.000      0.000
REMARK  2 active torsions:
REMARK  status: ('A' for Active; 'I' for Inactive)
REMARK    1  A    between atoms: N1_1  and  C1_5
REMARK    2  A    between atoms: C1_5  and  C2_6
ROOT
HETATM    1  C2  UNL     1      14.669  15.083  43.462  1.00  0.00     0.109 A
HETATM    2  S1  UNL     1      15.445  14.777  41.820  1.00  0.00    -0.074 SA
HETATM    3  N2  UNL     1      15.586  16.461  42.119  1.00  0.00    -0.249 NA
HETATM    4  C3  UNL     1      15.156  17.383  41.132  1.00  0.00     0.122 C
HETATM    5  C4  UNL     1      15.034  18.744  41.802  1.00  0.00     0.129 C
HETATM    6  N3  UNL     1      13.932  18.698  42.698  1.00  0.00    -0.418 N
ATOM      7  H3  UNL     1      13.300  19.490  42.817  1.00  0.00     0.153 HD
HETATM    8  C5  UNL     1      13.762  17.482  43.421  1.00  0.00     0.135 C
HETATM    9  C6  UNL     1      14.892  16.525  43.371  1.00  0.00     0.103 A
ENDROOT
BRANCH   1  10
HETATM   10  C1  UNL     1      13.303  14.496  43.455  1.00  0.00     0.247 C
BRANCH  10  11
HETATM   11  N1  UNL     1      12.933  13.941  44.750  1.00  0.00    -0.078 N
ATOM     12  H13 UNL     1      13.713  13.986  45.406  1.00  0.00     0.274 HD
ATOM     13  H12 UNL     1      12.277  14.550  45.238  1.00  0.00     0.274 HD
ATOM     14  H11 UNL     1      12.569  12.992  44.674  1.00  0.00     0.274 HD
ENDBRANCH  10  11
ENDBRANCH   1  10
TORSDOF 2
ENDMDL