MODEL 2
REMARK VINA RESULT: -5.587011741      3.503      5.365
REMARK  2 active torsions:
REMARK  status: ('A' for Active; 'I' for Inactive)
REMARK    1  A    between atoms: C3_4  and  C4_5
REMARK    2  A    between atoms: C7_11  and  O3_12
ROOT
HETATM    1  C1  UNL     1      13.182  16.837  42.432  1.00  0.00     0.044 C
HETATM    2  C2  UNL     1      13.485  15.909  43.610  1.00  0.00     0.177 C
HETATM    3  O1  UNL     1      14.309  14.883  43.287  1.00  0.00    -0.355 OA
HETATM    4  C3  UNL     1      13.791  13.614  43.405  1.00  0.00     0.246 C
HETATM    5  N1  UNL     1      12.877  13.421  44.482  1.00  0.00    -0.270 N
ATOM      6  H1  UNL     1      12.487  12.503  44.697  1.00  0.00     0.190 HD
HETATM    7  O2  UNL     1      12.562  14.494  45.186  1.00  0.00    -0.247 OA
HETATM    8  C7  UNL     1      12.196  15.504  44.267  1.00  0.00     0.314 C
ENDROOT
BRANCH   4   9
HETATM    9  C4  UNL     1      13.216  13.241  42.063  1.00  0.00     0.036 A
HETATM   10  C5  UNL     1      12.919  11.831  41.725  1.00  0.00     0.009 A
HETATM   11  C6  UNL     1      14.164  12.448  41.169  1.00  0.00     0.009 A
ENDBRANCH   4   9
BRANCH   8  12
HETATM   12  O3  UNL     1      11.674  16.571  44.987  1.00  0.00    -0.367 OA
ATOM     13  H3  UNL     1      10.942  16.278  45.517  1.00  0.00     0.212 HD
ENDBRANCH   8  12
TORSDOF 2
ENDMDL