MODEL 3
REMARK VINA RESULT: -5.314611218      3.664      6.386
REMARK  3 active torsions:
REMARK  status: ('A' for Active; 'I' for Inactive)
REMARK    1  A    between atoms: N1_1  and  N2_4
REMARK    2  A    between atoms: C1_6  and  N3_7
REMARK    3  A    between atoms: N3_7  and  C2_9
ROOT
HETATM    1  C2  UNL     1      12.109  15.601  45.637  1.00  0.00     0.109 C
HETATM    2  N4  UNL     1      13.217  15.410  46.260  1.00  0.00    -0.378 N
ATOM      3  H4  UNL     1      13.345  15.530  47.264  1.00  0.00     0.160 HD
HETATM    4  C3  UNL     1      14.267  14.996  45.331  1.00  0.00     0.128 C
HETATM    5  C4  UNL     1      13.460  14.401  44.179  1.00  0.00     0.043 C
HETATM    6  C5  UNL     1      14.094  14.627  42.851  1.00  0.00     0.036 C
HETATM    7  C6  UNL     1      13.704  16.030  42.485  1.00  0.00     0.233 C
HETATM    8  N5  UNL     1      12.782  16.492  43.477  1.00  0.00    -0.064 N
ATOM      9  H51 UNL     1      12.038  17.068  43.085  1.00  0.00     0.278 HD
ATOM     10  H52 UNL     1      13.188  17.194  44.096  1.00  0.00     0.278 HD
HETATM   11  C7  UNL     1      12.277  15.344  44.192  1.00  0.00     0.258 C
ENDROOT
BRANCH   1  12
HETATM   12  N3  UNL     1      10.849  16.013  46.196  1.00  0.00    -0.340 N
ATOM     13  H3  UNL     1      10.846  16.606  47.026  1.00  0.00     0.168 HD
BRANCH  12  14
HETATM   14  C1  UNL     1       9.612  15.617  45.628  1.00  0.00     0.198 C
HETATM   15  N2  UNL     1       8.770  14.866  46.250  1.00  0.00    -0.303 N
ATOM     16  H2  UNL     1       7.885  14.592  45.825  1.00  0.00     0.187 HD
BRANCH  15  17
HETATM   17  N1  UNL     1       9.127  14.443  47.534  1.00  0.00    -0.344 N
ATOM     18  H12 UNL     1       9.498  15.106  48.214  1.00  0.00     0.176 HD
ATOM     19  H11 UNL     1       8.998  13.454  47.747  1.00  0.00     0.176 HD
ENDBRANCH  15  17
ENDBRANCH  12  14
ENDBRANCH   1  12
TORSDOF 3
ENDMDL