MODEL 5
REMARK VINA RESULT: -3.915852678      3.540      4.561
REMARK  2 active torsions:
REMARK  status: ('A' for Active; 'I' for Inactive)
REMARK    1  A    between atoms: S1_2  and  C2_3
REMARK    2  A    between atoms: C4_7  and  N2_8
ROOT
HETATM    1  C2  UNL     1      14.984  15.196  42.671  1.00  0.00     0.281 C
HETATM    2  N1  UNL     1      14.081  14.174  42.253  1.00  0.00    -0.387 N
ATOM      3  H1  UNL     1      14.072  13.827  41.295  1.00  0.00     0.156 HD
HETATM    4  C3  UNL     1      13.192  13.665  43.240  1.00  0.00     0.152 C
HETATM    5  C4  UNL     1      13.392  14.132  44.631  1.00  0.00     0.224 C
HETATM    6  C5  UNL     1      14.405  15.224  44.812  1.00  0.00     0.205 C
HETATM    7  O1  UNL     1      14.403  15.996  43.662  1.00  0.00    -0.356 OA
ENDROOT
BRANCH   5   8
HETATM    8  N2  UNL     1      12.121  14.657  45.126  1.00  0.00    -0.071 N
ATOM      9  H23 UNL     1      11.859  15.535  44.680  1.00  0.00     0.274 HD
ATOM     10  H22 UNL     1      11.322  14.102  44.822  1.00  0.00     0.274 HD
ATOM     11  H21 UNL     1      12.181  14.735  46.142  1.00  0.00     0.274 HD
ENDBRANCH   5   8
BRANCH   1  12
HETATM   12  S1  UNL     1      15.408  16.323  41.300  1.00  0.00    -0.121 SA
HETATM   13  C1  UNL     1      16.535  15.428  40.194  1.00  0.00     0.094 C
ENDBRANCH   1  12
TORSDOF 2
ENDMDL