MODEL 4
REMARK VINA RESULT: -5.636738912      1.316      1.947
REMARK  1 active torsions:
REMARK  status: ('A' for Active; 'I' for Inactive)
REMARK    1  A    between atoms: C4_6  and  C5_7
ROOT
HETATM    1  C5  UNL     1      14.311  13.585  41.652  1.00  0.00     0.115 A
HETATM    2  N2  UNL     1      15.467  14.293  41.508  1.00  0.00    -0.270 N
ATOM      3  H2  UNL     1      16.162  14.159  40.772  1.00  0.00     0.185 HD
HETATM    4  N3  UNL     1      15.534  15.181  42.484  1.00  0.00    -0.005 NA
HETATM    5  N4  UNL     1      14.466  15.082  43.260  1.00  0.00    -0.225 N
ATOM      6  H4  UNL     1      14.253  15.641  44.087  1.00  0.00     0.205 HD
HETATM    7  N5  UNL     1      13.736  14.115  42.745  1.00  0.00    -0.275 N
ATOM      8  H5  UNL     1      12.843  13.804  43.129  1.00  0.00     0.189 HD
ENDROOT
BRANCH   1   9
HETATM    9  C4  UNL     1      13.835  12.485  40.771  1.00  0.00     0.073 C
HETATM   10  C3  UNL     1      14.971  11.664  40.278  1.00  0.00     0.126 C
HETATM   11  N1  UNL     1      14.739  10.276  40.121  1.00  0.00    -0.420 N
HETATM   12  C2  UNL     1      13.890   9.643  41.069  1.00  0.00     0.113 C
ATOM     13  H1  UNL     1      15.165   9.751  39.358  1.00  0.00     0.153 HD
HETATM   14  C1  UNL     1      13.429  10.564  42.175  1.00  0.00     0.020 C
HETATM   15  C6  UNL     1      12.761  11.744  41.480  1.00  0.00     0.015 C
ENDBRANCH   1   9
TORSDOF 1
ENDMDL