MODEL 2
REMARK VINA RESULT: -5.815448644      2.326      4.610
REMARK  2 active torsions:
REMARK  status: ('A' for Active; 'I' for Inactive)
REMARK    1  A    between atoms: C2_3  and  C3_4
REMARK    2  A    between atoms: C6_7  and  O1_8
ROOT
HETATM    1  N1  UNL     1      15.745  17.560  41.445  1.00  0.00    -0.197 NA
HETATM    2  C1  UNL     1      16.056  16.637  40.816  1.00  0.00     0.061 C
HETATM    3  C2  UNL     1      16.437  15.464  40.043  1.00  0.00     0.151 C
ENDROOT
BRANCH   3   4
HETATM    4  C3  UNL     1      16.161  14.179  40.763  1.00  0.00     0.129 C
HETATM    5  C4  UNL     1      15.029  14.415  41.824  1.00  0.00     0.110 C
HETATM    6  C5  UNL     1      14.121  13.340  41.694  1.00  0.00    -0.147 C
HETATM    7  C6  UNL     1      13.379  12.179  41.399  1.00  0.00     0.210 C
HETATM    8  C7  UNL     1      14.114  11.482  40.187  1.00  0.00     0.244 C
HETATM    9  O2  UNL     1      15.450  11.970  40.150  1.00  0.00    -0.281 OA
HETATM   10  N2  UNL     1      15.723  13.155  39.797  1.00  0.00    -0.296 N
ATOM     11  H2  UNL     1      15.637  13.410  38.813  1.00  0.00     0.188 HD
BRANCH   7  12
HETATM   12  O1  UNL     1      13.273  11.176  42.402  1.00  0.00    -0.382 OA
ATOM     13  H1  UNL     1      12.433  11.057  42.830  1.00  0.00     0.211 HD
ENDBRANCH   7  12
ENDBRANCH   3   4
TORSDOF 2
ENDMDL