MODEL 2
REMARK VINA RESULT: -5.680817629      4.415      5.811
REMARK  1 active torsions:
REMARK  status: ('A' for Active; 'I' for Inactive)
REMARK    1  A    between atoms: C3_3  and  C4_4
ROOT
HETATM    1  C4  UNL     1      13.294  13.814  43.222  1.00  0.00     0.117 A
HETATM    2  N1  UNL     1      13.630  15.107  43.351  1.00  0.00    -0.272 N
ATOM      3  H1  UNL     1      13.973  15.717  42.609  1.00  0.00     0.190 HD
HETATM    4  N2  UNL     1      13.437  15.445  44.613  1.00  0.00    -0.227 N
ATOM      5  H2  UNL     1      13.611  16.373  44.999  1.00  0.00     0.210 HD
HETATM    6  N3  UNL     1      12.988  14.417  45.303  1.00  0.00    -0.227 N
ATOM      7  H3  UNL     1      12.755  14.397  46.296  1.00  0.00     0.210 HD
HETATM    8  N4  UNL     1      12.903  13.420  44.446  1.00  0.00    -0.272 N
ATOM      9  H4  UNL     1      12.584  12.480  44.678  1.00  0.00     0.190 HD
ENDROOT
BRANCH   1  10
HETATM   10  C3  UNL     1      13.350  12.995  41.968  1.00  0.00     0.059 C
HETATM   11  C2  UNL     1      14.585  13.299  41.176  1.00  0.00     0.040 C
HETATM   12  C1  UNL     1      14.967  12.169  40.253  1.00  0.00     0.233 C
HETATM   13  N5  UNL     1      13.750  11.368  40.064  1.00  0.00    -0.075 N
HETATM   14  C6  UNL     1      13.568  10.600  41.258  1.00  0.00     0.233 C
ATOM     15  H52 UNL     1      12.934  11.930  39.819  1.00  0.00     0.277 HD
ATOM     16  H51 UNL     1      13.773  10.798  39.219  1.00  0.00     0.277 HD
HETATM   17  C5  UNL     1      13.274  11.544  42.389  1.00  0.00     0.040 C
ENDBRANCH   1  10
TORSDOF 1
ENDMDL