MODEL 3
REMARK VINA RESULT: -6.033659174      3.573      5.334
REMARK  2 active torsions:
REMARK  status: ('A' for Active; 'I' for Inactive)
REMARK    1  A    between atoms: C4_4  and  N1_5
REMARK    2  A    between atoms: N1_5  and  C5_7
ROOT
HETATM    1  N1  UNL     1      13.766  12.425  40.810  1.00  0.00    -0.349 N
ATOM      2  H1  UNL     1      13.075  12.968  40.291  1.00  0.00     0.163 HD
ENDROOT
BRANCH   1   3
HETATM    3  C4  UNL     1      15.005  13.051  41.148  1.00  0.00     0.085 C
HETATM    4  C3  UNL     1      14.786  14.341  41.919  1.00  0.00     0.025 C
HETATM    5  C2  UNL     1      15.501  15.415  41.142  1.00  0.00     0.002 C
HETATM    6  C1  UNL     1      16.598  14.628  40.461  1.00  0.00     0.002 C
HETATM    7  C6  UNL     1      15.768  13.464  39.914  1.00  0.00     0.025 C
ENDBRANCH   1   3
BRANCH   1   8
HETATM    8  C5  UNL     1      13.472  11.195  41.129  1.00  0.00     0.254 A
HETATM    9  N2  UNL     1      13.107  10.690  42.314  1.00  0.00    -0.249 N
HETATM   10  N3  UNL     1      12.915   9.392  42.148  1.00  0.00     0.001 NA
ATOM     11  H2  UNL     1      12.998  11.210  43.185  1.00  0.00     0.187 HD
HETATM   12  N4  UNL     1      13.157   9.098  40.881  1.00  0.00     0.043 NA
HETATM   13  O1  UNL     1      13.489  10.191  40.288  1.00  0.00    -0.188 OA
ENDBRANCH   1   8
TORSDOF 2
ENDMDL