MODEL 2
REMARK VINA RESULT: -4.872865758      3.229      4.369
REMARK  2 active torsions:
REMARK  status: ('A' for Active; 'I' for Inactive)
REMARK    1  A    between atoms: N1_2  and  N2_5
REMARK    2  A    between atoms: N2_5  and  C3_7
ROOT
HETATM    1  C3  UNL     1      14.227  14.202  42.105  1.00  0.00     0.700 C
HETATM    2  N3  UNL     1      15.358  14.679  41.677  1.00  0.00    -0.225 N
ATOM      3  H3  UNL     1      15.626  15.626  41.943  1.00  0.00     0.177 HD
HETATM    4  C4  UNL     1      16.249  13.910  40.835  1.00  0.00     0.139 C
HETATM    5  C5  UNL     1      15.431  13.069  39.860  1.00  0.00     0.040 C
HETATM    6  C6  UNL     1      14.526  12.188  40.652  1.00  0.00     0.139 C
HETATM    7  N4  UNL     1      13.850  12.882  41.736  1.00  0.00    -0.225 N
ATOM      8  H4  UNL     1      13.095  12.416  42.240  1.00  0.00     0.177 HD
ENDROOT
BRANCH   1   9
HETATM    9  N2  UNL     1      13.338  14.938  42.929  1.00  0.00     0.003 N
ATOM     10  H2  UNL     1      12.830  15.714  42.504  1.00  0.00     0.222 HD
BRANCH   9  11
HETATM   11  N1  UNL     1      13.112  14.680  44.262  1.00  0.00     0.115 N
HETATM   12  C1  UNL     1      11.862  15.297  44.662  1.00  0.00     0.389 C
HETATM   13  C2  UNL     1      14.143  15.211  45.132  1.00  0.00     0.389 C
HETATM   14  O1  UNL     1      13.005  13.361  44.540  1.00  0.00    -0.043 OA
ENDBRANCH   9  11
ENDBRANCH   1   9
TORSDOF 2
ENDMDL