MODEL 3
REMARK VINA RESULT: -5.633619777      5.076      6.761
REMARK  1 active torsions:
REMARK  status: ('A' for Active; 'I' for Inactive)
REMARK    1  A    between atoms: C4_4  and  C5_5
ROOT
HETATM    1  C1  UNL     1      13.661  16.563  42.378  1.00  0.00     0.027 C
HETATM    2  C2  UNL     1      13.940  15.101  42.660  1.00  0.00     0.004 C
HETATM    3  C3  UNL     1      12.935  14.538  43.613  1.00  0.00     0.041 C
HETATM    4  C4  UNL     1      12.938  15.282  44.925  1.00  0.00     0.255 C
HETATM    5  N5  UNL     1      13.330  16.663  44.775  1.00  0.00    -0.064 N
ATOM      6  H51 UNL     1      14.334  16.774  44.918  1.00  0.00     0.278 HD
ATOM      7  H52 UNL     1      12.987  17.226  45.554  1.00  0.00     0.278 HD
HETATM    8  C6  UNL     1      12.929  17.226  43.521  1.00  0.00     0.233 C
ENDROOT
BRANCH   4   9
HETATM    9  C5  UNL     1      11.558  15.243  45.502  1.00  0.00     0.141 A
HETATM   10  N1  UNL     1      11.222  15.292  46.812  1.00  0.00    -0.269 N
HETATM   11  N2  UNL     1       9.900  15.232  46.904  1.00  0.00    -0.005 NA
ATOM     12  H1  UNL     1      11.873  15.364  47.594  1.00  0.00     0.185 HD
HETATM   13  N3  UNL     1       9.369  15.143  45.692  1.00  0.00    -0.225 N
HETATM   14  N4  UNL     1      10.379  15.151  44.855  1.00  0.00    -0.273 N
ATOM     15  H3  UNL     1       8.378  15.081  45.459  1.00  0.00     0.205 HD
ATOM     16  H4  UNL     1      10.284  15.096  43.841  1.00  0.00     0.189 HD
ENDBRANCH   4   9
TORSDOF 1
ENDMDL