MODEL 4
REMARK VINA RESULT: -4.484660497      1.645      4.331
REMARK  1 active torsions:
REMARK  status: ('A' for Active; 'I' for Inactive)
REMARK    1  A    between atoms: C3_5  and  C4_6
ROOT
HETATM    1  C1  UNL     1      13.437  10.348  40.976  1.00  0.00     0.140 C
HETATM    2  C2  UNL     1      12.882  10.017  42.338  1.00  0.00     0.140 C
HETATM    3  N1  UNL     1      13.225  11.201  43.096  1.00  0.00    -0.376 N
ATOM      4  H1  UNL     1      13.321  11.261  44.109  1.00  0.00     0.160 HD
HETATM    5  C3  UNL     1      13.405  12.268  42.166  1.00  0.00     0.114 C
HETATM    6  N3  UNL     1      13.523  11.790  40.977  1.00  0.00    -0.376 N
ATOM      7  H3  UNL     1      13.661  12.359  40.142  1.00  0.00     0.160 HD
ENDROOT
BRANCH   5   8
HETATM    8  C4  UNL     1      13.447  13.692  42.515  1.00  0.00     0.313 C
HETATM    9  N2  UNL     1      14.763  14.231  42.354  1.00  0.00    -0.054 N
HETATM   10  C5  UNL     1      14.882  15.444  43.088  1.00  0.00     0.244 C
ATOM     11  H22 UNL     1      15.487  13.558  42.607  1.00  0.00     0.279 HD
ATOM     12  H21 UNL     1      15.010  14.352  41.372  1.00  0.00     0.279 HD
HETATM   13  C6  UNL     1      14.562  15.164  44.540  1.00  0.00     0.104 C
HETATM   14  S1  UNL     1      13.234  13.909  44.330  1.00  0.00    -0.127 SA
ENDBRANCH   5   8
TORSDOF 1
ENDMDL