MODEL 4
REMARK VINA RESULT: -5.440288946      1.641      1.822
REMARK  1 active torsions:
REMARK  status: ('A' for Active; 'I' for Inactive)
REMARK    1  A    between atoms: N2_6  and  C5_7
ROOT
HETATM    1  N1  UNL     1      15.170   8.405  43.312  1.00  0.00    -0.195 NA
HETATM    2  C1  UNL     1      14.389   9.177  42.997  1.00  0.00     0.086 C
HETATM    3  C2  UNL     1      13.390  10.160  42.607  1.00  0.00     0.207 C
HETATM    4  C3  UNL     1      13.788  10.791  41.303  1.00  0.00     0.063 C
HETATM    5  C4  UNL     1      13.162  12.188  41.463  1.00  0.00     0.155 C
HETATM    6  N2  UNL     1      13.184  12.377  42.889  1.00  0.00    -0.257 N
HETATM    7  N5  UNL     1      13.307  11.269  43.497  1.00  0.00    -0.313 N
ATOM      8  H5  UNL     1      13.342  11.183  44.512  1.00  0.00     0.182 HD
ENDROOT
BRANCH   6   9
HETATM    9  C5  UNL     1      13.086  13.608  43.615  1.00  0.00     0.281 A
HETATM   10  N3  UNL     1      12.892  13.840  44.909  1.00  0.00    -0.242 N
HETATM   11  N4  UNL     1      12.939  15.139  44.686  1.00  0.00    -0.195 N
ATOM     12  H3  UNL     1      12.761  13.255  45.735  1.00  0.00     0.192 HD
HETATM   13  O1  UNL     1      13.129  14.889  43.426  1.00  0.00    -0.182 OA
ATOM     14  H4  UNL     1      12.859  15.980  45.258  1.00  0.00     0.216 HD
ENDBRANCH   6   9
TORSDOF 1
ENDMDL