MODEL 2
REMARK VINA RESULT: -5.506378553      0.802      1.183
REMARK  1 active torsions:
REMARK  status: ('A' for Active; 'I' for Inactive)
REMARK    1  A    between atoms: C2_2  and  C4_4
ROOT
HETATM    1  C4  UNL     1      13.735  13.667  42.377  1.00  0.00     0.113 C
HETATM    2  C5  UNL     1      15.018  14.412  42.256  1.00  0.00     0.259 C
HETATM    3  N1  UNL     1      14.679  15.844  42.309  1.00  0.00    -0.058 N
ATOM      4  H11 UNL     1      13.734  16.020  41.969  1.00  0.00     0.279 HD
ATOM      5  H12 UNL     1      15.196  16.379  41.611  1.00  0.00     0.279 HD
HETATM    6  C6  UNL     1      14.875  16.369  43.633  1.00  0.00     0.356 C
HETATM    7  N2  UNL     1      13.874  15.942  44.586  1.00  0.00    -0.342 N
ATOM      8  H2  UNL     1      13.635  16.609  45.320  1.00  0.00     0.163 HD
HETATM    9  C7  UNL     1      13.245  14.804  44.615  1.00  0.00     0.185 C
HETATM   10  N3  UNL     1      12.292  14.628  45.672  1.00  0.00    -0.064 NA
HETATM   11  N4  UNL     1      13.327  13.668  43.767  1.00  0.00    -0.358 N
ATOM     12  H4  UNL     1      13.076  12.768  44.175  1.00  0.00     0.162 HD
ENDROOT
BRANCH   1  13
HETATM   13  C2  UNL     1      13.792  12.265  41.825  1.00  0.00     0.002 C
HETATM   14  C1  UNL     1      14.626  12.336  40.541  1.00  0.00     0.011 C
HETATM   15  C3  UNL     1      12.459  11.672  41.532  1.00  0.00     0.011 C
ENDBRANCH   1  13
TORSDOF 1
ENDMDL