MODEL 2
REMARK VINA RESULT: -4.503393920      1.472      1.709
REMARK  3 active torsions:
REMARK  status: ('A' for Active; 'I' for Inactive)
REMARK    1  A    between atoms: C2_3  and  N2_4
REMARK    2  A    between atoms: C2_3  and  C3_8
REMARK    3  A    between atoms: C5_10  and  N3_11
ROOT
HETATM    1  N1  UNL     1      16.415  17.102  41.307  1.00  0.00    -0.195 NA
HETATM    2  C1  UNL     1      15.349  17.170  41.788  1.00  0.00     0.093 C
HETATM    3  C2  UNL     1      14.011  17.233  42.392  1.00  0.00     0.302 C
ENDROOT
BRANCH   3   4
HETATM    4  N2  UNL     1      13.788  18.614  42.815  1.00  0.00    -0.061 N
ATOM      5  H23 UNL     1      14.398  19.279  42.340  1.00  0.00     0.275 HD
ATOM      6  H22 UNL     1      12.899  18.992  42.488  1.00  0.00     0.275 HD
ATOM      7  H21 UNL     1      13.883  18.641  43.830  1.00  0.00     0.275 HD
ENDBRANCH   3   4
BRANCH   3   8
HETATM    8  C3  UNL     1      13.943  16.367  43.627  1.00  0.00     0.093 C
HETATM    9  C4  UNL     1      12.545  16.164  44.123  1.00  0.00     0.051 C
HETATM   10  C5  UNL     1      12.485  14.842  44.834  1.00  0.00     0.194 C
HETATM   11  C6  UNL     1      12.981  13.787  43.881  1.00  0.00     0.107 C
HETATM   12  S1  UNL     1      14.385  14.668  43.092  1.00  0.00    -0.159 SA
BRANCH  10  13
HETATM   13  N3  UNL     1      13.215  14.878  46.070  1.00  0.00    -0.074 N
ATOM     14  H33 UNL     1      14.069  14.324  46.016  1.00  0.00     0.274 HD
ATOM     15  H32 UNL     1      13.631  15.795  46.232  1.00  0.00     0.274 HD
ATOM     16  H31 UNL     1      12.632  14.589  46.855  1.00  0.00     0.274 HD
ENDBRANCH  10  13
ENDBRANCH   3   8
TORSDOF 3
ENDMDL