MODEL 2
REMARK VINA RESULT: -5.431312791      1.116      1.362
REMARK  1 active torsions:
REMARK  status: ('A' for Active; 'I' for Inactive)
REMARK    1  A    between atoms: C2_2  and  C3_3
ROOT
HETATM    1  C3  UNL     1      13.147  14.476  43.432  1.00  0.00     0.253 C
HETATM    2  N1  UNL     1      13.271  13.943  44.791  1.00  0.00    -0.103 NA
HETATM    3  N2  UNL     1      12.310  14.480  45.607  1.00  0.00    -0.100 NA
HETATM    4  O1  UNL     1      12.894  15.282  46.549  1.00  0.00    -0.287 OA
HETATM    5  C4  UNL     1      11.823  15.911  47.200  1.00  0.00     0.197 C
HETATM    6  C5  UNL     1      10.731  16.047  46.149  1.00  0.00     0.054 C
HETATM    7  C6  UNL     1      11.442  15.440  44.943  1.00  0.00     0.131 C
HETATM    8  C7  UNL     1      12.344  16.470  44.296  1.00  0.00     0.194 C
HETATM    9  O2  UNL     1      13.267  15.848  43.476  1.00  0.00    -0.363 OA
ENDROOT
BRANCH   1  10
HETATM   10  C2  UNL     1      14.257  13.959  42.574  1.00  0.00     0.013 C
HETATM   11  C1  UNL     1      15.237  14.745  42.179  1.00  0.00     0.011 C
ENDBRANCH   1  10
TORSDOF 1
ENDMDL