MODEL 1
REMARK VINA RESULT: -4.476302947      0.000      0.000
REMARK  2 active torsions:
REMARK  status: ('A' for Active; 'I' for Inactive)
REMARK    1  A    between atoms: O1_2  and  C2_3
REMARK    2  A    between atoms: C6_8  and  N1_9
ROOT
HETATM    1  C2  UNL     1      13.898  14.641  44.940  1.00  0.00     0.331 C
HETATM    2  C3  UNL     1      14.234  15.923  44.297  1.00  0.00     0.137 C
HETATM    3  S1  UNL     1      12.628  16.772  44.194  1.00  0.00    -0.124 SA
HETATM    4  C4  UNL     1      11.775  15.580  45.250  1.00  0.00     0.206 A
HETATM    5  C5  UNL     1      10.347  15.585  45.459  1.00  0.00     0.089 A
HETATM    6  C6  UNL     1      11.326  16.025  46.573  1.00  0.00     0.233 A
HETATM    7  N2  UNL     1      12.523  14.390  45.022  1.00  0.00    -0.028 N
ATOM      8  H21 UNL     1      12.317  13.683  45.727  1.00  0.00     0.282 HD
ATOM      9  H22 UNL     1      12.188  13.896  44.195  1.00  0.00     0.282 HD
ENDROOT
BRANCH   6  10
HETATM   10  N1  UNL     1      11.363  15.201  47.744  1.00  0.00    -0.072 N
ATOM     11  H13 UNL     1      11.801  14.320  47.478  1.00  0.00     0.274 HD
ATOM     12  H12 UNL     1      12.050  15.608  48.377  1.00  0.00     0.274 HD
ATOM     13  H11 UNL     1      10.539  14.971  48.301  1.00  0.00     0.274 HD
ENDBRANCH   6  10
BRANCH   1  14
HETATM   14  O1  UNL     1      14.463  14.555  46.211  1.00  0.00    -0.363 OA
HETATM   15  C1  UNL     1      15.398  15.561  46.439  1.00  0.00     0.204 C
ENDBRANCH   1  14
TORSDOF 2
ENDMDL