MODEL 1
REMARK VINA RESULT: -4.838263792      0.000      0.000
REMARK  2 active torsions:
REMARK  status: ('A' for Active; 'I' for Inactive)
REMARK    1  A    between atoms: C2_2  and  O1_3
REMARK    2  A    between atoms: O1_3  and  C3_4
ROOT
HETATM    1  C3  UNL     1      12.148  15.635  45.010  1.00  0.00     0.230 C
HETATM    2  C4  UNL     1      10.642  15.553  45.103  1.00  0.00     0.078 C
HETATM    3  C5  UNL     1      10.134  16.061  46.413  1.00  0.00     0.237 C
HETATM    4  N1  UNL     1      10.652  15.389  47.557  1.00  0.00    -0.062 N
ATOM      5  H11 UNL     1      10.770  14.394  47.367  1.00  0.00     0.278 HD
ATOM      6  H12 UNL     1       9.949  15.340  48.295  1.00  0.00     0.278 HD
HETATM    7  C6  UNL     1      11.884  15.960  48.063  1.00  0.00     0.341 C
HETATM    8  N2  UNL     1      12.964  15.832  47.137  1.00  0.00    -0.211 NA
HETATM    9  C7  UNL     1      14.254  15.695  47.724  1.00  0.00     0.134 C
HETATM   10  N3  UNL     1      12.675  14.903  46.147  1.00  0.00    -0.132 NA
ENDROOT
BRANCH   1  11
HETATM   11  O1  UNL     1      12.606  15.086  43.837  1.00  0.00    -0.369 OA
BRANCH  11  12
HETATM   12  C2  UNL     1      13.116  13.792  44.021  1.00  0.00     0.165 C
HETATM   13  C1  UNL     1      13.465  13.229  42.665  1.00  0.00     0.033 C
ENDBRANCH  11  12
ENDBRANCH   1  11
TORSDOF 2
ENDMDL