MODEL 3
REMARK VINA RESULT: -5.698894967      5.058      6.434
REMARK  1 active torsions:
REMARK  status: ('A' for Active; 'I' for Inactive)
REMARK    1  A    between atoms: C3_5  and  C4_6
ROOT
HETATM    1  C4  UNL     1      13.239  12.919  43.314  1.00  0.00     0.141 A
HETATM    2  N2  UNL     1      13.889  13.994  42.834  1.00  0.00    -0.268 N
ATOM      3  H2  UNL     1      14.207  14.117  41.873  1.00  0.00     0.185 HD
HETATM    4  N3  UNL     1      14.048  14.871  43.823  1.00  0.00    -0.005 NA
HETATM    5  N4  UNL     1      13.510  14.375  44.925  1.00  0.00    -0.225 N
ATOM      6  H4  UNL     1      13.479  14.822  45.841  1.00  0.00     0.205 HD
HETATM    7  N5  UNL     1      13.022  13.193  44.612  1.00  0.00    -0.273 N
ATOM      8  H5  UNL     1      12.544  12.571  45.265  1.00  0.00     0.189 HD
ENDROOT
BRANCH   1   9
HETATM    9  C3  UNL     1      12.880  11.733  42.510  1.00  0.00     0.217 C
HETATM   10  O1  UNL     1      13.536  10.578  42.952  1.00  0.00    -0.273 OA
HETATM   11  N1  UNL     1      13.164   9.581  42.112  1.00  0.00    -0.100 NA
HETATM   12  C2  UNL     1      13.923   9.612  40.875  1.00  0.00     0.143 C
HETATM   13  C1  UNL     1      14.436  11.051  40.737  1.00  0.00     0.021 C
HETATM   14  C5  UNL     1      13.223  11.940  41.032  1.00  0.00     0.043 C
ENDBRANCH   1   9
TORSDOF 1
ENDMDL