MODEL 1
REMARK VINA RESULT: -4.868088150      0.000      0.000
REMARK  1 active torsions:
REMARK  status: ('A' for Active; 'I' for Inactive)
REMARK    1  A    between atoms: O1_2  and  C2_3
ROOT
HETATM    1  C2  UNL     1      15.158  16.051  43.057  1.00  0.00     0.246 C
HETATM    2  C3  UNL     1      13.820  16.628  42.814  1.00  0.00     0.122 C
HETATM    3  N1  UNL     1      12.777  17.093  42.607  1.00  0.00    -0.192 NA
HETATM    4  C4  UNL     1      15.520  16.440  44.486  1.00  0.00     0.309 C
HETATM    5  N2  UNL     1      14.373  16.145  45.318  1.00  0.00    -0.070 N
ATOM      6  H21 UNL     1      13.511  16.557  44.962  1.00  0.00     0.277 HD
ATOM      7  H22 UNL     1      14.400  16.634  46.213  1.00  0.00     0.277 HD
HETATM    8  C5  UNL     1      14.287  14.725  45.466  1.00  0.00     0.234 C
HETATM    9  C6  UNL     1      13.321  14.103  44.506  1.00  0.00     0.047 C
HETATM   10  C7  UNL     1      13.790  14.072  43.091  1.00  0.00     0.119 C
HETATM   11  N3  UNL     1      15.076  14.647  42.868  1.00  0.00    -0.378 N
ATOM     12  H3  UNL     1      15.882  14.086  42.592  1.00  0.00     0.157 HD
ENDROOT
BRANCH   1  13
HETATM   13  O1  UNL     1      16.033  16.703  42.222  1.00  0.00    -0.352 OA
HETATM   14  C1  UNL     1      16.005  16.256  40.916  1.00  0.00     0.206 C
ENDBRANCH   1  13
TORSDOF 1
ENDMDL