MODEL 4
REMARK VINA RESULT: -5.059682768      1.087      1.887
REMARK  2 active torsions:
REMARK  status: ('A' for Active; 'I' for Inactive)
REMARK    1  A    between atoms: C5_7  and  C6_8
REMARK    2  A    between atoms: C6_8  and  O2_9
ROOT
HETATM    1  C1  UNL     1      13.024  13.886  43.377  1.00  0.00     0.036 C
HETATM    2  C2  UNL     1      13.559  15.098  44.081  1.00  0.00     0.088 C
HETATM    3  C3  UNL     1      14.901  15.377  43.597  1.00  0.00     0.073 C
HETATM    4  N1  UNL     1      15.969  15.619  43.212  1.00  0.00    -0.196 NA
HETATM    5  C4  UNL     1      12.670  16.285  43.722  1.00  0.00     0.197 C
HETATM    6  O1  UNL     1      11.428  16.025  44.341  1.00  0.00    -0.357 OA
HETATM    7  C5  UNL     1      11.567  16.085  45.721  1.00  0.00     0.283 C
HETATM    8  O3  UNL     1      12.293  14.978  46.123  1.00  0.00    -0.357 OA
HETATM    9  C7  UNL     1      13.548  14.972  45.572  1.00  0.00     0.197 C
ENDROOT
BRANCH   7  10
HETATM   10  C6  UNL     1      10.176  15.996  46.319  1.00  0.00     0.224 C
BRANCH  10  11
HETATM   11  O2  UNL     1       9.368  15.112  45.604  1.00  0.00    -0.396 OA
ATOM     12  H2  UNL     1       8.462  15.162  45.886  1.00  0.00     0.209 HD
ENDBRANCH  10  11
ENDBRANCH   7  10
TORSDOF 2
ENDMDL