MODEL 1
REMARK VINA RESULT: -6.248559726      0.000      0.000
REMARK  3 active torsions:
REMARK  status: ('A' for Active; 'I' for Inactive)
REMARK       I    between atoms: C1_4  and  N3_6
REMARK    1  A    between atoms: N3_6  and  C2_8
REMARK    2  A    between atoms: C7_13  and  C8_14
REMARK    3  A    between atoms: C8_14  and  N4_15
ROOT
HETATM    1  C2  UNL     1      14.067  12.199  41.711  1.00  0.00     0.089 C
HETATM    2  C3  UNL     1      14.619  12.397  40.306  1.00  0.00     0.026 C
HETATM    3  C4  UNL     1      15.829  13.280  40.314  1.00  0.00     0.002 C
HETATM    4  C5  UNL     1      15.696  14.513  41.129  1.00  0.00     0.001 C
HETATM    5  C6  UNL     1      14.945  14.358  42.405  1.00  0.00     0.008 C
HETATM    6  C7  UNL     1      13.693  13.538  42.293  1.00  0.00     0.034 C
ENDROOT
BRANCH   1   7
HETATM    7  N3  UNL     1      12.994  11.272  41.631  1.00  0.00    -0.360 N
HETATM    8  C1  UNL     1      13.085   9.871  41.703  1.00  0.00     0.182 C
HETATM    9  N1  UNL     1      12.415   9.256  42.606  1.00  0.00    -0.374 N
HETATM   10  N2  UNL     1      13.876   9.068  40.836  1.00  0.00    -0.064 NA
ATOM     11  H12 UNL     1      12.480   8.240  42.658  1.00  0.00     0.158 HD
ATOM     12  H11 UNL     1      11.847   9.833  43.228  1.00  0.00     0.158 HD
ATOM     13  H3  UNL     1      12.060  11.664  41.509  1.00  0.00     0.162 HD
ENDBRANCH   1   7
BRANCH   6  14
HETATM   14  C8  UNL     1      13.193  13.297  43.715  1.00  0.00     0.236 C
BRANCH  14  15
HETATM   15  N4  UNL     1      13.250  14.560  44.433  1.00  0.00    -0.079 N
ATOM     16  H43 UNL     1      14.076  14.639  45.027  1.00  0.00     0.274 HD
ATOM     17  H42 UNL     1      13.446  15.353  43.821  1.00  0.00     0.274 HD
ATOM     18  H41 UNL     1      12.379  14.669  44.953  1.00  0.00     0.274 HD
ENDBRANCH  14  15
ENDBRANCH   6  14
TORSDOF 3
ENDMDL