MODEL 4
REMARK VINA RESULT: -5.762681691      1.493      2.317
REMARK  3 active torsions:
REMARK  status: ('A' for Active; 'I' for Inactive)
REMARK    1  A    between atoms: N1_1  and  C1_5
REMARK    2  A    between atoms: C1_5  and  C2_6
REMARK    3  A    between atoms: C1_5  and  C8_12
ROOT
HETATM    1  C1  UNL     1      13.194  13.810  43.267  1.00  0.00     0.194 C
ENDROOT
BRANCH   1   2
HETATM    2  N1  UNL     1      13.270  13.454  44.669  1.00  0.00    -0.074 N
ATOM      3  H13 UNL     1      12.867  12.532  44.837  1.00  0.00     0.274 HD
ATOM      4  H12 UNL     1      14.232  13.264  44.949  1.00  0.00     0.274 HD
ATOM      5  H11 UNL     1      12.845  14.157  45.273  1.00  0.00     0.274 HD
ENDBRANCH   1   2
BRANCH   1   6
HETATM    6  C2  UNL     1      13.201  12.618  42.376  1.00  0.00     0.016 C
HETATM    7  C3  UNL     1      13.570  11.409  43.227  1.00  0.00     0.007 C
HETATM    8  C4  UNL     1      13.132  10.152  42.508  1.00  0.00     0.000 C
HETATM    9  C5  UNL     1      13.545  10.290  41.059  1.00  0.00     0.000 C
HETATM   10  C6  UNL     1      14.668  11.309  40.942  1.00  0.00     0.000 C
HETATM   11  C7  UNL     1      14.145  12.703  41.226  1.00  0.00     0.007 C
ENDBRANCH   1   6
BRANCH   1  12
HETATM   12  C8  UNL     1      14.297  14.793  42.984  1.00  0.00     0.068 C
HETATM   13  C9  UNL     1      14.811  15.436  44.255  1.00  0.00     0.240 C
HETATM   14  N2  UNL     1      15.000  16.658  43.457  1.00  0.00    -0.074 N
HETATM   15  C10 UNL     1      13.823  16.214  42.691  1.00  0.00     0.240 C
ATOM     16  H22 UNL     1      15.044  17.581  43.888  1.00  0.00     0.277 HD
ATOM     17  H21 UNL     1      15.888  16.871  43.001  1.00  0.00     0.277 HD
ENDBRANCH   1  12
TORSDOF 3
ENDMDL