MODEL 2
REMARK VINA RESULT: -5.360037375      4.937      6.577
REMARK  3 active torsions:
REMARK  status: ('A' for Active; 'I' for Inactive)
REMARK    1  A    between atoms: C6_8  and  C8_10
REMARK    2  A    between atoms: C8_10  and  N2_11
REMARK    3  A    between atoms: N2_11  and  N3_12
ROOT
HETATM    1  C1  UNL     1      13.280  13.601  43.091  1.00  0.00     0.010 C
HETATM    2  C2  UNL     1      13.945  14.865  43.651  1.00  0.00    -0.016 C
HETATM    3  C3  UNL     1      13.181  15.989  43.035  1.00  0.00     0.009 C
HETATM    4  C4  UNL     1      13.730  17.348  43.311  1.00  0.00     0.044 C
HETATM    5  C5  UNL     1      15.003  17.263  44.133  1.00  0.00     0.056 C
HETATM    6  N1  UNL     1      14.658  17.086  45.477  1.00  0.00    -0.392 N
ATOM      7  H1  UNL     1      14.774  17.871  46.118  1.00  0.00     0.159 HD
HETATM    8  C6  UNL     1      14.165  15.888  45.975  1.00  0.00     0.041 C
HETATM    9  C7  UNL     1      15.151  15.451  47.064  1.00  0.00     0.039 C
HETATM   10  C9  UNL     1      13.854  14.743  45.128  1.00  0.00     0.036 C
ENDROOT
BRANCH   8  11
HETATM   11  C8  UNL     1      12.907  16.251  46.772  1.00  0.00     0.164 C
BRANCH  11  12
HETATM   12  N2  UNL     1      12.066  15.072  46.961  1.00  0.00    -0.146 NA
BRANCH  12  13
HETATM   13  N3  UNL     1      11.696  14.984  48.298  1.00  0.00    -0.348 N
ATOM     14  H32 UNL     1      10.958  14.378  48.656  1.00  0.00     0.172 HD
ATOM     15  H31 UNL     1      12.277  15.615  48.849  1.00  0.00     0.172 HD
ENDBRANCH  12  13
ENDBRANCH  11  12
ENDBRANCH   8  11
TORSDOF 3
ENDMDL