MODEL 5
REMARK VINA RESULT: -5.038252483      1.612      1.615
REMARK  2 active torsions:
REMARK  status: ('A' for Active; 'I' for Inactive)
REMARK    1  A    between atoms: N1_2  and  N2_4
REMARK    2  A    between atoms: C9_13  and  N3_14
ROOT
HETATM    1  N2  UNL     1      13.729  15.618  47.342  1.00  0.00    -0.311 N
ATOM      2  H2  UNL     1      14.463  14.941  47.550  1.00  0.00     0.186 HD
HETATM    3  C2  UNL     1      13.315  15.676  46.132  1.00  0.00     0.034 C
HETATM    4  C3  UNL     1      12.247  16.652  45.805  1.00  0.00     0.056 C
HETATM    5  C4  UNL     1      12.547  17.376  44.498  1.00  0.00     0.007 C
HETATM    6  C5  UNL     1      12.853  16.330  43.468  1.00  0.00     0.011 C
HETATM    7  C6  UNL     1      14.091  15.538  43.776  1.00  0.00    -0.014 C
HETATM    8  C7  UNL     1      14.230  14.478  42.692  1.00  0.00     0.017 C
HETATM    9  C8  UNL     1      15.323  16.375  43.901  1.00  0.00     0.017 C
HETATM   10  C9  UNL     1      13.887  14.797  45.095  1.00  0.00     0.238 C
ENDROOT
BRANCH   1  11
HETATM   11  N1  UNL     1      13.269  16.387  48.384  1.00  0.00    -0.341 N
HETATM   12  C1  UNL     1      14.129  17.434  48.905  1.00  0.00     0.167 C
ATOM     13  H1  UNL     1      12.344  16.225  48.782  1.00  0.00     0.179 HD
ENDBRANCH   1  11
BRANCH  10  14
HETATM   14  N3  UNL     1      13.055  13.616  44.868  1.00  0.00    -0.069 N
ATOM     15  H33 UNL     1      13.604  12.838  44.500  1.00  0.00     0.275 HD
ATOM     16  H32 UNL     1      12.754  13.197  45.748  1.00  0.00     0.275 HD
ATOM     17  H31 UNL     1      12.259  13.825  44.265  1.00  0.00     0.275 HD
ENDBRANCH  10  14
TORSDOF 2
ENDMDL