MODEL 2
REMARK VINA RESULT: -5.372872891      3.065      3.952
REMARK  3 active torsions:
REMARK  status: ('A' for Active; 'I' for Inactive)
REMARK    1  A    between atoms: C2_2  and  N1_3
REMARK    2  A    between atoms: N1_3  and  C3_5
REMARK    3  A    between atoms: C5_9  and  C6_10
ROOT
HETATM    1  C3  UNL     1      13.909  15.189  44.809  1.00  0.00     0.685 C
HETATM    2  N2  UNL     1      14.510  15.334  43.681  1.00  0.00    -0.224 N
ATOM      3  H2  UNL     1      15.075  16.173  43.553  1.00  0.00     0.177 HD
HETATM    4  C4  UNL     1      14.446  14.405  42.587  1.00  0.00     0.161 C
HETATM    5  C5  UNL     1      13.365  13.410  42.825  1.00  0.00     0.121 C
HETATM    6  N3  UNL     1      13.437  12.920  44.173  1.00  0.00    -0.119 NA
HETATM    7  N4  UNL     1      13.113  14.018  45.014  1.00  0.00    -0.136 N
ATOM      8  H4  UNL     1      12.369  13.975  45.711  1.00  0.00     0.201 HD
ENDROOT
BRANCH   1   9
HETATM    9  N1  UNL     1      14.036  16.169  45.838  1.00  0.00    -0.226 N
ATOM     10  H1  UNL     1      13.982  17.153  45.575  1.00  0.00     0.177 HD
BRANCH   9  11
HETATM   11  C2  UNL     1      14.237  15.842  47.235  1.00  0.00     0.133 C
HETATM   12  C1  UNL     1      15.553  15.145  47.440  1.00  0.00     0.027 C
ENDBRANCH   9  11
ENDBRANCH   1   9
BRANCH   5  13
HETATM   13  C6  UNL     1      13.342  12.303  41.798  1.00  0.00     0.000 C
HETATM   14  C7  UNL     1      14.449  12.404  40.788  1.00  0.00     0.011 C
HETATM   15  C8  UNL     1      13.373  10.988  42.496  1.00  0.00     0.011 C
ENDBRANCH   5  13
TORSDOF 3
ENDMDL