MODEL 2
REMARK VINA RESULT: -5.629171567      1.331      1.905
REMARK  3 active torsions:
REMARK  status: ('A' for Active; 'I' for Inactive)
REMARK    1  A    between atoms: C2_2  and  C4_4
REMARK    2  A    between atoms: C4_4  and  C6_6
REMARK    3  A    between atoms: C8_8  and  N1_9
ROOT
HETATM    1  C6  UNL     1      14.646  12.983  41.689  1.00  0.00     0.086 C
HETATM    2  C7  UNL     1      13.955  14.082  42.465  1.00  0.00     0.058 C
HETATM    3  C8  UNL     1      14.998  15.115  42.825  1.00  0.00     0.187 C
HETATM    4  C9  UNL     1      15.480  15.704  41.508  1.00  0.00     0.052 C
HETATM    5  C10 UNL     1      16.204  14.578  40.791  1.00  0.00     0.116 C
HETATM    6  N2  UNL     1      15.413  13.424  40.593  1.00  0.00    -0.416 N
ATOM      7  H2  UNL     1      15.399  12.933  39.699  1.00  0.00     0.153 HD
ENDROOT
BRANCH   1   8
HETATM    8  C4  UNL     1      13.601  11.977  41.298  1.00  0.00     0.032 C
HETATM    9  C5  UNL     1      13.442  11.803  39.826  1.00  0.00     0.017 C
BRANCH   8  10
HETATM   10  C2  UNL     1      13.902  10.625  41.894  1.00  0.00    -0.087 C
HETATM   11  C1  UNL     1      13.393  10.287  43.072  1.00  0.00     0.014 C
HETATM   12  C3  UNL     1      14.757   9.637  41.209  1.00  0.00     0.043 C
ENDBRANCH   8  10
ENDBRANCH   1   8
BRANCH   3  13
HETATM   13  N1  UNL     1      14.471  16.133  43.704  1.00  0.00    -0.075 N
ATOM     14  H13 UNL     1      14.878  16.062  44.637  1.00  0.00     0.274 HD
ATOM     15  H12 UNL     1      14.816  17.059  43.448  1.00  0.00     0.274 HD
ATOM     16  H11 UNL     1      13.452  16.117  43.742  1.00  0.00     0.274 HD
ENDBRANCH   3  13
TORSDOF 3
ENDMDL