MODEL 3
REMARK VINA RESULT: -5.563287633      4.868      6.468
REMARK  5 active torsions:
REMARK  status: ('A' for Active; 'I' for Inactive)
REMARK    1  A    between atoms: C3_3  and  C4_4
REMARK    2  A    between atoms: C4_4  and  C5_5
REMARK    3  A    between atoms: C5_5  and  N1_6
REMARK    4  A    between atoms: C9_13  and  N2_14
REMARK    5  A    between atoms: N2_14  and  N3_15
ROOT
HETATM    1  C1  UNL     1      14.941  17.282  44.104  1.00  0.00     0.012 C
HETATM    2  C2  UNL     1      14.126  17.049  42.877  1.00  0.00     0.007 C
HETATM    3  C3  UNL     1      12.973  16.071  43.181  1.00  0.00    -0.008 C
HETATM    4  C6  UNL     1      13.541  14.710  43.320  1.00  0.00     0.005 C
HETATM    5  C7  UNL     1      14.451  14.272  42.187  1.00  0.00     0.002 C
HETATM    6  C8  UNL     1      15.606  15.229  42.034  1.00  0.00     0.023 C
HETATM    7  C9  UNL     1      14.969  16.587  41.744  1.00  0.00     0.102 C
ENDROOT
BRANCH   3   8
HETATM    8  C4  UNL     1      12.307  16.523  44.428  1.00  0.00     0.032 C
BRANCH   8   9
HETATM    9  C5  UNL     1      11.460  15.579  45.177  1.00  0.00     0.230 C
BRANCH   9  10
HETATM   10  N1  UNL     1      11.872  15.188  46.482  1.00  0.00    -0.079 N
ATOM     11  H13 UNL     1      11.046  15.040  47.061  1.00  0.00     0.274 HD
ATOM     12  H12 UNL     1      12.255  14.243  46.441  1.00  0.00     0.274 HD
ATOM     13  H11 UNL     1      12.526  15.790  46.984  1.00  0.00     0.274 HD
ENDBRANCH   9  10
ENDBRANCH   8   9
ENDBRANCH   3   8
BRANCH   7  14
HETATM   14  N2  UNL     1      15.959  17.565  41.423  1.00  0.00    -0.143 NA
BRANCH  14  15
HETATM   15  N3  UNL     1      15.400  18.659  40.797  1.00  0.00    -0.348 N
ATOM     16  H32 UNL     1      15.395  19.596  41.200  1.00  0.00     0.172 HD
ATOM     17  H31 UNL     1      15.002  18.407  39.892  1.00  0.00     0.172 HD
ENDBRANCH  14  15
ENDBRANCH   7  14
TORSDOF 5
ENDMDL