MODEL 5
REMARK VINA RESULT: -4.623146134      1.618      1.885
REMARK  2 active torsions:
REMARK  status: ('A' for Active; 'I' for Inactive)
REMARK    1  A    between atoms: S1_2  and  C2_3
REMARK    2  A    between atoms: C4_12  and  C5_13
ROOT
HETATM    1  C2  UNL     1      12.422  16.478  44.398  1.00  0.00     0.169 C
HETATM    2  N1  UNL     1      11.664  16.867  45.558  1.00  0.00    -0.347 N
ATOM      3  H1  UNL     1      11.279  17.796  45.727  1.00  0.00     0.163 HD
HETATM    4  C3  UNL     1      11.537  15.757  46.426  1.00  0.00     0.170 C
HETATM    5  N2  UNL     1      10.802  15.679  47.513  1.00  0.00    -0.371 N
ATOM      6  H21 UNL     1      10.711  14.878  48.138  1.00  0.00     0.159 HD
ATOM      7  H22 UNL     1      10.208  16.412  47.897  1.00  0.00     0.159 HD
HETATM    8  N3  UNL     1      12.366  14.734  45.890  1.00  0.00    -0.355 N
ATOM      9  H3  UNL     1      12.837  13.994  46.411  1.00  0.00     0.163 HD
HETATM   10  C4  UNL     1      12.410  14.951  44.460  1.00  0.00     0.121 C
ENDROOT
BRANCH   1  11
HETATM   11  S1  UNL     1      14.172  16.946  44.547  1.00  0.00    -0.146 SA
HETATM   12  C1  UNL     1      14.737  17.879  43.101  1.00  0.00     0.092 C
ENDBRANCH   1  11
BRANCH  10  13
HETATM   13  C5  UNL     1      13.657  14.343  43.916  1.00  0.00     0.011 A
HETATM   14  C6  UNL     1      13.873  14.218  42.432  1.00  0.00     0.007 A
HETATM   15  C7  UNL     1      13.427  13.024  43.184  1.00  0.00     0.007 A
ENDBRANCH  10  13
TORSDOF 2
ENDMDL