MODEL 3
REMARK VINA RESULT: -4.754731108      1.998      3.000
REMARK  4 active torsions:
REMARK  status: ('A' for Active; 'I' for Inactive)
REMARK    1  A    between atoms: N1_2  and  C2_4
REMARK    2  A    between atoms: C2_4  and  C3_5
REMARK    3  A    between atoms: C3_5  and  O1_7
REMARK    4  A    between atoms: C9_13  and  N2_14
ROOT
HETATM    1  C2  UNL     1      12.727  16.270  45.693  1.00  0.00     0.082 C
HETATM    2  C5  UNL     1      13.094  17.620  45.099  1.00  0.00     0.036 C
HETATM    3  C6  UNL     1      13.045  17.816  43.662  1.00  0.00     0.003 C
HETATM    4  C7  UNL     1      13.217  16.613  42.780  1.00  0.00     0.002 C
HETATM    5  C8  UNL     1      13.912  15.545  43.610  1.00  0.00     0.035 C
HETATM    6  C9  UNL     1      12.849  15.174  44.643  1.00  0.00     0.213 C
ENDROOT
BRANCH   1   7
HETATM    7  N1  UNL     1      11.420  16.217  46.169  1.00  0.00    -0.395 N
HETATM    8  C1  UNL     1      10.241  16.081  45.507  1.00  0.00     0.113 C
ATOM      9  H1  UNL     1      11.333  16.293  47.183  1.00  0.00     0.159 HD
ENDBRANCH   1   7
BRANCH   1  10
HETATM   10  C3  UNL     1      13.711  15.897  46.777  1.00  0.00     0.144 C
HETATM   11  C4  UNL     1      14.851  16.757  47.060  1.00  0.00     0.042 C
BRANCH  10  12
HETATM   12  O1  UNL     1      13.115  15.423  47.938  1.00  0.00    -0.393 OA
ATOM     13  H1  UNL     1      13.534  15.724  48.736  1.00  0.00     0.210 HD
ENDBRANCH  10  12
ENDBRANCH   1  10
BRANCH   6  14
HETATM   14  N2  UNL     1      13.083  13.879  45.189  1.00  0.00    -0.073 N
ATOM     15  H23 UNL     1      12.558  13.171  44.674  1.00  0.00     0.274 HD
ATOM     16  H22 UNL     1      14.033  13.569  44.984  1.00  0.00     0.274 HD
ATOM     17  H21 UNL     1      12.890  13.813  46.188  1.00  0.00     0.274 HD
ENDBRANCH   6  14
TORSDOF 4
ENDMDL