MODEL 4
REMARK VINA RESULT: -5.649868153      2.680      3.379
REMARK  2 active torsions:
REMARK  status: ('A' for Active; 'I' for Inactive)
REMARK    1  A    between atoms: C2_8  and  N4_9
REMARK    2  A    between atoms: N4_9  and  C3_11
ROOT
HETATM    1  N4  UNL     1      13.198  12.124  41.026  1.00  0.00    -0.365 N
ATOM      2  H4  UNL     1      12.328  12.541  40.693  1.00  0.00     0.162 HD
ENDROOT
BRANCH   1   3
HETATM    3  C2  UNL     1      14.376  12.909  41.002  1.00  0.00     0.134 A
HETATM    4  C1  UNL     1      15.444  12.846  40.143  1.00  0.00     0.158 A
HETATM    5  N1  UNL     1      16.337  13.790  40.505  1.00  0.00    -0.294 N
HETATM    6  N2  UNL     1      15.841  14.411  41.545  1.00  0.00    -0.241 N
ATOM      7  H1  UNL     1      17.231  13.984  40.054  1.00  0.00     0.187 HD
HETATM    8  N3  UNL     1      14.662  13.899  41.863  1.00  0.00    -0.270 N
ATOM      9  H2  UNL     1      16.296  15.178  42.038  1.00  0.00     0.208 HD
ATOM     10  H3  UNL     1      14.069  14.205  42.634  1.00  0.00     0.190 HD
ENDBRANCH   1   3
BRANCH   1  11
HETATM   11  C3  UNL     1      13.170  10.755  41.500  1.00  0.00     0.122 C
HETATM   12  C4  UNL     1      13.543  10.767  42.962  1.00  0.00     0.036 C
HETATM   13  C5  UNL     1      13.865   9.309  43.317  1.00  0.00     0.047 C
HETATM   14  C6  UNL     1      15.207   9.085  42.653  1.00  0.00     0.060 C
HETATM   15  N5  UNL     1      15.057   9.145  41.258  1.00  0.00    -0.380 N
HETATM   16  C7  UNL     1      14.011   9.856  40.668  1.00  0.00     0.085 C
ATOM     17  H5  UNL     1      15.727   8.659  40.664  1.00  0.00     0.164 HD
ENDBRANCH   1  11
TORSDOF 2
ENDMDL