MODEL 5
REMARK VINA RESULT: -8.084505475      2.612      4.459
REMARK  6 active torsions:
REMARK  status: ('A' for Active; 'I' for Inactive)
REMARK    1  A    between atoms: C2_5  and  N2_6
REMARK    2  A    between atoms: N2_6  and  N3_8
REMARK    3  A    between atoms: N3_8  and  C3_9
REMARK    4  A    between atoms: C5_11  and  O2_12
REMARK    5  A    between atoms: O2_12  and  S1_13
REMARK    6  A    between atoms: C6_19  and  N5_20
ROOT
HETATM    1  O1  UNL     1       7.923   3.290 -17.835  1.00  0.00    -0.247 OA
HETATM    2  C1  UNL     1       7.913   3.952 -16.760  1.00  0.00     0.328 A
HETATM    3  N1  UNL     1       7.972   5.292 -16.799  1.00  0.00    -0.291 N
ATOM      4  H1  UNL     1       8.024   5.764 -17.701  1.00  0.00     0.172 HD
HETATM    5  C2  UNL     1       7.963   6.025 -15.671  1.00  0.00     0.160 A
HETATM    6  C6  UNL     1       7.890   5.319 -14.469  1.00  0.00     0.215 A
HETATM    7  C7  UNL     1       7.830   3.941 -14.445  1.00  0.00     0.286 A
HETATM    8  O9  UNL     1       7.762   3.298 -13.360  1.00  0.00    -0.265 OA
HETATM    9  N6  UNL     1       7.842   3.260 -15.605  1.00  0.00    -0.273 N
ATOM     10  H6  UNL     1       7.799   2.241 -15.611  1.00  0.00     0.173 HD
ENDROOT
BRANCH   5  11
HETATM   11  N2  UNL     1       8.014   7.434 -15.689  1.00  0.00    -0.285 N
ATOM     12  H2  UNL     1       8.336   7.885 -14.833  1.00  0.00     0.184 HD
BRANCH  11  13
HETATM   13  N3  UNL     1       7.678   8.270 -16.727  1.00  0.00    -0.105 NA
BRANCH  13  14
HETATM   14  C3  UNL     1       8.811   9.096 -17.105  1.00  0.00     0.264 C
HETATM   15  C4  UNL     1       9.886   8.271 -17.737  1.00  0.00     0.106 C
HETATM   16  C5  UNL     1      11.138   8.892 -17.198  1.00  0.00     0.269 C
HETATM   17  N4  UNL     1      10.674  10.006 -16.433  1.00  0.00    -0.065 NA
HETATM   18  O6  UNL     1       9.417   9.693 -16.037  1.00  0.00    -0.260 OA
BRANCH  16  19
HETATM   19  O2  UNL     1      11.960   8.029 -16.533  1.00  0.00    -0.232 OA
BRANCH  19  20
HETATM   20  S1  UNL     1      13.578   8.221 -16.668  1.00  0.00     0.253 S
HETATM   21  O3  UNL     1      14.283   7.036 -17.317  1.00  0.00    -0.572 OA
HETATM   22  O4  UNL     1      13.968   9.502 -17.378  1.00  0.00    -0.572 OA
HETATM   23  O5  UNL     1      14.233   8.333 -15.120  1.00  0.00    -0.572 OA
ENDBRANCH  19  20
ENDBRANCH  16  19
ENDBRANCH  13  14
ENDBRANCH  11  13
ENDBRANCH   5  11
BRANCH   6  24
HETATM   24  N5  UNL     1       7.876   6.046 -13.274  1.00  0.00    -0.106 N
HETATM   25  O7  UNL     1       6.955   6.834 -13.034  1.00  0.00    -0.531 OA
HETATM   26  O8  UNL     1       8.880   5.886 -12.366  1.00  0.00    -0.531 OA
ENDBRANCH   6  24
TORSDOF 6
ENDMDL