MODEL 2
REMARK VINA RESULT: -7.351973642      1.395      1.779
REMARK  10 active torsions:
REMARK  status: ('A' for Active; 'I' for Inactive)
REMARK    1  A    between atoms: O1_2  and  C2_3
REMARK    2  A    between atoms: C3_5  and  O3_7
REMARK    3  A    between atoms: C5_10  and  C6_11
REMARK    4  A    between atoms: C6_11  and  O5_12
REMARK    5  A    between atoms: O5_12  and  C7_13
REMARK    6  A    between atoms: C8_15  and  O7_17
REMARK    7  A    between atoms: C10_19  and  O8_20
REMARK    8  A    between atoms: C11_22  and  O9_23
REMARK    9  A    between atoms: C12_25  and  O10_26
REMARK   10  A    between atoms: C13_28  and  O11_29
ROOT
HETATM    1  C7  UNL     1       8.158   4.832 -15.659  1.00  0.00     0.294 C
HETATM    2  O6  UNL     1       8.181   6.066 -14.940  1.00  0.00    -0.320 OA
HETATM    3  C8  UNL     1       6.993   6.160 -14.268  1.00  0.00     0.189 C
HETATM    4  C9  UNL     1       6.739   7.577 -13.748  1.00  0.00     0.082 C
HETATM    5  C10 UNL     1       7.084   5.280 -13.046  1.00  0.00     0.211 C
HETATM    6  C11 UNL     1       7.806   4.003 -13.284  1.00  0.00     0.185 C
HETATM    7  C12 UNL     1       8.137   3.675 -14.686  1.00  0.00     0.204 C
ENDROOT
BRANCH   1   8
HETATM    8  O5  UNL     1       9.156   4.868 -16.504  1.00  0.00    -0.356 OA
BRANCH   8   9
HETATM    9  C6  UNL     1       9.554   5.687 -17.427  1.00  0.00     0.206 C
BRANCH   9  10
HETATM   10  C5  UNL     1      10.295   6.933 -17.060  1.00  0.00     0.184 C
HETATM   11  O4  UNL     1       9.852   8.057 -17.748  1.00  0.00    -0.323 OA
HETATM   12  C3  UNL     1      10.625   9.148 -17.602  1.00  0.00     0.278 C
HETATM   13  O2  UNL     1      11.633   9.146 -16.703  1.00  0.00    -0.300 OA
HETATM   14  C4  UNL     1       9.716  10.338 -17.259  1.00  0.00     0.115 C
HETATM   15  C2  UNL     1      12.366   8.009 -16.550  1.00  0.00     0.296 C
HETATM   16  C13 UNL     1      11.761   6.810 -17.287  1.00  0.00     0.204 C
BRANCH  12  17
HETATM   17  O3  UNL     1      11.172   9.473 -18.867  1.00  0.00    -0.343 OA
ATOM     18  H3  UNL     1      11.753   8.766 -19.123  1.00  0.00     0.215 HD
ENDBRANCH  12  17
BRANCH  15  19
HETATM   19  O1  UNL     1      13.663   8.211 -16.989  1.00  0.00    -0.363 OA
HETATM   20  C1  UNL     1      14.027   9.525 -16.718  1.00  0.00     0.204 C
ENDBRANCH  15  19
BRANCH  16  21
HETATM   21  O11 UNL     1      12.294   5.680 -16.623  1.00  0.00    -0.388 OA
ATOM     22  H11 UNL     1      12.367   5.018 -17.300  1.00  0.00     0.210 HD
ENDBRANCH  16  21
ENDBRANCH   9  10
ENDBRANCH   8   9
ENDBRANCH   1   8
BRANCH   7  23
HETATM   23  O10 UNL     1       7.225   2.733 -15.154  1.00  0.00    -0.388 OA
ATOM     24  H10 UNL     1       6.355   3.110 -15.094  1.00  0.00     0.210 HD
ENDBRANCH   7  23
BRANCH   3  25
HETATM   25  O7  UNL     1       5.867   5.803 -14.963  1.00  0.00    -0.363 OA
ATOM     26  H7  UNL     1       5.155   5.431 -14.456  1.00  0.00     0.213 HD
ENDBRANCH   3  25
BRANCH   6  27
HETATM   27  O9  UNL     1       8.973   4.036 -12.477  1.00  0.00    -0.390 OA
ATOM     28  H9  UNL     1       8.727   4.447 -11.656  1.00  0.00     0.210 HD
ENDBRANCH   6  27
BRANCH   5  29
HETATM   29  O8  UNL     1       7.665   6.044 -12.026  1.00  0.00    -0.387 OA
ATOM     30  H8  UNL     1       7.443   5.628 -11.201  1.00  0.00     0.210 HD
ENDBRANCH   5  29
TORSDOF 10
ENDMDL