MODEL 1
REMARK VINA RESULT: -7.287820172      0.000      0.000
REMARK  10 active torsions:
REMARK  status: ('A' for Active; 'I' for Inactive)
REMARK    1  A    between atoms: O1_2  and  C2_3
REMARK    2  A    between atoms: C3_5  and  O3_6
REMARK    3  A    between atoms: O3_6  and  C4_7
REMARK    4  A    between atoms: C5_9  and  S1_10
REMARK    5  A    between atoms: C7_12  and  O5_13
REMARK    6  A    between atoms: C8_15  and  O6_16
REMARK    7  A    between atoms: C9_18  and  O7_19
REMARK    8  A    between atoms: C10_21  and  O8_22
REMARK    9  A    between atoms: C11_24  and  O9_25
REMARK   10  A    between atoms: C12_27  and  O10_28
ROOT
HETATM    1  O3  UNL     1       9.800   6.985 -17.517  1.00  0.00    -0.326 OA
ENDROOT
BRANCH   1   2
HETATM    2  C3  UNL     1       9.106   6.550 -16.363  1.00  0.00     0.297 C
HETATM    3  O2  UNL     1       7.864   7.174 -16.415  1.00  0.00    -0.326 OA
HETATM    4  C2  UNL     1       7.098   6.918 -15.283  1.00  0.00     0.293 C
HETATM    5  C12 UNL     1       7.194   5.476 -14.837  1.00  0.00     0.204 C
HETATM    6  C11 UNL     1       7.619   4.571 -15.985  1.00  0.00     0.185 C
HETATM    7  C10 UNL     1       8.998   5.050 -16.410  1.00  0.00     0.204 C
BRANCH   4   8
HETATM    8  O1  UNL     1       7.424   7.720 -14.215  1.00  0.00    -0.363 OA
HETATM    9  C1  UNL     1       6.512   8.747 -14.004  1.00  0.00     0.204 C
ENDBRANCH   4   8
BRANCH   5  10
HETATM   10  O10 UNL     1       6.022   5.027 -14.253  1.00  0.00    -0.388 OA
ATOM     11  H10 UNL     1       5.838   5.464 -13.430  1.00  0.00     0.210 HD
ENDBRANCH   5  10
BRANCH   6  12
HETATM   12  O9  UNL     1       7.746   3.290 -15.446  1.00  0.00    -0.390 OA
ATOM     13  H9  UNL     1       6.964   3.100 -14.940  1.00  0.00     0.210 HD
ENDBRANCH   6  12
BRANCH   7  14
HETATM   14  O8  UNL     1       9.893   4.509 -15.458  1.00  0.00    -0.388 OA
ATOM     15  H8  UNL     1       9.476   3.760 -15.048  1.00  0.00     0.210 HD
ENDBRANCH   7  14
ENDBRANCH   1   2
BRANCH   1  16
HETATM   16  C4  UNL     1      10.855   7.804 -17.199  1.00  0.00     0.295 C
HETATM   17  O4  UNL     1      10.921   8.842 -18.124  1.00  0.00    -0.340 OA
HETATM   18  C5  UNL     1      11.799   9.844 -17.722  1.00  0.00     0.217 C
HETATM   19  C7  UNL     1      13.206   9.330 -17.556  1.00  0.00     0.188 C
HETATM   20  C8  UNL     1      13.279   8.036 -16.820  1.00  0.00     0.183 C
HETATM   21  C9  UNL     1      12.167   7.081 -17.197  1.00  0.00     0.204 C
BRANCH  18  22
HETATM   22  S1  UNL     1      11.210  10.666 -16.221  1.00  0.00    -0.139 SA
HETATM   23  C6  UNL     1       9.440  10.986 -16.285  1.00  0.00     0.092 C
ENDBRANCH  18  22
BRANCH  19  24
HETATM   24  O5  UNL     1      13.977  10.297 -16.919  1.00  0.00    -0.389 OA
ATOM     25  H5  UNL     1      14.783   9.902 -16.611  1.00  0.00     0.210 HD
ENDBRANCH  19  24
BRANCH  20  26
HETATM   26  O6  UNL     1      14.487   7.409 -17.180  1.00  0.00    -0.390 OA
ATOM     27  H6  UNL     1      14.655   7.610 -18.093  1.00  0.00     0.210 HD
ENDBRANCH  20  26
BRANCH  21  28
HETATM   28  O7  UNL     1      12.210   6.022 -16.315  1.00  0.00    -0.388 OA
ATOM     29  H7  UNL     1      13.079   5.847 -15.974  1.00  0.00     0.210 HD
ENDBRANCH  21  28
ENDBRANCH   1  16
TORSDOF 10
ENDMDL