MODEL 2
REMARK VINA RESULT: -7.697200069      1.845      2.835
REMARK  11 active torsions:
REMARK  status: ('A' for Active; 'I' for Inactive)
REMARK    1  A    between atoms: C3_3  and  O1_4
REMARK    2  A    between atoms: C3_3  and  C4_6
REMARK    3  A    between atoms: C3_3  and  C9_13
REMARK    4  A    between atoms: C9_13  and  O4_14
REMARK    5  A    between atoms: C9_13  and  C10_16
REMARK    6  A    between atoms: C10_16  and  O5_17
REMARK    7  A    between atoms: C10_16  and  C11_19
REMARK    8  A    between atoms: C12_23  and  C13_24
REMARK    9  A    between atoms: C13_24  and  O7_25
REMARK   10  A    between atoms: C13_24  and  O8_27
REMARK   11  A    between atoms: C13_24  and  O9_29
ROOT
HETATM    1  C1  UNL     1      10.871   5.618 -16.986  1.00  0.00     0.015 C
HETATM    2  C2  UNL     1       9.745   5.549 -16.574  1.00  0.00    -0.073 C
HETATM    3  C3  UNL     1       8.309   5.436 -16.062  1.00  0.00     0.176 C
ENDROOT
BRANCH   3   4
HETATM    4  O1  UNL     1       7.490   5.471 -17.202  1.00  0.00    -0.372 OA
ATOM      5  H1  UNL     1       6.676   5.049 -16.952  1.00  0.00     0.212 HD
ENDBRANCH   3   4
BRANCH   3   6
HETATM    6  C4  UNL     1       8.099   6.738 -15.346  1.00  0.00     0.198 C
HETATM    7  C5  UNL     1       6.756   7.382 -15.608  1.00  0.00     0.207 C
HETATM    8  O2  UNL     1       6.884   7.737 -16.976  1.00  0.00    -0.353 OA
HETATM    9  C6  UNL     1       8.127   8.309 -16.979  1.00  0.00     0.157 C
HETATM   10  C7  UNL     1       8.691   8.286 -18.399  1.00  0.00     0.078 C
HETATM   11  C8  UNL     1       7.915   9.791 -16.632  1.00  0.00     0.078 C
HETATM   12  O3  UNL     1       8.907   7.673 -16.069  1.00  0.00    -0.344 OA
ENDBRANCH   3   6
BRANCH   3  13
HETATM   13  C9  UNL     1       8.248   4.180 -15.292  1.00  0.00     0.201 C
BRANCH  13  14
HETATM   14  O4  UNL     1       7.357   3.285 -15.980  1.00  0.00    -0.389 OA
ATOM     15  H4  UNL     1       7.759   3.054 -16.809  1.00  0.00     0.210 HD
ENDBRANCH  13  14
BRANCH  13  16
HETATM   16  C10 UNL     1       7.966   4.181 -13.853  1.00  0.00     0.208 C
BRANCH  16  17
HETATM   17  O5  UNL     1       8.941   3.540 -13.101  1.00  0.00    -0.388 OA
ATOM     18  H5  UNL     1       9.025   3.886 -12.220  1.00  0.00     0.210 HD
ENDBRANCH  16  17
BRANCH  16  19
HETATM   19  C11 UNL     1       6.654   3.524 -13.485  1.00  0.00     0.328 C
HETATM   20  O6  UNL     1       6.769   2.128 -13.329  1.00  0.00    -0.242 OA
HETATM   21  N1  UNL     1       5.750   1.792 -12.439  1.00  0.00    -0.238 N
HETATM   22  C12 UNL     1       5.387   2.846 -11.782  1.00  0.00     0.235 C
ATOM     23  H1  UNL     1       5.351   0.860 -12.324  1.00  0.00     0.196 HD
HETATM   24  O10 UNL     1       6.172   3.925 -12.228  1.00  0.00    -0.295 OA
BRANCH  22  25
HETATM   25  C13 UNL     1       4.325   2.944 -10.724  1.00  0.00     0.348 C
BRANCH  25  26
HETATM   26  O7  UNL     1       3.097   3.050 -11.333  1.00  0.00    -0.337 OA
ATOM     27  H7  UNL     1       2.621   3.773 -10.944  1.00  0.00     0.216 HD
ENDBRANCH  25  26
BRANCH  25  28
HETATM   28  O8  UNL     1       4.326   1.820  -9.910  1.00  0.00    -0.337 OA
ATOM     29  H8  UNL     1       3.596   1.838  -9.303  1.00  0.00     0.216 HD
ENDBRANCH  25  28
BRANCH  25  30
HETATM   30  O9  UNL     1       4.565   4.053  -9.901  1.00  0.00    -0.337 OA
ATOM     31  H9  UNL     1       3.743   4.459  -9.651  1.00  0.00     0.216 HD
ENDBRANCH  25  30
ENDBRANCH  22  25
ENDBRANCH  16  19
ENDBRANCH  13  16
ENDBRANCH   3  13
TORSDOF 11
ENDMDL