MODEL 5
REMARK VINA RESULT: -8.568261043      0.859      1.126
REMARK  6 active torsions:
REMARK  status: ('A' for Active; 'I' for Inactive)
REMARK    1  A    between atoms: N1_1  and  C1_4
REMARK    2  A    between atoms: C2_7  and  C3_8
REMARK    3  A    between atoms: N3_9  and  N4_11
REMARK       I    between atoms: N4_11  and  C4_13
REMARK    4  A    between atoms: N6_15  and  O1_17
REMARK    5  A    between atoms: O1_17  and  S1_18
REMARK    6  A    between atoms: S1_18  and  N7_21
ROOT
HETATM    1  N4  UNL     1       7.500   6.157 -16.165  1.00  0.00    -0.272 N
ATOM      2  H4  UNL     1       7.263   7.122 -15.933  1.00  0.00     0.189 HD
HETATM    3  C4  UNL     1       8.401   5.893 -17.207  1.00  0.00     0.228 C
HETATM    4  N5  UNL     1       8.379   4.627 -17.834  1.00  0.00    -0.060 NA
HETATM    5  N6  UNL     1       9.235   6.765 -17.600  1.00  0.00    -0.218 N
ATOM      6  H6  UNL     1       9.880   6.549 -18.360  1.00  0.00     0.198 HD
ENDROOT
BRANCH   1   7
HETATM    7  N3  UNL     1       6.931   5.119 -15.450  1.00  0.00    -0.305 N
HETATM    8  C3  UNL     1       7.400   4.810 -14.295  1.00  0.00     0.166 C
ATOM      9  H3  UNL     1       6.142   4.601 -15.838  1.00  0.00     0.186 HD
BRANCH   8  10
HETATM   10  C2  UNL     1       6.796   3.713 -13.545  1.00  0.00     0.202 A
HETATM   11  N2  UNL     1       7.147   2.405 -13.610  1.00  0.00    -0.166 N
HETATM   12  C1  UNL     1       6.346   1.748 -12.765  1.00  0.00     0.698 A
ATOM     13  H2  UNL     1       7.880   2.001 -14.192  1.00  0.00     0.186 HD
HETATM   14  N10 UNL     1       5.529   2.631 -12.203  1.00  0.00    -0.089 N
HETATM   15  O5  UNL     1       5.814   3.788 -12.678  1.00  0.00    -0.203 OA
ATOM     16  H10 UNL     1       4.805   2.427 -11.515  1.00  0.00     0.213 HD
BRANCH  12  17
HETATM   17  N1  UNL     1       6.371   0.498 -12.550  1.00  0.00    -0.233 N
ATOM     18  H12 UNL     1       6.087  -0.236 -13.198  1.00  0.00     0.174 HD
ATOM     19  H11 UNL     1       6.685   0.053 -11.687  1.00  0.00     0.174 HD
ENDBRANCH  12  17
ENDBRANCH   8  10
ENDBRANCH   1   7
BRANCH   5  20
HETATM   20  O1  UNL     1       9.268   7.988 -17.005  1.00  0.00    -0.135 OA
BRANCH  20  21
HETATM   21  S1  UNL     1       9.994   9.324 -17.785  1.00  0.00     0.379 S
HETATM   22  O2  UNL     1       9.290   9.563 -19.066  1.00  0.00    -0.177 OA
HETATM   23  O3  UNL     1       9.813  10.535 -16.918  1.00  0.00    -0.177 OA
BRANCH  21  24
HETATM   24  N7  UNL     1      11.662   8.936 -18.002  1.00  0.00    -0.081 NA
HETATM   25  C5  UNL     1      12.444  10.016 -17.494  1.00  0.00     0.145 C
HETATM   26  C6  UNL     1      12.857   9.813 -16.042  1.00  0.00     0.122 C
HETATM   27  C7  UNL     1      13.664   8.542 -16.029  1.00  0.00     0.238 C
HETATM   28  O4  UNL     1      14.606   8.352 -15.231  1.00  0.00    -0.272 OA
HETATM   29  N8  UNL     1      13.261   7.572 -17.006  1.00  0.00    -0.259 N
HETATM   30  N9  UNL     1      11.997   7.690 -17.537  1.00  0.00    -0.244 N
ATOM     31  H8  UNL     1      13.888   6.822 -17.297  1.00  0.00     0.191 HD
ATOM     32  H9  UNL     1      11.350   6.903 -17.581  1.00  0.00     0.203 HD
ENDBRANCH  21  24
ENDBRANCH  20  21
ENDBRANCH   5  20
TORSDOF 6
ENDMDL