MODEL 2
REMARK VINA RESULT: -6.621630768      0.792      1.058
REMARK  11 active torsions:
REMARK  status: ('A' for Active; 'I' for Inactive)
REMARK    1  A    between atoms: O1_2  and  C2_3
REMARK    2  A    between atoms: C2_3  and  C3_5
REMARK    3  A    between atoms: C4_6  and  O3_7
REMARK    4  A    between atoms: O3_7  and  C5_8
REMARK    5  A    between atoms: C6_11  and  O4_12
REMARK    6  A    between atoms: C6_11  and  C9_17
REMARK    7  A    between atoms: O4_12  and  C7_13
REMARK    8  A    between atoms: C7_13  and  O6_15
REMARK    9  A    between atoms: C10_20  and  O9_21
REMARK   10  A    between atoms: C11_23  and  O10_24
REMARK   11  A    between atoms: C12_26  and  O11_27
ROOT
HETATM    1  C5  UNL     1       6.793   6.572 -14.728  1.00  0.00     0.256 C
HETATM    2  N1  UNL     1       6.696   5.239 -15.233  1.00  0.00    -0.352 N
ATOM      3  H1  UNL     1       6.035   4.988 -15.968  1.00  0.00     0.159 HD
HETATM    4  C6  UNL     1       7.573   4.283 -14.651  1.00  0.00     0.261 C
HETATM    5  C10 UNL     1       8.571   4.887 -13.675  1.00  0.00     0.216 C
HETATM    6  C11 UNL     1       7.864   5.730 -12.631  1.00  0.00     0.185 C
HETATM    7  C12 UNL     1       6.745   6.537 -13.237  1.00  0.00     0.198 C
ENDROOT
BRANCH   4   8
HETATM    8  O4  UNL     1       8.278   3.621 -15.671  1.00  0.00    -0.252 OA
BRANCH   8   9
HETATM    9  C7  UNL     1       8.047   3.940 -17.010  1.00  0.00     0.408 C
HETATM   10  O5  UNL     1       7.274   3.255 -17.727  1.00  0.00    -0.229 OA
BRANCH   9  11
HETATM   11  O6  UNL     1       8.659   5.028 -17.619  1.00  0.00    -0.303 OA
HETATM   12  C8  UNL     1       9.933   5.473 -17.256  1.00  0.00     0.215 C
ENDBRANCH   9  11
ENDBRANCH   8   9
ENDBRANCH   4   8
BRANCH   4  13
HETATM   13  C9  UNL     1       6.791   3.241 -13.902  1.00  0.00     0.234 C
HETATM   14  O7  UNL     1       5.756   3.516 -13.254  1.00  0.00    -0.644 OA
HETATM   15  O8  UNL     1       7.236   1.926 -13.932  1.00  0.00    -0.644 OA
ENDBRANCH   4  13
BRANCH   5  16
HETATM   16  O9  UNL     1       9.235   3.875 -12.987  1.00  0.00    -0.387 OA
ATOM     17  H9  UNL     1       9.990   4.231 -12.533  1.00  0.00     0.210 HD
ENDBRANCH   5  16
BRANCH   1  18
HETATM   18  O3  UNL     1       7.939   7.204 -15.241  1.00  0.00    -0.335 OA
BRANCH  18  19
HETATM   19  C4  UNL     1       7.953   8.402 -15.895  1.00  0.00     0.143 C
HETATM   20  C3  UNL     1       8.210   9.565 -15.344  1.00  0.00     0.106 C
BRANCH  20  21
HETATM   21  C2  UNL     1       8.206  10.804 -16.109  1.00  0.00     0.284 C
HETATM   22  O2  UNL     1       7.312  11.664 -15.951  1.00  0.00    -0.260 OA
BRANCH  21  23
HETATM   23  O1  UNL     1       9.193  11.095 -17.051  1.00  0.00    -0.323 OA
HETATM   24  C1  UNL     1      10.581  11.041 -16.705  1.00  0.00     0.213 C
ENDBRANCH  21  23
ENDBRANCH  20  21
ENDBRANCH  18  19
ENDBRANCH   1  18
BRANCH   6  25
HETATM   25  O10 UNL     1       7.461   4.931 -11.581  1.00  0.00    -0.390 OA
ATOM     26  H10 UNL     1       7.528   5.414 -10.766  1.00  0.00     0.210 HD
ENDBRANCH   6  25
BRANCH   7  27
HETATM   27  O11 UNL     1       6.681   7.822 -12.682  1.00  0.00    -0.389 OA
ATOM     28  H11 UNL     1       6.288   7.819 -11.817  1.00  0.00     0.210 HD
ENDBRANCH   7  27
TORSDOF 11
ENDMDL