MODEL 4
REMARK VINA RESULT: -7.945931696      0.915      1.190
REMARK  9 active torsions:
REMARK  status: ('A' for Active; 'I' for Inactive)
REMARK    1  A    between atoms: N1_1  and  O1_4
REMARK    2  A    between atoms: O1_4  and  N2_5
REMARK    3  A    between atoms: N2_5  and  C1_7
REMARK    4  A    between atoms: C2_10  and  N4_11
REMARK    5  A    between atoms: N4_11  and  N5_13
REMARK    6  A    between atoms: N5_13  and  O2_15
REMARK    7  A    between atoms: C3_19  and  N7_20
REMARK       I    between atoms: N7_20  and  C4_22
REMARK       I    between atoms: C4_22  and  N8_23
REMARK       I    between atoms: C4_22  and  N9_27
REMARK    8  A    between atoms: N11_34  and  N12_36
REMARK    9  A    between atoms: C6_38  and  C7_39
ROOT
HETATM    1  C1  UNL     1       8.355   5.107 -15.458  1.00  0.00     0.189 C
HETATM    2  N3  UNL     1       8.520   3.929 -14.797  1.00  0.00    -0.169 N
ATOM      3  H3  UNL     1       9.084   3.229 -15.281  1.00  0.00     0.186 HD
HETATM    4  C2  UNL     1       8.044   3.561 -13.596  1.00  0.00     0.714 C
HETATM    5  N6  UNL     1       7.355   4.271 -12.667  1.00  0.00    -0.021 N
ATOM      6  H6  UNL     1       7.117   3.780 -11.806  1.00  0.00     0.203 HD
HETATM    7  C3  UNL     1       6.952   5.549 -12.758  1.00  0.00     0.697 C
HETATM    8  N10 UNL     1       7.135   6.385 -13.784  1.00  0.00    -0.171 N
ATOM      9  H10 UNL     1       6.661   7.282 -13.676  1.00  0.00     0.186 HD
HETATM   10  C5  UNL     1       7.830   6.266 -14.933  1.00  0.00     0.182 C
HETATM   11  N11 UNL     1       8.047   7.316 -15.639  1.00  0.00    -0.282 N
ATOM     12  H11 UNL     1       8.577   7.197 -16.503  1.00  0.00     0.188 HD
ENDROOT
BRANCH   7  13
HETATM   13  N7  UNL     1       6.325   5.967 -11.716  1.00  0.00    -0.173 N
HETATM   14  C4  UNL     1       6.157   5.257 -10.490  1.00  0.00     0.494 C
HETATM   15  N8  UNL     1       5.183   4.201 -10.694  1.00  0.00    -0.032 N
HETATM   16  N9  UNL     1       5.683   6.217  -9.494  1.00  0.00    -0.032 N
ATOM     17  H83 UNL     1       4.301   4.550 -11.068  1.00  0.00     0.278 HD
ATOM     18  H82 UNL     1       5.430   3.586 -11.470  1.00  0.00     0.278 HD
ATOM     19  H81 UNL     1       5.063   3.693  -9.818  1.00  0.00     0.278 HD
ATOM     20  H93 UNL     1       6.291   7.031  -9.404  1.00  0.00     0.278 HD
ATOM     21  H92 UNL     1       4.841   6.713  -9.787  1.00  0.00     0.278 HD
ATOM     22  H91 UNL     1       5.563   5.710  -8.618  1.00  0.00     0.278 HD
ATOM     23  H7  UNL     1       5.908   6.896 -11.771  1.00  0.00     0.181 HD
ENDBRANCH   7  13
BRANCH   4  24
HETATM   24  N4  UNL     1       8.267   2.351 -13.263  1.00  0.00    -0.112 N
ATOM     25  H4  UNL     1       9.232   2.021 -13.235  1.00  0.00     0.207 HD
BRANCH  24  26
HETATM   26  N5  UNL     1       7.245   1.459 -12.934  1.00  0.00    -0.196 N
ATOM     27  H5  UNL     1       7.336   0.823 -12.142  1.00  0.00     0.216 HD
BRANCH  26  28
HETATM   28  O2  UNL     1       6.204   1.464 -13.649  1.00  0.00    -0.274 OA
ATOM     29  H2  UNL     1       5.364   1.527 -13.210  1.00  0.00     0.246 HD
ENDBRANCH  26  28
ENDBRANCH  24  26
ENDBRANCH   4  24
BRANCH   1  30
HETATM   30  N2  UNL     1       8.726   5.135 -16.692  1.00  0.00    -0.222 N
ATOM     31  H2  UNL     1       8.023   5.186 -17.429  1.00  0.00     0.198 HD
BRANCH  30  32
HETATM   32  O1  UNL     1      10.049   5.097 -17.026  1.00  0.00    -0.162 OA
BRANCH  32  33
HETATM   33  N1  UNL     1      10.774   6.266 -17.109  1.00  0.00    -0.286 N
ATOM     34  H12 UNL     1      11.664   6.332 -16.615  1.00  0.00     0.186 HD
ATOM     35  H11 UNL     1      10.419   7.049 -17.657  1.00  0.00     0.186 HD
ENDBRANCH  32  33
ENDBRANCH  30  32
ENDBRANCH   1  30
BRANCH  11  36
HETATM   36  N12 UNL     1       7.626   8.588 -15.327  1.00  0.00    -0.309 N
HETATM   37  C6  UNL     1       7.795   9.623 -16.049  1.00  0.00     0.126 C
ATOM     38  H12 UNL     1       7.135   8.712 -14.442  1.00  0.00     0.186 HD
BRANCH  37  39
HETATM   39  C7  UNL     1       7.304  10.953 -15.627  1.00  0.00     0.021 A
HETATM   40  C8  UNL     1       6.013  11.348 -15.408  1.00  0.00     0.021 A
HETATM   41  C9  UNL     1       5.813  12.616 -15.028  1.00  0.00     0.008 A
HETATM   42  C10 UNL     1       6.915  13.414 -14.890  1.00  0.00     0.050 A
HETATM   43  S1  UNL     1       8.199  12.364 -15.297  1.00  0.00    -0.101 SA
ENDBRANCH  37  39
ENDBRANCH  11  36
TORSDOF 9
ENDMDL