MODEL 1
REMARK VINA RESULT: -6.751295337      0.000      0.000
REMARK  11 active torsions:
REMARK  status: ('A' for Active; 'I' for Inactive)
REMARK    1  A    between atoms: O1_2  and  C2_3
REMARK    2  A    between atoms: C3_5  and  C4_6
REMARK    3  A    between atoms: C4_6  and  O3_7
REMARK    4  A    between atoms: O3_7  and  C5_8
REMARK    5  A    between atoms: C6_10  and  O5_11
REMARK    6  A    between atoms: C7_13  and  O6_14
REMARK    7  A    between atoms: C8_16  and  O7_17
REMARK    8  A    between atoms: C8_16  and  O8_19
REMARK    9  A    between atoms: C9_21  and  O9_22
REMARK   10  A    between atoms: C11_24  and  O10_25
REMARK   11  A    between atoms: C13_28  and  O11_29
ROOT
HETATM    1  C5  UNL     1       9.099   7.455 -16.863  1.00  0.00     0.297 C
HETATM    2  O4  UNL     1       7.866   8.005 -17.225  1.00  0.00    -0.326 OA
HETATM    3  C6  UNL     1       7.479   8.989 -16.336  1.00  0.00     0.294 C
HETATM    4  C7  UNL     1       8.392  10.177 -16.544  1.00  0.00     0.238 C
HETATM    5  C8  UNL     1       9.610   9.784 -17.382  1.00  0.00     0.222 C
HETATM    6  C9  UNL     1      10.209   8.484 -16.877  1.00  0.00     0.240 C
ENDROOT
BRANCH   1   7
HETATM    7  O3  UNL     1       9.346   6.406 -17.751  1.00  0.00    -0.356 OA
BRANCH   7   8
HETATM    8  C4  UNL     1       9.527   5.196 -17.061  1.00  0.00     0.205 C
BRANCH   8   9
HETATM    9  C3  UNL     1       8.598   5.281 -15.845  1.00  0.00     0.177 C
HETATM   10  O2  UNL     1       9.398   4.906 -14.743  1.00  0.00    -0.349 OA
HETATM   11  C2  UNL     1       8.525   4.641 -13.689  1.00  0.00     0.288 C
HETATM   12  C13 UNL     1       7.799   3.313 -13.886  1.00  0.00     0.175 C
HETATM   13  C12 UNL     1       7.804   3.027 -15.373  1.00  0.00     0.071 C
HETATM   14  C11 UNL     1       7.453   4.349 -16.061  1.00  0.00     0.151 C
BRANCH  11  15
HETATM   15  O1  UNL     1       7.624   5.701 -13.615  1.00  0.00    -0.363 OA
HETATM   16  C1  UNL     1       6.895   5.678 -12.429  1.00  0.00     0.204 C
ENDBRANCH  11  15
BRANCH  12  17
HETATM   17  O11 UNL     1       8.397   2.288 -13.158  1.00  0.00    -0.391 OA
ATOM     18  H11 UNL     1       8.328   1.453 -13.606  1.00  0.00     0.210 HD
ENDBRANCH  12  17
BRANCH  14  19
HETATM   19  O10 UNL     1       7.162   4.143 -17.405  1.00  0.00    -0.393 OA
ATOM     20  H10 UNL     1       6.299   3.771 -17.548  1.00  0.00     0.210 HD
ENDBRANCH  14  19
ENDBRANCH   8   9
ENDBRANCH   7   8
ENDBRANCH   1   7
BRANCH   6  21
HETATM   21  O9  UNL     1      11.175   8.079 -17.767  1.00  0.00    -0.380 OA
HETATM   22  C10 UNL     1      12.420   7.884 -17.172  1.00  0.00     0.202 C
ENDBRANCH   6  21
BRANCH   3  23
HETATM   23  O5  UNL     1       7.471   8.556 -15.011  1.00  0.00    -0.368 OA
ATOM     24  H5  UNL     1       7.104   9.196 -14.412  1.00  0.00     0.212 HD
ENDBRANCH   3  23
BRANCH   5  25
HETATM   25  O7  UNL     1      10.509  10.844 -17.287  1.00  0.00    -0.361 OA
ATOM     26  H7  UNL     1      11.229  10.636 -17.870  1.00  0.00     0.213 HD
ENDBRANCH   5  25
BRANCH   5  27
HETATM   27  O8  UNL     1       9.249   9.571 -18.713  1.00  0.00    -0.361 OA
ATOM     28  H8  UNL     1       9.823  10.050 -19.299  1.00  0.00     0.213 HD
ENDBRANCH   5  27
BRANCH   4  29
HETATM   29  O6  UNL     1       8.880  10.668 -15.342  1.00  0.00    -0.385 OA
ATOM     30  H6  UNL     1       8.915  11.618 -15.338  1.00  0.00     0.210 HD
ENDBRANCH   4  29
TORSDOF 11
ENDMDL