MODEL 3
REMARK VINA RESULT: -6.458736469      2.023      6.222
REMARK  12 active torsions:
REMARK  status: ('A' for Active; 'I' for Inactive)
REMARK    1  A    between atoms: N1_2  and  N2_4
REMARK    2  A    between atoms: N2_4  and  C3_6
REMARK    3  A    between atoms: C3_6  and  O1_7
REMARK    4  A    between atoms: C3_6  and  C4_9
REMARK    5  A    between atoms: C5_12  and  C6_13
REMARK    6  A    between atoms: C6_13  and  O2_14
REMARK    7  A    between atoms: C6_13  and  O3_16
REMARK    8  A    between atoms: C7_18  and  O4_19
REMARK    9  A    between atoms: O4_19  and  N4_20
REMARK   10  A    between atoms: N4_20  and  O5_24
REMARK   11  A    between atoms: C8_26  and  O6_28
REMARK   12  A    between atoms: C10_30  and  N6_31
ROOT
HETATM    1  C4  UNL     1       8.524   5.427 -14.684  1.00  0.00     0.185 C
HETATM    2  N3  UNL     1       7.433   6.354 -15.042  1.00  0.00    -0.397 N
ATOM      3  H3  UNL     1       6.483   6.212 -14.697  1.00  0.00     0.154 HD
HETATM    4  C5  UNL     1       7.748   7.426 -15.865  1.00  0.00     0.167 C
HETATM    5  C7  UNL     1       9.039   7.381 -16.603  1.00  0.00     0.220 C
HETATM    6  C8  UNL     1       9.466   6.006 -16.982  1.00  0.00     0.114 C
HETATM    7  C9  UNL     1      10.988   6.013 -17.131  1.00  0.00     0.051 C
HETATM    8  C10 UNL     1       9.087   4.936 -16.033  1.00  0.00     0.222 C
ENDROOT
BRANCH   1   9
HETATM    9  C3  UNL     1       7.816   4.253 -14.127  1.00  0.00     0.151 C
BRANCH   9  10
HETATM   10  N2  UNL     1       6.446   4.040 -13.984  1.00  0.00    -0.302 N
ATOM     11  H2  UNL     1       5.895   3.660 -14.752  1.00  0.00     0.182 HD
BRANCH  10  12
HETATM   12  N1  UNL     1       5.842   4.360 -12.758  1.00  0.00    -0.238 NA
HETATM   13  C1  UNL     1       6.703   5.193 -11.946  1.00  0.00     0.135 C
HETATM   14  C2  UNL     1       5.387   3.164 -12.123  1.00  0.00     0.135 C
ENDBRANCH  10  12
ENDBRANCH   9  10
BRANCH   9  15
HETATM   15  O1  UNL     1       8.594   3.239 -13.758  1.00  0.00    -0.347 OA
ATOM     16  H1  UNL     1       8.798   2.611 -14.440  1.00  0.00     0.219 HD
ENDBRANCH   9  15
ENDBRANCH   1   9
BRANCH   8  17
HETATM   17  N6  UNL     1       8.094   4.065 -16.699  1.00  0.00    -0.145 N
HETATM   18  O7  UNL     1       8.427   2.874 -16.875  1.00  0.00    -0.536 OA
HETATM   19  O8  UNL     1       6.883   4.553 -17.150  1.00  0.00    -0.536 OA
ENDBRANCH   8  17
BRANCH   4  20
HETATM   20  C6  UNL     1       7.670   8.766 -15.166  1.00  0.00     0.278 C
BRANCH  20  21
HETATM   21  O2  UNL     1       6.890   9.699 -15.833  1.00  0.00    -0.369 OA
ATOM     22  H2  UNL     1       5.971   9.668 -15.595  1.00  0.00     0.212 HD
ENDBRANCH  20  21
BRANCH  20  23
HETATM   23  O3  UNL     1       7.181   8.620 -13.855  1.00  0.00    -0.369 OA
ATOM     24  H3  UNL     1       7.182   9.453 -13.399  1.00  0.00     0.212 HD
ENDBRANCH  20  23
ENDBRANCH   4  20
BRANCH   6  25
HETATM   25  O6  UNL     1       9.000   5.617 -18.265  1.00  0.00    -0.385 OA
ATOM     26  H6  UNL     1       8.417   4.867 -18.235  1.00  0.00     0.210 HD
ENDBRANCH   6  25
BRANCH   5  27
HETATM   27  O4  UNL     1       8.928   8.309 -17.660  1.00  0.00    -0.228 OA
BRANCH  27  28
HETATM   28  N4  UNL     1       9.670   9.441 -17.830  1.00  0.00    -0.061 N
HETATM   29  N5  UNL     1      10.855   9.331 -18.215  1.00  0.00    -0.298 N
ATOM     30  H52 UNL     1      11.239   8.425 -18.482  1.00  0.00     0.181 HD
ATOM     31  H51 UNL     1      11.410  10.177 -18.342  1.00  0.00     0.181 HD
BRANCH  28  32
HETATM   32  O5  UNL     1       9.152  10.663 -17.469  1.00  0.00    -0.248 OA
ATOM     33  H5  UNL     1       8.602  11.144 -18.077  1.00  0.00     0.249 HD
ENDBRANCH  28  32
ENDBRANCH  27  28
ENDBRANCH   5  27
TORSDOF 12
ENDMDL