MODEL 3
REMARK VINA RESULT: -8.449366074      2.310      3.403
REMARK  12 active torsions:
REMARK  status: ('A' for Active; 'I' for Inactive)
REMARK    1  A    between atoms: C2_2  and  C9_23
REMARK    2  A    between atoms: N1_3  and  O1_5
REMARK    3  A    between atoms: O1_5  and  C3_6
REMARK    4  A    between atoms: C3_6  and  C4_8
REMARK    5  A    between atoms: C4_8  and  O3_9
REMARK    6  A    between atoms: C4_8  and  C5_11
REMARK    7  A    between atoms: C8_17  and  N3_18
REMARK    8  A    between atoms: C9_23  and  O6_25
REMARK    9  A    between atoms: O6_25  and  N5_26
REMARK   10  A    between atoms: C10_28  and  C11_29
REMARK   11  A    between atoms: C10_28  and  N6_31
REMARK   12  A    between atoms: N6_31  and  N7_33
ROOT
HETATM    1  O1  UNL     1       7.782   5.526 -15.693  1.00  0.00    -0.197 OA
ENDROOT
BRANCH   1   2
HETATM    2  N1  UNL     1       9.143   5.590 -15.800  1.00  0.00    -0.256 N
HETATM    3  C2  UNL     1       9.675   6.098 -16.844  1.00  0.00     0.105 C
HETATM    4  C1  UNL     1       8.890   6.640 -17.984  1.00  0.00     0.077 C
ATOM      5  H1  UNL     1       9.733   5.233 -15.048  1.00  0.00     0.195 HD
BRANCH   3   6
HETATM    6  C9  UNL     1      11.151   6.152 -16.929  1.00  0.00     0.329 C
HETATM    7  O5  UNL     1      11.861   5.337 -16.292  1.00  0.00    -0.256 OA
BRANCH   6   8
HETATM    8  O6  UNL     1      11.791   7.100 -17.711  1.00  0.00    -0.192 OA
BRANCH   8   9
HETATM    9  N5  UNL     1      11.645   8.424 -17.390  1.00  0.00    -0.237 N
HETATM   10  C10 UNL     1      12.625   9.048 -16.873  1.00  0.00     0.178 C
ATOM     11  H5  UNL     1      10.762   8.903 -17.564  1.00  0.00     0.197 HD
BRANCH  10  12
HETATM   12  C11 UNL     1      13.877   8.373 -16.627  1.00  0.00     0.310 C
HETATM   13  O7  UNL     1      14.287   8.119 -15.471  1.00  0.00    -0.298 OA
ENDBRANCH  10  12
BRANCH  10  14
HETATM   14  N6  UNL     1      12.491  10.411 -16.536  1.00  0.00    -0.288 N
ATOM     15  H6  UNL     1      13.006  10.764 -15.729  1.00  0.00     0.188 HD
BRANCH  14  16
HETATM   16  N7  UNL     1      11.683  11.307 -17.260  1.00  0.00    -0.343 N
ATOM     17  H72 UNL     1      11.574  11.138 -18.260  1.00  0.00     0.176 HD
ATOM     18  H71 UNL     1      11.209  12.103 -16.831  1.00  0.00     0.176 HD
ENDBRANCH  14  16
ENDBRANCH  10  14
ENDBRANCH   8   9
ENDBRANCH   6   8
ENDBRANCH   3   6
ENDBRANCH   1   2
BRANCH   1  19
HETATM   19  C3  UNL     1       7.182   5.359 -14.461  1.00  0.00     0.315 C
HETATM   20  O2  UNL     1       6.229   6.125 -14.168  1.00  0.00    -0.260 OA
BRANCH  19  21
HETATM   21  C4  UNL     1       7.609   4.324 -13.474  1.00  0.00     0.270 C
BRANCH  21  22
HETATM   22  O3  UNL     1       8.872   4.601 -12.963  1.00  0.00    -0.379 OA
ATOM     23  H3  UNL     1       9.002   4.189 -12.117  1.00  0.00     0.211 HD
ENDBRANCH  21  22
BRANCH  21  24
HETATM   24  C5  UNL     1       6.601   4.304 -12.383  1.00  0.00     0.070 A
HETATM   25  C6  UNL     1       5.624   3.334 -12.335  1.00  0.00     0.103 A
HETATM   26  C7  UNL     1       4.704   3.347 -11.306  1.00  0.00     0.261 A
HETATM   27  O4  UNL     1       3.785   2.476 -11.217  1.00  0.00    -0.268 OA
HETATM   28  N2  UNL     1       4.794   4.319 -10.370  1.00  0.00    -0.156 N
HETATM   29  C8  UNL     1       5.740   5.270 -10.403  1.00  0.00     0.679 A
ATOM     30  H2  UNL     1       4.115   4.331  -9.609  1.00  0.00     0.187 HD
HETATM   31  N4  UNL     1       6.622   5.235 -11.415  1.00  0.00    -0.192 N
ATOM     32  H4  UNL     1       7.346   5.952 -11.452  1.00  0.00     0.184 HD
BRANCH  29  33
HETATM   33  N3  UNL     1       5.832   6.201  -9.515  1.00  0.00    -0.234 N
ATOM     34  H32 UNL     1       6.351   6.023  -8.655  1.00  0.00     0.174 HD
ATOM     35  H31 UNL     1       5.408   7.122  -9.629  1.00  0.00     0.174 HD
ENDBRANCH  29  33
ENDBRANCH  21  24
ENDBRANCH  19  21
ENDBRANCH   1  19
TORSDOF 12
ENDMDL