MODEL 3
REMARK VINA RESULT: -4.434107276      1.244      1.765
REMARK  2 active torsions:
REMARK  status: ('A' for Active; 'I' for Inactive)
REMARK    1  A    between atoms: N1_2  and  N2_4
REMARK       I    between atoms: N2_4  and  C3_6
REMARK       I    between atoms: C3_6  and  N3_7
REMARK       I    between atoms: C3_6  and  N4_10
REMARK    2  A    between atoms: N4_10  and  C4_12
ROOT
HETATM    1  N2  UNL     1      47.337  26.802  43.548  1.00  0.00    -0.153 N
ATOM      2  H2  UNL     1      47.873  27.529  43.073  1.00  0.00     0.199 HD
HETATM    3  C3  UNL     1      46.581  25.899  42.748  1.00  0.00     0.688 C
HETATM    4  N3  UNL     1      47.024  24.703  42.470  1.00  0.00    -0.234 N
ATOM      5  H31 UNL     1      46.483  24.055  41.896  1.00  0.00     0.174 HD
ATOM      6  H32 UNL     1      47.926  24.372  42.813  1.00  0.00     0.174 HD
HETATM    7  N4  UNL     1      45.327  26.360  42.270  1.00  0.00    -0.175 N
ATOM      8  H4  UNL     1      44.560  26.555  42.913  1.00  0.00     0.186 HD
ENDROOT
BRANCH   1   9
HETATM    9  N1  UNL     1      47.390  26.758  44.932  1.00  0.00    -0.225 NA
HETATM   10  C1  UNL     1      46.203  27.367  45.498  1.00  0.00     0.136 C
HETATM   11  C2  UNL     1      47.557  25.392  45.337  1.00  0.00     0.136 C
ENDBRANCH   1   9
BRANCH   7  12
HETATM   12  C4  UNL     1      45.184  26.527  40.991  1.00  0.00     0.137 A
HETATM   13  C5  UNL     1      45.517  25.628  40.005  1.00  0.00     0.069 A
HETATM   14  C6  UNL     1      45.199  26.215  38.801  1.00  0.00     0.113 A
HETATM   15  N5  UNL     1      44.701  27.412  39.098  1.00  0.00    -0.306 N
HETATM   16  C7  UNL     1      44.223  28.396  38.122  1.00  0.00     0.177 C
HETATM   17  N6  UNL     1      44.682  27.620  40.393  1.00  0.00    -0.284 N
ATOM     18  H6  UNL     1      44.345  28.461  40.862  1.00  0.00     0.188 HD
ENDBRANCH   7  12
TORSDOF 2
ENDMDL