MODEL 3
REMARK VINA RESULT: -3.665952006      1.613      2.469
REMARK  2 active torsions:
REMARK  status: ('A' for Active; 'I' for Inactive)
REMARK       I    between atoms: C2_4  and  N3_6
REMARK    1  A    between atoms: C5_9  and  O1_11
REMARK    2  A    between atoms: O1_11  and  N4_12
ROOT
HETATM    1  C1  UNL     1      43.074  25.761  38.499  1.00  0.00     0.148 C
HETATM    2  N1  UNL     1      44.302  25.319  37.862  1.00  0.00    -0.369 N
ATOM      3  H1  UNL     1      44.257  24.987  36.898  1.00  0.00     0.161 HD
HETATM    4  C2  UNL     1      45.426  25.326  38.447  1.00  0.00     0.185 C
HETATM    5  N2  UNL     1      46.562  24.865  37.713  1.00  0.00    -0.064 NA
HETATM    6  N3  UNL     1      45.633  25.763  39.788  1.00  0.00    -0.356 N
HETATM    7  C3  UNL     1      46.286  24.887  40.751  1.00  0.00     0.128 C
HETATM    8  C4  UNL     1      45.718  25.104  42.130  1.00  0.00     0.060 C
HETATM    9  C5  UNL     1      45.801  26.537  42.584  1.00  0.00     0.087 C
HETATM   10  C6  UNL     1      46.870  26.593  43.672  1.00  0.00     0.049 C
HETATM   11  C7  UNL     1      46.159  27.415  41.418  1.00  0.00     0.060 C
HETATM   12  C8  UNL     1      45.220  27.064  40.268  1.00  0.00     0.128 C
ENDROOT
BRANCH   9  13
HETATM   13  O1  UNL     1      44.573  26.869  43.143  1.00  0.00    -0.276 OA
BRANCH  13  14
HETATM   14  N4  UNL     1      44.689  27.066  44.458  1.00  0.00    -0.310 N
ATOM     15  H42 UNL     1      43.914  27.339  45.062  1.00  0.00     0.184 HD
ATOM     16  H41 UNL     1      45.649  26.905  44.765  1.00  0.00     0.184 HD
ENDBRANCH  13  14
ENDBRANCH   9  13
TORSDOF 2
ENDMDL