MODEL 5
REMARK VINA RESULT: -0.819193867      1.782      3.769
REMARK  3 active torsions:
REMARK  status: ('A' for Active; 'I' for Inactive)
REMARK    1  A    between atoms: C3_3  and  N1_4
REMARK    2  A    between atoms: C9_10  and  N2_11
REMARK    3  A    between atoms: C10_15  and  N3_16
ROOT
HETATM    1  C1  UNL     1      43.677  23.842  40.849  1.00  0.00     0.015 C
HETATM    2  C2  UNL     1      44.402  24.806  40.819  1.00  0.00    -0.075 C
HETATM    3  C3  UNL     1      45.272  26.005  40.785  1.00  0.00     0.219 C
HETATM    4  C7  UNL     1      44.588  27.094  41.569  1.00  0.00     0.057 C
HETATM    5  C8  UNL     1      45.370  27.271  42.854  1.00  0.00     0.038 C
HETATM    6  C9  UNL     1      45.982  25.872  43.003  1.00  0.00     0.217 C
HETATM    7  C10 UNL     1      46.505  25.664  41.575  1.00  0.00     0.262 C
ENDROOT
BRANCH   3   8
HETATM    8  N1  UNL     1      45.517  26.330  39.421  1.00  0.00    -0.057 N
HETATM    9  C4  UNL     1      46.186  27.588  39.214  1.00  0.00     0.273 C
HETATM   10  C5  UNL     1      44.222  26.429  38.725  1.00  0.00     0.273 C
HETATM   11  C6  UNL     1      46.268  25.315  38.702  1.00  0.00     0.273 C
ENDBRANCH   3   8
BRANCH   7  12
HETATM   12  N3  UNL     1      46.940  24.314  41.354  1.00  0.00    -0.070 N
ATOM     13  H33 UNL     1      46.330  23.834  40.693  1.00  0.00     0.274 HD
ATOM     14  H32 UNL     1      47.809  24.291  40.821  1.00  0.00     0.274 HD
ATOM     15  H31 UNL     1      47.027  23.787  42.223  1.00  0.00     0.274 HD
ENDBRANCH   7  12
BRANCH   6  16
HETATM   16  N2  UNL     1      47.018  25.855  43.974  1.00  0.00    -0.073 N
ATOM     17  H23 UNL     1      47.939  25.861  43.536  1.00  0.00     0.274 HD
ATOM     18  H22 UNL     1      47.073  26.742  44.475  1.00  0.00     0.274 HD
ATOM     19  H21 UNL     1      46.917  25.069  44.617  1.00  0.00     0.274 HD
ENDBRANCH   6  16
TORSDOF 3
ENDMDL