MODEL 3
REMARK VINA RESULT: -4.442311930      1.633      2.804
REMARK  2 active torsions:
REMARK  status: ('A' for Active; 'I' for Inactive)
REMARK       I    between atoms: N1_2  and  C3_4
REMARK       I    between atoms: C3_4  and  N4_9
REMARK    1  A    between atoms: N4_9  and  N5_11
REMARK    2  A    between atoms: N5_11  and  C5_13
ROOT
HETATM    1  C1  UNL     1      45.918  25.591  38.544  1.00  0.00     0.168 C
HETATM    2  N1  UNL     1      45.315  25.470  39.861  1.00  0.00    -0.225 N
HETATM    3  C2  UNL     1      44.459  24.297  40.057  1.00  0.00     0.168 C
HETATM    4  C3  UNL     1      45.536  26.417  40.891  1.00  0.00     0.703 C
HETATM    5  N2  UNL     1      45.172  27.651  40.724  1.00  0.00    -0.125 N
ATOM      6  H2  UNL     1      45.341  28.316  41.480  1.00  0.00     0.197 HD
HETATM    7  C4  UNL     1      44.565  28.106  39.565  1.00  0.00     0.196 C
HETATM    8  N3  UNL     1      44.050  28.475  38.602  1.00  0.00    -0.171 NA
HETATM    9  N4  UNL     1      46.155  26.024  42.108  1.00  0.00    -0.130 N
ATOM     10  H4  UNL     1      46.217  25.034  42.344  1.00  0.00     0.205 HD
ENDROOT
BRANCH   9  11
HETATM   11  N5  UNL     1      46.674  26.968  42.978  1.00  0.00    -0.264 N
ATOM     12  H5  UNL     1      46.954  27.876  42.607  1.00  0.00     0.189 HD
BRANCH  11  13
HETATM   13  C5  UNL     1      46.833  26.722  44.364  1.00  0.00     0.200 C
HETATM   14  N6  UNL     1      46.347  27.661  45.331  1.00  0.00    -0.068 NA
HETATM   15  S1  UNL     1      47.557  25.389  44.954  1.00  0.00    -0.043 SA
ENDBRANCH  11  13
ENDBRANCH   9  11
TORSDOF 2
ENDMDL