MODEL 1
REMARK VINA RESULT: -5.726731263      0.000      0.000
REMARK  4 active torsions:
REMARK  status: ('A' for Active; 'I' for Inactive)
REMARK    1  A    between atoms: C2_4  and  N2_5
REMARK    2  A    between atoms: C2_4  and  C3_10
REMARK    3  A    between atoms: N2_5  and  N3_7
REMARK    4  A    between atoms: C3_10  and  C5_12
REMARK       I    between atoms: C5_12  and  N4_14
ROOT
HETATM    1  C1  UNL     1      46.277  27.036  44.723  1.00  0.00     0.147 C
HETATM    2  N1  UNL     1      46.321  26.250  43.504  1.00  0.00    -0.382 N
ATOM      3  H1  UNL     1      46.473  25.244  43.581  1.00  0.00     0.160 HD
HETATM    4  C2  UNL     1      46.177  26.756  42.336  1.00  0.00     0.103 C
ENDROOT
BRANCH   4   5
HETATM    5  N2  UNL     1      45.962  28.155  42.188  1.00  0.00    -0.295 N
ATOM      6  H2  UNL     1      46.720  28.819  42.346  1.00  0.00     0.187 HD
BRANCH   5   7
HETATM    7  N3  UNL     1      44.706  28.592  41.825  1.00  0.00    -0.344 N
ATOM      8  H32 UNL     1      44.094  27.982  41.283  1.00  0.00     0.176 HD
ATOM      9  H31 UNL     1      44.416  29.526  42.112  1.00  0.00     0.176 HD
ENDBRANCH   5   7
ENDBRANCH   4   5
BRANCH   4  10
HETATM   10  C3  UNL     1      46.246  25.849  41.177  1.00  0.00     0.143 C
HETATM   11  C4  UNL     1      45.724  24.479  41.581  1.00  0.00     0.028 C
BRANCH  10  12
HETATM   12  C5  UNL     1      45.658  26.336  39.941  1.00  0.00     0.234 C
HETATM   13  O1  UNL     1      45.959  27.457  39.468  1.00  0.00    -0.272 OA
HETATM   14  N4  UNL     1      44.712  25.538  39.227  1.00  0.00    -0.303 N
HETATM   15  C6  UNL     1      43.849  26.087  38.448  1.00  0.00     0.203 C
ATOM     16  H4  UNL     1      44.722  24.524  39.337  1.00  0.00     0.171 HD
HETATM   17  N5  UNL     1      42.926  25.235  37.760  1.00  0.00    -0.066 NA
HETATM   18  N6  UNL     1      43.789  27.496  38.257  1.00  0.00    -0.066 NA
ENDBRANCH  10  12
ENDBRANCH   4  10
TORSDOF 4
ENDMDL