MODEL 1
REMARK VINA RESULT: -5.271247373      0.000      0.000
REMARK  4 active torsions:
REMARK  status: ('A' for Active; 'I' for Inactive)
REMARK    1  A    between atoms: N1_2  and  C2_4
REMARK    2  A    between atoms: C3_5  and  N2_6
REMARK    3  A    between atoms: N3_12  and  O1_13
REMARK    4  A    between atoms: C6_15  and  O2_16
ROOT
HETATM    1  C2  UNL     1      45.669  27.308  42.091  1.00  0.00     0.120 C
HETATM    2  C3  UNL     1      46.225  26.584  43.264  1.00  0.00     0.211 C
HETATM    3  C4  UNL     1      46.398  25.152  42.838  1.00  0.00     0.090 C
HETATM    4  C5  UNL     1      45.532  25.049  41.621  1.00  0.00     0.028 C
HETATM    5  N3  UNL     1      44.786  24.656  40.716  1.00  0.00    -0.238 N
HETATM    6  C6  UNL     1      44.675  25.943  40.122  1.00  0.00     0.260 C
HETATM    7  C8  UNL     1      45.758  26.349  40.960  1.00  0.00     0.109 C
ENDROOT
BRANCH   2   8
HETATM    8  N2  UNL     1      47.520  27.108  43.680  1.00  0.00    -0.073 N
ATOM      9  H23 UNL     1      47.516  27.351  44.671  1.00  0.00     0.274 HD
ATOM     10  H22 UNL     1      48.227  26.373  43.694  1.00  0.00     0.274 HD
ATOM     11  H21 UNL     1      47.822  27.898  43.110  1.00  0.00     0.274 HD
ENDBRANCH   2   8
BRANCH   1  12
HETATM   12  N1  UNL     1      44.466  28.005  42.306  1.00  0.00    -0.418 N
HETATM   13  C1  UNL     1      44.075  29.019  41.400  1.00  0.00     0.140 C
ATOM     14  H1  UNL     1      43.880  27.780  43.109  1.00  0.00     0.153 HD
ENDBRANCH   1  12
BRANCH   6  15
HETATM   15  O2  UNL     1      45.031  25.979  38.753  1.00  0.00    -0.368 OA
HETATM   16  C7  UNL     1      43.918  25.838  37.939  1.00  0.00     0.204 C
ENDBRANCH   6  15
BRANCH   5  17
HETATM   17  O1  UNL     1      44.238  23.381  40.497  1.00  0.00    -0.285 OA
ATOM     18  H1  UNL     1      44.264  22.608  41.050  1.00  0.00     0.245 HD
ENDBRANCH   5  17
TORSDOF 4
ENDMDL