MODEL 1
REMARK VINA RESULT: -5.674782695      0.000      0.000
REMARK  4 active torsions:
REMARK  status: ('A' for Active; 'I' for Inactive)
REMARK    1  A    between atoms: N1_1  and  C1_4
REMARK    2  A    between atoms: C2_5  and  O1_6
REMARK    3  A    between atoms: O1_6  and  N2_7
REMARK       I    between atoms: C3_9  and  N4_11
REMARK    4  A    between atoms: N4_11  and  C4_13
ROOT
HETATM    1  N2  UNL     1      46.314  25.628  39.876  1.00  0.00    -0.223 N
ATOM      2  H2  UNL     1      47.213  26.035  40.135  1.00  0.00     0.198 HD
HETATM    3  C3  UNL     1      45.734  24.800  40.670  1.00  0.00     0.215 C
HETATM    4  N3  UNL     1      44.482  24.254  40.272  1.00  0.00    -0.061 NA
HETATM    5  N4  UNL     1      46.294  24.411  41.922  1.00  0.00    -0.314 N
ATOM      6  H4  UNL     1      46.621  23.451  42.033  1.00  0.00     0.170 HD
ENDROOT
BRANCH   1   7
HETATM    7  O1  UNL     1      45.740  25.961  38.703  1.00  0.00    -0.181 OA
BRANCH   7   8
HETATM    8  C2  UNL     1      45.003  27.113  38.577  1.00  0.00     0.107 C
HETATM    9  C1  UNL     1      44.362  28.142  38.480  1.00  0.00     0.036 C
BRANCH   9  10
HETATM   10  N1  UNL     1      43.646  29.338  38.359  1.00  0.00    -0.357 N
ATOM     11  H12 UNL     1      44.039  28.630  37.738  1.00  0.00     0.166 HD
ATOM     12  H11 UNL     1      43.123  30.211  38.289  1.00  0.00     0.166 HD
ENDBRANCH   9  10
ENDBRANCH   7   8
ENDBRANCH   1   7
BRANCH   5  13
HETATM   13  C4  UNL     1      46.403  25.216  42.918  1.00  0.00     0.123 A
HETATM   14  C5  UNL     1      45.430  26.174  43.097  1.00  0.00     0.136 A
HETATM   15  N5  UNL     1      45.469  27.067  44.126  1.00  0.00    -0.371 N
HETATM   16  C6  UNL     1      46.491  27.014  44.996  1.00  0.00     0.104 A
ATOM     17  H5  UNL     1      44.733  27.766  44.232  1.00  0.00     0.164 HD
HETATM   18  C7  UNL     1      47.468  26.080  44.844  1.00  0.00     0.106 A
HETATM   19  N6  UNL     1      47.412  25.193  43.808  1.00  0.00    -0.350 N
ATOM     20  H6  UNL     1      48.150  24.497  43.707  1.00  0.00     0.166 HD
ENDBRANCH   5  13
TORSDOF 4
ENDMDL