MODEL 2
REMARK VINA RESULT: -3.308350113      1.771      4.848
REMARK  1 active torsions:
REMARK  status: ('A' for Active; 'I' for Inactive)
REMARK    1  A    between atoms: C2_2  and  N1_3
REMARK       I    between atoms: N2_6  and  C5_7
REMARK       I    between atoms: N4_9  and  C6_11
ROOT
HETATM    1  N1  UNL     1      45.844  26.429  42.777  1.00  0.00     0.107 N
HETATM    2  C3  UNL     1      46.818  27.408  42.356  1.00  0.00     0.294 C
HETATM    3  C4  UNL     1      45.944  28.458  41.711  1.00  0.00     0.157 C
HETATM    4  N2  UNL     1      44.973  27.607  41.001  1.00  0.00    -0.328 N
HETATM    5  C5  UNL     1      44.485  27.775  39.698  1.00  0.00     0.194 C
HETATM    6  N3  UNL     1      43.851  28.988  39.347  1.00  0.00    -0.063 NA
HETATM    7  N4  UNL     1      44.595  26.866  38.819  1.00  0.00    -0.305 N
ATOM      8  H4  UNL     1      44.204  27.096  37.905  1.00  0.00     0.171 HD
HETATM    9  C6  UNL     1      45.170  25.601  38.916  1.00  0.00     0.188 C
HETATM   10  N5  UNL     1      46.401  25.368  39.186  1.00  0.00    -0.373 N
ATOM     11  H51 UNL     1      46.822  24.442  39.258  1.00  0.00     0.158 HD
ATOM     12  H52 UNL     1      47.014  26.168  39.344  1.00  0.00     0.158 HD
HETATM   13  N6  UNL     1      44.302  24.471  38.693  1.00  0.00    -0.064 NA
HETATM   14  C7  UNL     1      44.662  26.575  41.996  1.00  0.00     0.400 C
ENDROOT
BRANCH   1  15
HETATM   15  C2  UNL     1      45.562  26.511  44.178  1.00  0.00     0.270 C
HETATM   16  C1  UNL     1      46.793  26.622  45.016  1.00  0.00     0.037 C
ENDBRANCH   1  15
TORSDOF 1
ENDMDL