MODEL 4
REMARK VINA RESULT: -5.230364689      1.851      2.788
REMARK  5 active torsions:
REMARK  status: ('A' for Active; 'I' for Inactive)
REMARK    1  A    between atoms: C4_5  and  C5_6
REMARK    2  A    between atoms: N2_7  and  O1_9
REMARK    3  A    between atoms: C6_11  and  N3_12
REMARK    4  A    between atoms: N3_12  and  N4_13
REMARK    5  A    between atoms: N3_12  and  O2_16
ROOT
HETATM    1  C1  UNL     1      44.521  25.324  38.341  1.00  0.00     0.154 C
HETATM    2  N1  UNL     1      44.969  25.886  39.609  1.00  0.00    -0.369 N
HETATM    3  C2  UNL     1      44.791  27.185  39.843  1.00  0.00     0.091 A
HETATM    4  C3  UNL     1      45.216  27.728  41.051  1.00  0.00     0.032 A
HETATM    5  C4  UNL     1      45.813  26.900  41.977  1.00  0.00     0.009 A
HETATM    6  C6  UNL     1      45.993  25.554  41.727  1.00  0.00     0.086 A
HETATM    7  C7  UNL     1      45.548  25.081  40.508  1.00  0.00     0.118 A
ENDROOT
BRANCH   6   8
HETATM    8  N3  UNL     1      46.608  24.770  42.715  1.00  0.00    -0.075 NA
BRANCH   8   9
HETATM    9  N4  UNL     1      47.821  25.296  43.166  1.00  0.00    -0.336 NA
ATOM     10  H42 UNL     1      48.023  26.086  42.554  1.00  0.00     0.173 HD
ATOM     11  H41 UNL     1      47.775  25.664  44.116  1.00  0.00     0.173 HD
ENDBRANCH   8   9
BRANCH   8  12
HETATM   12  O2  UNL     1      46.921  23.567  42.128  1.00  0.00    -0.289 OA
ATOM     13  H2  UNL     1      47.868  23.540  42.049  1.00  0.00     0.239 HD
ENDBRANCH   8  12
ENDBRANCH   6   8
BRANCH   5  14
HETATM   14  C5  UNL     1      46.261  27.457  43.243  1.00  0.00     0.127 C
HETATM   15  N2  UNL     1      45.791  27.016  44.361  1.00  0.00    -0.280 N
ATOM     16  H2  UNL     1      45.098  26.268  44.329  1.00  0.00     0.193 HD
BRANCH  15  17
HETATM   17  O1  UNL     1      46.165  27.491  45.581  1.00  0.00    -0.290 OA
ATOM     18  H1  UNL     1      46.946  27.209  46.042  1.00  0.00     0.244 HD
ENDBRANCH  15  17
ENDBRANCH   5  14
TORSDOF 5
ENDMDL