MODEL 5
REMARK VINA RESULT: -5.840621638      2.112      3.320
REMARK  4 active torsions:
REMARK  status: ('A' for Active; 'I' for Inactive)
REMARK    1  A    between atoms: C4_4  and  N1_5
REMARK    2  A    between atoms: N1_5  and  C5_7
REMARK    3  A    between atoms: C7_11  and  N3_12
REMARK    4  A    between atoms: N5_17  and  O1_18
ROOT
HETATM    1  C1  UNL     1      55.834  28.195  47.432  1.00  0.00     0.019 C
HETATM    2  C2  UNL     1      56.467  27.841  46.466  1.00  0.00    -0.052 C
HETATM    3  C3  UNL     1      57.207  27.405  45.297  1.00  0.00     0.178 A
HETATM    4  C4  UNL     1      56.757  26.327  44.560  1.00  0.00     0.157 A
HETATM    5  N2  UNL     1      57.449  25.929  43.476  1.00  0.00    -0.173 N
ATOM      6  H2  UNL     1      57.130  25.135  42.921  1.00  0.00     0.186 HD
HETATM    7  C7  UNL     1      58.563  26.592  43.137  1.00  0.00     0.694 A
HETATM    8  N4  UNL     1      59.022  27.658  43.852  1.00  0.00    -0.105 N
ATOM      9  H4  UNL     1      59.872  28.149  43.578  1.00  0.00     0.208 HD
HETATM   10  N5  UNL     1      58.333  28.031  44.906  1.00  0.00    -0.137 N
ENDROOT
BRANCH   4  11
HETATM   11  N1  UNL     1      55.671  25.700  44.911  1.00  0.00    -0.374 N
ATOM     12  H1  UNL     1      55.720  24.902  45.543  1.00  0.00     0.161 HD
BRANCH  11  13
HETATM   13  C5  UNL     1      54.398  26.146  44.395  1.00  0.00     0.116 C
HETATM   14  C6  UNL     1      53.340  26.055  45.468  1.00  0.00     0.026 C
ENDBRANCH  11  13
ENDBRANCH   4  11
BRANCH  10  15
HETATM   15  O1  UNL     1      58.815  29.114  45.619  1.00  0.00    -0.267 OA
ATOM     16  H1  UNL     1      58.340  29.936  45.623  1.00  0.00     0.247 HD
ENDBRANCH  10  15
BRANCH   7  17
HETATM   17  N3  UNL     1      59.192  26.165  42.082  1.00  0.00    -0.233 N
ATOM     18  H32 UNL     1      59.583  26.815  41.400  1.00  0.00     0.174 HD
ATOM     19  H31 UNL     1      59.269  25.153  41.978  1.00  0.00     0.174 HD
ENDBRANCH   7  17
TORSDOF 4
ENDMDL