MODEL 3
REMARK VINA RESULT: -5.582847873      1.452      1.452
REMARK  3 active torsions:
REMARK  status: ('A' for Active; 'I' for Inactive)
REMARK    1  A    between atoms: O1_2  and  N1_3
REMARK    2  A    between atoms: C2_5  and  C3_7
REMARK       I    between atoms: C3_7  and  N3_9
REMARK    3  A    between atoms: N3_9  and  C4_11
ROOT
HETATM    1  C3  UNL     1      56.619  27.026  45.293  1.00  0.00     0.290 C
HETATM    2  O2  UNL     1      57.022  28.216  45.324  1.00  0.00    -0.264 OA
HETATM    3  N3  UNL     1      55.810  26.594  46.378  1.00  0.00    -0.300 N
ATOM      4  H3  UNL     1      55.465  25.634  46.381  1.00  0.00     0.171 HD
ENDROOT
BRANCH   1   5
HETATM    5  C2  UNL     1      56.980  26.179  44.196  1.00  0.00     0.204 C
HETATM    6  N1  UNL     1      57.922  26.412  43.356  1.00  0.00    -0.249 N
ATOM      7  H1  UNL     1      58.467  27.267  43.468  1.00  0.00     0.196 HD
HETATM    8  N2  UNL     1      56.247  24.959  43.987  1.00  0.00    -0.075 NA
BRANCH   6   9
HETATM    9  O1  UNL     1      58.236  25.582  42.324  1.00  0.00    -0.284 OA
HETATM   10  C1  UNL     1      58.289  25.982  40.972  1.00  0.00     0.237 C
ENDBRANCH   6   9
ENDBRANCH   1   5
BRANCH   3  11
HETATM   11  C4  UNL     1      55.465  27.445  47.452  1.00  0.00     0.188 C
HETATM   12  N4  UNL     1      54.192  27.439  48.078  1.00  0.00    -0.070 NA
HETATM   13  S1  UNL     1      56.567  28.499  48.024  1.00  0.00    -0.044 SA
ENDBRANCH   3  11
TORSDOF 3
ENDMDL