MODEL 4
REMARK VINA RESULT: -4.542977547      1.204      1.308
REMARK  1 active torsions:
REMARK  status: ('A' for Active; 'I' for Inactive)
REMARK    1  A    between atoms: N3_4  and  N4_6
REMARK       I    between atoms: C2_8  and  N6_10
ROOT
HETATM    1  N4  UNL     1      58.108  27.054  43.801  1.00  0.00    -0.272 N
ATOM      2  H4  UNL     1      58.841  27.107  44.508  1.00  0.00     0.189 HD
HETATM    3  C2  UNL     1      56.973  27.335  44.248  1.00  0.00     0.205 C
HETATM    4  N5  UNL     1      55.794  27.337  43.477  1.00  0.00    -0.062 NA
HETATM    5  N6  UNL     1      56.815  27.700  45.639  1.00  0.00    -0.350 N
HETATM    6  C3  UNL     1      57.191  26.722  46.638  1.00  0.00     0.151 C
HETATM    7  C4  UNL     1      58.250  27.426  47.499  1.00  0.00     0.187 C
HETATM    8  O1  UNL     1      57.819  28.644  47.958  1.00  0.00    -0.388 OA
HETATM    9  C5  UNL     1      57.417  29.528  46.993  1.00  0.00     0.187 C
HETATM   10  C6  UNL     1      56.323  28.960  46.102  1.00  0.00     0.151 C
ENDROOT
BRANCH   1  11
HETATM   11  N3  UNL     1      58.558  26.707  42.624  1.00  0.00    -0.274 N
HETATM   12  C1  UNL     1      58.123  26.178  41.585  1.00  0.00     0.215 C
HETATM   13  N1  UNL     1      59.055  25.992  40.498  1.00  0.00    -0.065 NA
HETATM   14  N2  UNL     1      56.797  25.761  41.428  1.00  0.00    -0.065 NA
ATOM     15  H3  UNL     1      59.548  26.935  42.530  1.00  0.00     0.189 HD
ENDBRANCH   1  11
TORSDOF 1
ENDMDL