MODEL 3
REMARK VINA RESULT: -4.395574980      1.037      2.638
REMARK  2 active torsions:
REMARK  status: ('A' for Active; 'I' for Inactive)
REMARK    1  A    between atoms: C3_3  and  C4_4
REMARK    2  A    between atoms: C4_4  and  N1_5
REMARK       I    between atoms: N1_5  and  C5_7
REMARK       I    between atoms: C5_7  and  N2_8
ROOT
HETATM    1  C1  UNL     1      58.943  26.331  40.576  1.00  0.00     0.112 C
HETATM    2  C2  UNL     1      58.165  26.133  41.806  1.00  0.00    -0.109 C
HETATM    3  C3  UNL     1      57.521  25.953  42.812  1.00  0.00    -0.087 C
ENDROOT
BRANCH   3   4
HETATM    4  C4  UNL     1      56.752  25.710  44.023  1.00  0.00     0.232 C
BRANCH   4   5
HETATM    5  N1  UNL     1      56.132  26.929  44.535  1.00  0.00    -0.215 N
HETATM    6  C5  UNL     1      55.735  26.937  45.882  1.00  0.00     0.690 C
HETATM    7  N2  UNL     1      56.686  27.165  46.888  1.00  0.00    -0.165 N
HETATM    8  N5  UNL     1      54.521  26.737  46.200  1.00  0.00    -0.126 N
HETATM    9  C6  UNL     1      56.829  28.279  47.507  1.00  0.00     0.215 C
ATOM     10  H2  UNL     1      57.304  26.396  47.144  1.00  0.00     0.186 HD
HETATM   11  N3  UNL     1      57.823  28.381  48.501  1.00  0.00    -0.066 NA
HETATM   12  N4  UNL     1      55.974  29.348  47.154  1.00  0.00    -0.066 NA
HETATM   13  C7  UNL     1      54.091  26.739  47.544  1.00  0.00     0.196 C
ATOM     14  H5  UNL     1      53.837  26.570  45.461  1.00  0.00     0.197 HD
HETATM   15  N6  UNL     1      53.749  26.724  48.650  1.00  0.00    -0.171 NA
ATOM     16  H1  UNL     1      55.994  27.743  43.937  1.00  0.00     0.178 HD
ENDBRANCH   4   5
ENDBRANCH   3   4
TORSDOF 2
ENDMDL