MODEL 2
REMARK VINA RESULT: -7.728193851      0.070      1.307
REMARK  1 active torsions:
REMARK  status: ('A' for Active; 'I' for Inactive)
REMARK       I    between atoms: C1_4  and  N2_5
REMARK       I    between atoms: C1_4  and  N3_10
REMARK       I    between atoms: N2_5  and  C2_7
REMARK    1  A    between atoms: N3_10  and  N4_12
ROOT
HETATM    1  N1  UNL     1      57.774  30.011  46.035  1.00  0.00    -0.233 N
ATOM      2  H11 UNL     1      58.619  30.080  45.467  1.00  0.00     0.174 HD
ATOM      3  H12 UNL     1      57.295  30.823  46.424  1.00  0.00     0.174 HD
HETATM    4  C1  UNL     1      57.269  28.857  46.285  1.00  0.00     0.695 C
HETATM    5  N2  UNL     1      56.099  28.762  47.072  1.00  0.00    -0.132 N
ATOM      6  H2  UNL     1      55.687  29.627  47.421  1.00  0.00     0.190 HD
HETATM    7  C2  UNL     1      55.467  27.554  47.404  1.00  0.00     0.302 C
HETATM    8  O1  UNL     1      55.953  26.483  46.989  1.00  0.00    -0.629 OA
HETATM    9  O2  UNL     1      54.329  27.531  48.173  1.00  0.00    -0.629 OA
HETATM   10  N3  UNL     1      57.936  27.725  45.744  1.00  0.00    -0.126 N
ATOM     11  H3  UNL     1      58.606  27.230  46.333  1.00  0.00     0.206 HD
ENDROOT
BRANCH  10  12
HETATM   12  N4  UNL     1      57.721  27.257  44.455  1.00  0.00    -0.265 N
HETATM   13  C3  UNL     1      56.470  26.999  44.050  1.00  0.00     0.116 A
HETATM   14  C4  UNL     1      56.206  26.531  42.770  1.00  0.00     0.019 A
HETATM   15  C5  UNL     1      57.265  26.330  41.899  1.00  0.00     0.003 A
HETATM   16  C6  UNL     1      58.551  26.594  42.312  1.00  0.00     0.019 A
HETATM   17  C7  UNL     1      58.741  27.059  43.603  1.00  0.00     0.116 A
ENDBRANCH  10  12
TORSDOF 1
ENDMDL