MODEL 4
REMARK VINA RESULT: -5.541617651      1.173      2.565
REMARK  1 active torsions:
REMARK  status: ('A' for Active; 'I' for Inactive)
REMARK       I    between atoms: C2_4  and  N2_5
REMARK       I    between atoms: C2_4  and  N5_15
REMARK    1  A    between atoms: N2_5  and  C3_7
ROOT
HETATM    1  C1  UNL     1      54.097  26.946  47.894  1.00  0.00     0.165 C
HETATM    2  N1  UNL     1      55.248  26.428  47.200  1.00  0.00    -0.230 N
ATOM      3  H1  UNL     1      55.230  25.450  46.910  1.00  0.00     0.177 HD
HETATM    4  C2  UNL     1      56.292  27.113  46.925  1.00  0.00     0.688 C
HETATM    5  N2  UNL     1      57.371  26.516  46.240  1.00  0.00    -0.175 N
ATOM      6  H2  UNL     1      58.115  26.046  46.757  1.00  0.00     0.186 HD
HETATM    7  N5  UNL     1      56.397  28.473  47.293  1.00  0.00    -0.126 N
ATOM      8  H5  UNL     1      55.713  29.131  46.918  1.00  0.00     0.197 HD
HETATM    9  C7  UNL     1      57.399  28.963  48.153  1.00  0.00     0.196 C
HETATM   10  N6  UNL     1      58.222  29.358  48.871  1.00  0.00    -0.171 NA
ENDROOT
BRANCH   5  11
HETATM   11  C3  UNL     1      57.405  26.571  44.953  1.00  0.00     0.135 A
HETATM   12  C4  UNL     1      56.333  26.170  44.179  1.00  0.00     0.052 A
HETATM   13  C5  UNL     1      56.410  26.244  42.821  1.00  0.00     0.022 A
HETATM   14  C6  UNL     1      57.545  26.715  42.206  1.00  0.00     0.107 A
HETATM   15  N3  UNL     1      58.556  27.090  43.017  1.00  0.00    -0.310 N
HETATM   16  N4  UNL     1      58.501  27.027  44.323  1.00  0.00    -0.285 N
ATOM     17  H3  UNL     1      59.411  27.444  42.588  1.00  0.00     0.186 HD
ATOM     18  H4  UNL     1      59.305  27.328  44.873  1.00  0.00     0.188 HD
ENDBRANCH   5  11
TORSDOF 1
ENDMDL