MODEL 3
REMARK VINA RESULT: -6.051085281      2.682      3.252
REMARK  4 active torsions:
REMARK  status: ('A' for Active; 'I' for Inactive)
REMARK    1  A    between atoms: C2_2  and  O1_3
REMARK    2  A    between atoms: C2_2  and  C5_11
REMARK    3  A    between atoms: O1_3  and  C3_4
REMARK    4  A    between atoms: C3_4  and  N1_6
ROOT
HETATM    1  C3  UNL     1      57.064  28.218  45.961  1.00  0.00     0.217 C
HETATM    2  S1  UNL     1      58.069  29.448  46.307  1.00  0.00    -0.033 SA
ENDROOT
BRANCH   1   3
HETATM    3  O1  UNL     1      57.451  27.287  45.017  1.00  0.00    -0.313 OA
BRANCH   3   4
HETATM    4  C2  UNL     1      56.738  27.016  43.837  1.00  0.00     0.216 C
HETATM    5  C1  UNL     1      57.758  26.607  42.780  1.00  0.00     0.050 C
BRANCH   4   6
HETATM    6  C5  UNL     1      55.849  25.863  44.066  1.00  0.00     0.260 C
HETATM    7  N4  UNL     1      54.436  26.072  44.255  1.00  0.00    -0.060 NA
HETATM    8  O2  UNL     1      56.317  24.718  44.096  1.00  0.00    -0.274 OA
ENDBRANCH   4   6
ENDBRANCH   3   4
ENDBRANCH   1   3
BRANCH   1   9
HETATM    9  N1  UNL     1      55.839  28.116  46.614  1.00  0.00    -0.304 N
HETATM   10  C4  UNL     1      55.461  27.121  47.339  1.00  0.00     0.203 C
HETATM   11  N2  UNL     1      56.292  25.986  47.550  1.00  0.00    -0.066 NA
HETATM   12  N3  UNL     1      54.169  27.194  47.929  1.00  0.00    -0.066 NA
ATOM     13  H1  UNL     1      55.187  28.895  46.510  1.00  0.00     0.171 HD
ENDBRANCH   1   9
TORSDOF 4
ENDMDL