MODEL 2
REMARK VINA RESULT: -6.309608774      1.238      1.953
REMARK  3 active torsions:
REMARK  status: ('A' for Active; 'I' for Inactive)
REMARK    1  A    between atoms: S1_3  and  C4_6
REMARK    2  A    between atoms: C4_6  and  N1_8
REMARK    3  A    between atoms: N1_8  and  N2_10
ROOT
HETATM    1  C1  UNL     1      56.080  29.182  47.772  1.00  0.00     0.027 C
HETATM    2  C2  UNL     1      56.128  28.215  47.075  1.00  0.00    -0.020 C
HETATM    3  S1  UNL     1      56.182  26.803  46.084  1.00  0.00     0.052 S
HETATM    4  C3  UNL     1      54.576  26.377  45.521  1.00  0.00     0.134 C
HETATM    5  O1  UNL     1      56.748  25.641  46.878  1.00  0.00    -0.252 OA
ENDROOT
BRANCH   3   6
HETATM    6  C4  UNL     1      57.277  26.908  44.962  1.00  0.00     0.088 C
HETATM    7  C5  UNL     1      58.229  28.000  45.037  1.00  0.00     0.080 C
BRANCH   6   8
HETATM    8  N1  UNL     1      57.314  25.937  43.992  1.00  0.00    -0.294 N
ATOM      9  H1  UNL     1      56.645  25.167  44.023  1.00  0.00     0.187 HD
BRANCH   8  10
HETATM   10  N2  UNL     1      58.266  25.993  42.955  1.00  0.00    -0.275 N
HETATM   11  C6  UNL     1      57.920  26.019  41.715  1.00  0.00     0.215 C
HETATM   12  N3  UNL     1      58.957  26.075  40.745  1.00  0.00    -0.065 NA
HETATM   13  N4  UNL     1      56.560  25.995  41.288  1.00  0.00    -0.065 NA
ATOM     14  H2  UNL     1      59.258  26.012  43.194  1.00  0.00     0.189 HD
ENDBRANCH   8  10
ENDBRANCH   6   8
ENDBRANCH   3   6
TORSDOF 3
ENDMDL