MODEL 2
REMARK VINA RESULT: -8.262933379      9.417     12.784
REMARK  5 active torsions:
REMARK  status: ('A' for Active; 'I' for Inactive)
REMARK    1  A    between atoms: N1_5  and  O1_7
REMARK    2  A    between atoms: C7_12  and  N2_13
REMARK    3  A    between atoms: C10_16  and  O2_17
REMARK    4  A    between atoms: O2_17  and  C11_18
REMARK    5  A    between atoms: C11_18  and  C12_19
ROOT
HETATM    1  N2  UNL     1      22.957 -24.488  13.302  1.00  0.00    -0.406 N
HETATM    2  C8  UNL     1      22.645 -25.665  14.007  1.00  0.00     0.119 C
HETATM    3  C9  UNL     1      22.202 -26.692  12.959  1.00  0.00     0.051 C
HETATM    4  C10 UNL     1      23.477 -27.195  12.336  1.00  0.00     0.124 C
HETATM    5  C18 UNL     1      24.358 -26.039  12.020  1.00  0.00     0.051 C
HETATM    6  C19 UNL     1      23.603 -24.703  12.028  1.00  0.00     0.119 C
ENDROOT
BRANCH   1   7
HETATM    7  C7  UNL     1      23.342 -23.316  13.973  1.00  0.00     0.108 C
HETATM    8  C2  UNL     1      22.798 -22.026  13.420  1.00  0.00     0.093 C
HETATM    9  C1  UNL     1      23.683 -20.909  13.987  1.00  0.00     0.041 C
HETATM   10 CL1  UNL     1      22.902 -21.974  11.655  1.00  0.00    -0.111 Cl
HETATM   11  C3  UNL     1      21.443 -21.797  13.915  1.00  0.00     0.035 C
HETATM   12  N1  UNL     1      20.627 -21.165  13.138  1.00  0.00    -0.275 N
HETATM   13  C4  UNL     1      20.972 -22.240  15.225  1.00  0.00     0.057 C
ATOM     14  H1  UNL     1      20.943 -20.849  12.221  1.00  0.00     0.193 HD
HETATM   15  C5  UNL     1      21.891 -23.060  16.028  1.00  0.00     0.008 C
HETATM   16  C6  UNL     1      23.235 -23.341  15.468  1.00  0.00     0.028 C
BRANCH  12  17
HETATM   17  O1  UNL     1      19.355 -20.918  13.532  1.00  0.00    -0.290 OA
ATOM     18  H1  UNL     1      18.994 -20.040  13.476  1.00  0.00     0.244 HD
ENDBRANCH  12  17
ENDBRANCH   1   7
BRANCH   4  19
HETATM   19  O2  UNL     1      23.257 -28.047  11.268  1.00  0.00    -0.381 OA
BRANCH  19  20
HETATM   20  C11 UNL     1      22.111 -28.796  11.371  1.00  0.00     0.206 C
BRANCH  20  21
HETATM   21  C12 UNL     1      22.500 -30.159  11.831  1.00  0.00    -0.035 A
HETATM   22  C13 UNL     1      22.868 -31.081  10.870  1.00  0.00     0.009 A
HETATM   23  C14 UNL     1      23.235 -32.356  11.264  1.00  0.00     0.001 A
HETATM   24  C15 UNL     1      23.227 -32.687  12.588  1.00  0.00     0.000 A
HETATM   25  C16 UNL     1      22.860 -31.771  13.543  1.00  0.00     0.001 A
HETATM   26  C17 UNL     1      22.492 -30.493  13.178  1.00  0.00     0.009 A
ENDBRANCH  20  21
ENDBRANCH  19  20
ENDBRANCH   4  19
TORSDOF 5
ENDMDL