MODEL 2
REMARK VINA RESULT: -7.398708870      3.619      7.025
REMARK  4 active torsions:
REMARK  status: ('A' for Active; 'I' for Inactive)
REMARK    1  A    between atoms: C2_2  and  C3_3
REMARK    2  A    between atoms: C3_3  and  S1_4
REMARK    3  A    between atoms: S1_4  and  C4_5
REMARK    4  A    between atoms: C12_19  and  O1_20
ROOT
HETATM    1  C4  UNL     1      22.861 -28.612  12.226  1.00  0.00     0.106 A
HETATM    2  N1  UNL     1      22.657 -28.474  13.552  1.00  0.00    -0.339 N
ATOM      3  H1  UNL     1      22.445 -29.316  14.088  1.00  0.00     0.167 HD
HETATM    4  C5  UNL     1      22.713 -27.310  14.223  1.00  0.00     0.114 A
HETATM    5  S2  UNL     1      22.452 -27.247  15.824  1.00  0.00    -0.059 SA
HETATM    6  C6  UNL     1      22.994 -26.143  13.563  1.00  0.00     0.039 A
HETATM    7  C7  UNL     1      23.051 -24.936  14.267  1.00  0.00    -0.028 A
HETATM    8  C8  UNL     1      22.835 -24.774  15.695  1.00  0.00     0.050 C
HETATM    9  C9  UNL     1      23.350 -23.844  13.430  1.00  0.00     0.033 A
HETATM   10 BR1  UNL     1      23.470 -22.100  14.220  1.00  0.00    -0.049 Br
HETATM   11  C10 UNL     1      23.561 -23.928  12.099  1.00  0.00     0.108 A
HETATM   12  N2  UNL     1      23.494 -25.095  11.489  1.00  0.00    -0.361 N
ATOM     13  H2  UNL     1      23.654 -25.159  10.483  1.00  0.00     0.165 HD
HETATM   14  C11 UNL     1      23.216 -26.192  12.194  1.00  0.00     0.082 A
HETATM   15  C12 UNL     1      23.140 -27.434  11.575  1.00  0.00     0.127 A
ENDROOT
BRANCH   1  16
HETATM   16  S1  UNL     1      22.718 -30.193  11.457  1.00  0.00    -0.109 SA
BRANCH  16  17
HETATM   17  C3  UNL     1      22.904 -31.617  12.466  1.00  0.00     0.080 C
BRANCH  17  18
HETATM   18  C2  UNL     1      22.938 -32.945  11.774  1.00  0.00     0.006 C
HETATM   19  C1  UNL     1      22.613 -34.049  12.783  1.00  0.00     0.006 C
ENDBRANCH  17  18
ENDBRANCH  16  17
ENDBRANCH   1  16
BRANCH  15  20
HETATM   20  O1  UNL     1      23.359 -27.456  10.218  1.00  0.00    -0.356 OA
ATOM     21  H1  UNL     1      23.731 -26.690   9.798  1.00  0.00     0.218 HD
ENDBRANCH  15  20
TORSDOF 4
ENDMDL