MODEL 5
REMARK VINA RESULT: -6.098734728      2.851      4.699
REMARK  3 active torsions:
REMARK  status: ('A' for Active; 'I' for Inactive)
REMARK    1  A    between atoms: C2_2  and  C3_3
REMARK    2  A    between atoms: C5_8  and  S1_9
REMARK    3  A    between atoms: C9_13  and  C10_14
ROOT
HETATM    1  C3  UNL     1      22.622 -26.926  12.868  1.00  0.00     0.193 C
HETATM    2  C4  UNL     1      23.826 -26.267  12.358  1.00  0.00     0.113 C
HETATM    3  N1  UNL     1      24.760 -25.756  11.943  1.00  0.00    -0.193 NA
HETATM    4  N2  UNL     1      21.753 -25.902  13.399  1.00  0.00    -0.346 N
ATOM      5  H2  UNL     1      21.181 -25.340  12.768  1.00  0.00     0.163 HD
HETATM    6  C5  UNL     1      21.697 -25.681  14.789  1.00  0.00     0.072 C
HETATM    7  C7  UNL     1      22.377 -26.454  15.607  1.00  0.00    -0.024 C
HETATM    8  C8  UNL     1      22.343 -26.251  17.096  1.00  0.00     0.049 C
HETATM    9  C9  UNL     1      23.216 -27.571  15.105  1.00  0.00     0.145 C
HETATM   10  N3  UNL     1      22.897 -27.977  13.784  1.00  0.00    -0.373 N
ATOM     11  H3  UNL     1      22.866 -28.960  13.509  1.00  0.00     0.157 HD
ENDROOT
BRANCH   1  12
HETATM   12  C2  UNL     1      21.877 -27.535  11.671  1.00  0.00     0.065 C
HETATM   13  C1  UNL     1      22.097 -29.031  11.608  1.00  0.00     0.010 C
ENDBRANCH   1  12
BRANCH   6  14
HETATM   14  S1  UNL     1      20.720 -24.368  15.512  1.00  0.00    -0.117 SA
HETATM   15  C6  UNL     1      19.109 -24.972  16.071  1.00  0.00     0.097 C
ENDBRANCH   6  14
BRANCH   9  16
HETATM   16  C10 UNL     1      22.914 -28.724  16.025  1.00  0.00    -0.032 A
HETATM   17  C11 UNL     1      23.195 -28.692  17.368  1.00  0.00     0.011 A
HETATM   18  C12 UNL     1      22.914 -29.748  18.208  1.00  0.00     0.019 A
HETATM   19  C13 UNL     1      22.328 -30.893  17.696  1.00  0.00     0.011 A
HETATM   20 BR1  UNL     1      21.919 -32.383  18.819  1.00  0.00    -0.051 Br
HETATM   21  C14 UNL     1      22.045 -30.927  16.349  1.00  0.00     0.019 A
HETATM   22  C15 UNL     1      22.336 -29.851  15.517  1.00  0.00     0.011 A
ENDBRANCH   9  16
TORSDOF 3
ENDMDL