MODEL 2
REMARK VINA RESULT: -7.901608863      7.458      9.732
REMARK  6 active torsions:
REMARK  status: ('A' for Active; 'I' for Inactive)
REMARK    1  A    between atoms: C3_3  and  N1_4
REMARK    2  A    between atoms: C4_5  and  O1_6
REMARK    3  A    between atoms: C7_10  and  O2_11
REMARK    4  A    between atoms: N2_19  and  C14_20
REMARK    5  A    between atoms: C14_20  and  C15_21
REMARK    6  A    between atoms: C15_21  and  C18_24
ROOT
HETATM    1  C1  UNL     1      19.489 -31.597  21.182  1.00  0.00     0.070 C
HETATM    2  C2  UNL     1      20.485 -32.715  21.279  1.00  0.00     0.035 A
HETATM    3  C3  UNL     1      21.624 -32.745  20.489  1.00  0.00     0.067 A
HETATM    4  C12 UNL     1      22.280 -33.909  20.807  1.00  0.00     0.049 A
HETATM    5  C13 UNL     1      21.520 -34.526  21.765  1.00  0.00     0.093 A
HETATM    6  N2  UNL     1      20.418 -33.793  22.056  1.00  0.00    -0.358 N
ENDROOT
BRANCH   3   7
HETATM    7  N1  UNL     1      22.019 -31.758  19.541  1.00  0.00    -0.270 N
HETATM    8  C4  UNL     1      22.607 -30.578  19.768  1.00  0.00     0.156 A
HETATM    9  C5  UNL     1      22.827 -29.914  18.592  1.00  0.00     0.004 A
HETATM   10  C6  UNL     1      22.342 -30.740  17.588  1.00  0.00     0.004 A
HETATM   11  C11 UNL     1      23.416 -28.620  18.178  1.00  0.00     0.044 C
HETATM   12  C7  UNL     1      21.855 -31.862  18.212  1.00  0.00     0.156 A
HETATM   13  C8  UNL     1      22.394 -30.381  16.168  1.00  0.00     0.044 C
HETATM   14  C9  UNL     1      22.428 -28.909  15.896  1.00  0.00     0.005 C
HETATM   15  C10 UNL     1      22.488 -28.047  17.111  1.00  0.00     0.005 C
BRANCH   8  16
HETATM   16  O1  UNL     1      22.954 -30.081  21.008  1.00  0.00    -0.345 OA
ATOM     17  H1  UNL     1      22.357 -29.674  21.625  1.00  0.00     0.219 HD
ENDBRANCH   8  16
BRANCH  12  18
HETATM   18  O2  UNL     1      21.270 -32.957  17.553  1.00  0.00    -0.345 OA
ATOM     19  H2  UNL     1      21.255 -33.084  16.612  1.00  0.00     0.219 HD
ENDBRANCH  12  18
ENDBRANCH   3   7
BRANCH   6  20
HETATM   20  C14 UNL     1      19.450 -34.145  23.025  1.00  0.00     0.140 C
BRANCH  20  21
HETATM   21  C15 UNL     1      18.665 -35.367  22.868  1.00  0.00     0.004 C
HETATM   22  C16 UNL     1      18.185 -35.427  21.404  1.00  0.00     0.020 C
HETATM   23  C17 UNL     1      17.328 -35.098  23.618  1.00  0.00     0.020 C
BRANCH  21  24
HETATM   24  C18 UNL     1      19.131 -36.665  23.360  1.00  0.00     0.104 C
HETATM   25  C19 UNL     1      18.104 -37.470  24.116  1.00  0.00     0.052 C
HETATM   26  C20 UNL     1      19.436 -37.529  22.109  1.00  0.00     0.052 C
HETATM   27  F1  UNL     1      20.309 -36.684  24.069  1.00  0.00    -0.243 F
ENDBRANCH  21  24
ENDBRANCH  20  21
ENDBRANCH   6  20
TORSDOF 6
ENDMDL