MODEL 5
REMARK VINA RESULT: -6.480913269      7.034      9.981
REMARK  4 active torsions:
REMARK  status: ('A' for Active; 'I' for Inactive)
REMARK    1  A    between atoms: O1_2  and  C2_3
REMARK    2  A    between atoms: C3_4  and  O2_5
REMARK    3  A    between atoms: C4_7  and  C5_8
REMARK    4  A    between atoms: C5_8  and  C6_9
ROOT
HETATM    1  C2  UNL     1      19.357 -32.629  23.414  1.00  0.00     0.112 A
HETATM    2  C3  UNL     1      19.361 -33.865  24.066  1.00  0.00     0.106 A
HETATM    3  C4  UNL     1      19.817 -35.021  23.484  1.00  0.00    -0.018 A
HETATM    4  C7  UNL     1      20.279 -34.886  22.193  1.00  0.00     0.047 A
HETATM    5  C8  UNL     1      20.288 -33.684  21.523  1.00  0.00     0.081 A
HETATM    6  C9  UNL     1      19.804 -32.502  22.158  1.00  0.00     0.025 A
HETATM    7  C10 UNL     1      19.829 -31.357  21.279  1.00  0.00     0.101 C
HETATM    8  C11 UNL     1      19.304 -30.072  21.598  1.00  0.00    -0.007 C
HETATM    9  N1  UNL     1      18.059 -29.872  21.786  1.00  0.00    -0.405 N
ATOM     10  H11 UNL     1      17.682 -28.951  22.015  1.00  0.00     0.155 HD
ATOM     11  H12 UNL     1      17.494 -30.718  21.719  1.00  0.00     0.155 HD
HETATM   12  C12 UNL     1      20.144 -28.814  21.698  1.00  0.00     0.057 C
HETATM   13  C13 UNL     1      21.590 -29.111  21.750  1.00  0.00     0.040 C
HETATM   14  C14 UNL     1      22.051 -30.269  20.922  1.00  0.00    -0.077 C
HETATM   15  C15 UNL     1      23.410 -30.250  20.315  1.00  0.00     0.044 C
HETATM   16  C16 UNL     1      21.246 -31.292  20.713  1.00  0.00    -0.030 C
HETATM   17  C17 UNL     1      21.702 -32.457  19.913  1.00  0.00     0.085 C
HETATM   18  C18 UNL     1      21.537 -32.236  18.432  1.00  0.00     0.051 C
HETATM   19  C19 UNL     1      23.016 -33.030  20.291  1.00  0.00     0.051 C
HETATM   20  O3  UNL     1      20.758 -33.525  20.211  1.00  0.00    -0.336 OA
ENDROOT
BRANCH   3  21
HETATM   21  C5  UNL     1      19.831 -36.330  24.140  1.00  0.00     0.056 C
BRANCH  21  22
HETATM   22  C6  UNL     1      18.607 -37.164  23.877  1.00  0.00     0.119 C
HETATM   23 CL1  UNL     1      18.825 -38.335  22.582  1.00  0.00    -0.130 Cl
ENDBRANCH  21  22
ENDBRANCH   3  21
BRANCH   2  24
HETATM   24  O2  UNL     1      18.889 -33.945  25.355  1.00  0.00    -0.357 OA
ATOM     25  H2  UNL     1      17.951 -33.945  25.508  1.00  0.00     0.217 HD
ENDBRANCH   2  24
BRANCH   1  26
HETATM   26  O1  UNL     1      18.877 -31.512  24.100  1.00  0.00    -0.352 OA
HETATM   27  C1  UNL     1      19.781 -30.841  24.979  1.00  0.00     0.210 C
ENDBRANCH   1  26
TORSDOF 4
ENDMDL