MODEL 1
REMARK VINA RESULT: -8.064830585      0.000      0.000
REMARK  5 active torsions:
REMARK  status: ('A' for Active; 'I' for Inactive)
REMARK    1  A    between atoms: C2_2  and  O1_3
REMARK    2  A    between atoms: O1_3  and  C3_4
REMARK       I    between atoms: C3_4  and  N1_6
REMARK    3  A    between atoms: N1_6  and  C4_8
REMARK    4  A    between atoms: C9_14  and  O4_15
REMARK    5  A    between atoms: C10_17  and  C11_18
ROOT
HETATM    1  C4  UNL     1      22.539 -30.035  20.090  1.00  0.00     0.260 C
HETATM    2  O3  UNL     1      22.614 -31.141  20.945  1.00  0.00    -0.362 OA
HETATM    3  C5  UNL     1      21.568 -32.047  20.736  1.00  0.00     0.179 C
HETATM    4  C6  UNL     1      21.749 -32.746  19.401  1.00  0.00     0.042 C
HETATM    5  C7  UNL     1      22.843 -33.796  19.581  1.00  0.00     0.017 C
HETATM    6  C8  UNL     1      22.124 -31.762  18.355  1.00  0.00    -0.007 A
HETATM    7  C9  UNL     1      22.078 -32.199  17.049  1.00  0.00     0.085 A
HETATM    8  C10 UNL     1      22.425 -31.372  16.012  1.00  0.00     0.020 A
HETATM    9  C15 UNL     1      22.816 -30.085  16.363  1.00  0.00     0.053 A
HETATM   10 CL1  UNL     1      23.273 -28.964  15.094  1.00  0.00    -0.083 Cl
HETATM   11  C16 UNL     1      22.870 -29.621  17.654  1.00  0.00    -0.028 A
HETATM   12  C17 UNL     1      23.292 -28.239  17.985  1.00  0.00     0.050 C
HETATM   13  C18 UNL     1      22.513 -30.484  18.695  1.00  0.00     0.007 A
ENDROOT
BRANCH   1  14
HETATM   14  N1  UNL     1      21.406 -29.196  20.453  1.00  0.00    -0.306 N
HETATM   15  C3  UNL     1      21.343 -28.394  21.609  1.00  0.00     0.362 C
HETATM   16  O2  UNL     1      22.281 -28.327  22.461  1.00  0.00    -0.238 OA
ATOM     17  H1  UNL     1      20.602 -29.187  19.826  1.00  0.00     0.167 HD
BRANCH  15  18
HETATM   18  O1  UNL     1      20.204 -27.624  21.858  1.00  0.00    -0.304 OA
BRANCH  18  19
HETATM   19  C2  UNL     1      19.187 -28.109  22.707  1.00  0.00     0.176 C
HETATM   20  C1  UNL     1      18.158 -28.903  21.956  1.00  0.00     0.034 C
ENDBRANCH  18  19
ENDBRANCH  15  18
ENDBRANCH   1  14
BRANCH   7  21
HETATM   21  O4  UNL     1      21.666 -33.509  16.735  1.00  0.00    -0.359 OA
ATOM     22  H4  UNL     1      22.198 -34.071  16.184  1.00  0.00     0.217 HD
ENDBRANCH   7  21
BRANCH   8  23
HETATM   23  C11 UNL     1      22.458 -31.744  14.610  1.00  0.00     0.018 C
HETATM   24  C12 UNL     1      23.320 -32.487  13.988  1.00  0.00    -0.087 C
HETATM   25  C13 UNL     1      23.174 -32.757  12.533  1.00  0.00     0.043 C
HETATM   26  C14 UNL     1      24.499 -33.053  14.665  1.00  0.00     0.043 C
ENDBRANCH   8  23
TORSDOF 5
ENDMDL