MODEL 1
REMARK VINA RESULT: -8.903839101      0.000      0.000
REMARK  4 active torsions:
REMARK  status: ('A' for Active; 'I' for Inactive)
REMARK    1  A    between atoms: C3_3  and  O1_4
REMARK    2  A    between atoms: O1_4  and  C4_5
REMARK    3  A    between atoms: C12_14  and  O2_15
REMARK    4  A    between atoms: N1_21  and  C17_22
ROOT
HETATM    1  C1  UNL     1      22.541 -27.843  16.120  1.00  0.00     0.052 C
HETATM    2  C2  UNL     1      22.835 -27.184  14.823  1.00  0.00    -0.016 A
HETATM    3  C3  UNL     1      23.061 -27.934  13.692  1.00  0.00     0.078 A
HETATM    4  C11 UNL     1      23.326 -27.184  12.532  1.00  0.00     0.076 A
HETATM    5  C12 UNL     1      23.363 -25.826  12.497  1.00  0.00     0.096 A
HETATM    6  C13 UNL     1      23.134 -25.111  13.635  1.00  0.00     0.080 A
HETATM    7  C14 UNL     1      22.870 -25.803  14.798  1.00  0.00     0.004 A
HETATM    8  C15 UNL     1      22.676 -24.862  15.798  1.00  0.00     0.031 A
HETATM    9  C16 UNL     1      22.830 -23.638  15.200  1.00  0.00     0.094 A
HETATM   10  N1  UNL     1      23.107 -23.785  13.893  1.00  0.00    -0.325 N
ENDROOT
BRANCH   3  11
HETATM   11  O1  UNL     1      23.058 -29.256  13.573  1.00  0.00    -0.345 OA
BRANCH  11  12
HETATM   12  C4  UNL     1      22.262 -30.335  13.674  1.00  0.00     0.129 C
HETATM   13  C5  UNL     1      22.316 -31.265  12.445  1.00  0.00     0.035 C
HETATM   14  C6  UNL     1      23.589 -32.085  12.526  1.00  0.00     0.045 C
HETATM   15  C7  UNL     1      23.369 -33.173  13.584  1.00  0.00     0.100 C
HETATM   16  C8  UNL     1      22.655 -34.358  12.996  1.00  0.00     0.051 C
HETATM   17  F1  UNL     1      24.593 -33.567  14.090  1.00  0.00    -0.243 F
HETATM   18  C9  UNL     1      22.463 -32.624  14.693  1.00  0.00     0.045 C
HETATM   19  C10 UNL     1      22.814 -31.165  14.858  1.00  0.00     0.035 C
ENDBRANCH  11  12
ENDBRANCH   3  11
BRANCH   5  20
HETATM   20  O2  UNL     1      23.629 -25.095  11.330  1.00  0.00    -0.358 OA
ATOM     21  H2  UNL     1      24.246 -24.375  11.297  1.00  0.00     0.217 HD
ENDBRANCH   5  20
BRANCH  10  22
HETATM   22  C17 UNL     1      23.330 -22.692  12.967  1.00  0.00     0.290 C
HETATM   23  C18 UNL     1      22.817 -21.381  13.453  1.00  0.00     0.057 C
HETATM   24  C19 UNL     1      24.044 -20.572  13.798  1.00  0.00     0.031 C
HETATM   25  C20 UNL     1      25.187 -21.308  13.195  1.00  0.00     0.235 C
HETATM   26  N2  UNL     1      24.733 -22.550  12.675  1.00  0.00    -0.054 N
ATOM     27  H22 UNL     1      25.283 -23.339  13.015  1.00  0.00     0.279 HD
ATOM     28  H21 UNL     1      24.936 -22.653  11.680  1.00  0.00     0.279 HD
ENDBRANCH  10  22
TORSDOF 4
ENDMDL