MODEL 3
REMARK VINA RESULT: -8.329481436      5.303      6.532
REMARK  2 active torsions:
REMARK  status: ('A' for Active; 'I' for Inactive)
REMARK    1  A    between atoms: C2_2  and  C4_4
REMARK    2  A    between atoms: N2_11  and  C9_12
ROOT
HETATM    1  C4  UNL     1      20.495 -24.964  18.037  1.00  0.00     0.028 C
HETATM    2  C5  UNL     1      21.987 -24.933  18.280  1.00  0.00     0.012 C
HETATM    3  C6  UNL     1      22.464 -26.132  17.387  1.00  0.00     0.040 C
HETATM    4  C7  UNL     1      21.609 -25.853  16.149  1.00  0.00    -0.017 C
HETATM    5  C8  UNL     1      22.263 -26.055  14.881  1.00  0.00     0.071 A
HETATM    6  N1  UNL     1      22.427 -27.269  14.237  1.00  0.00    -0.295 N
ATOM      7  H1  UNL     1      22.209 -28.167  14.668  1.00  0.00     0.187 HD
HETATM    8  N2  UNL     1      22.886 -27.148  13.033  1.00  0.00    -0.270 N
HETATM    9  C15 UNL     1      23.071 -25.846  12.776  1.00  0.00     0.140 A
HETATM   10  N3  UNL     1      23.577 -25.203  11.729  1.00  0.00    -0.337 N
ATOM     11  H3  UNL     1      23.851 -25.728  10.899  1.00  0.00     0.168 HD
HETATM   12  C16 UNL     1      23.730 -23.876  11.755  1.00  0.00     0.183 A
HETATM   13  N4  UNL     1      23.360 -23.169  12.866  1.00  0.00    -0.338 N
ATOM     14  H4  UNL     1      23.473 -22.156  12.892  1.00  0.00     0.168 HD
HETATM   15  C17 UNL     1      22.850 -23.819  13.918  1.00  0.00     0.116 A
HETATM   16  N5  UNL     1      22.539 -23.172  14.934  1.00  0.00    -0.385 N
ATOM     17  H51 UNL     1      22.149 -23.667  15.737  1.00  0.00     0.157 HD
ATOM     18  H52 UNL     1      22.660 -22.160  14.938  1.00  0.00     0.157 HD
HETATM   19  C18 UNL     1      22.688 -25.174  13.913  1.00  0.00     0.081 A
HETATM   20  C19 UNL     1      20.422 -25.110  16.457  1.00  0.00     0.206 C
HETATM   21  F1  UNL     1      19.190 -25.821  16.360  1.00  0.00    -0.244 F
ENDROOT
BRANCH   8  22
HETATM   22  C9  UNL     1      23.135 -28.268  12.132  1.00  0.00     0.110 C
HETATM   23  C10 UNL     1      22.016 -28.479  11.127  1.00  0.00     0.027 C
HETATM   24  C11 UNL     1      22.453 -29.628  10.216  1.00  0.00     0.002 C
HETATM   25  C12 UNL     1      22.715 -30.895  10.985  1.00  0.00     0.000 C
HETATM   26  C13 UNL     1      22.373 -30.626  12.442  1.00  0.00     0.002 C
HETATM   27  C14 UNL     1      23.294 -29.550  12.917  1.00  0.00     0.027 C
ENDBRANCH   8  22
BRANCH   1  28
HETATM   28  C2  UNL     1      19.783 -23.702  18.363  1.00  0.00    -0.016 C
HETATM   29  C1  UNL     1      19.725 -22.750  17.214  1.00  0.00     0.010 C
HETATM   30  C3  UNL     1      18.443 -23.901  18.962  1.00  0.00     0.010 C
ENDBRANCH   1  28
TORSDOF 2
ENDMDL