MODEL 4
REMARK VINA RESULT: -5.742334375      7.363      8.928
REMARK  4 active torsions:
REMARK  status: ('A' for Active; 'I' for Inactive)
REMARK    1  A    between atoms: C7_7  and  C8_8
REMARK    2  A    between atoms: N2_13  and  C10_14
REMARK    3  A    between atoms: C10_14  and  C11_15
REMARK    4  A    between atoms: C15_20  and  O1_21
ROOT
HETATM    1  C8  UNL     1      22.919 -30.864  15.498  1.00  0.00     0.075 A
HETATM    2  N1  UNL     1      22.566 -30.969  16.817  1.00  0.00    -0.332 N
ATOM      3  H1  UNL     1      22.228 -31.825  17.257  1.00  0.00     0.168 HD
HETATM    4  C9  UNL     1      22.721 -29.805  17.453  1.00  0.00     0.180 A
HETATM    5  S1  UNL     1      22.379 -29.566  19.058  1.00  0.00    -0.040 SA
HETATM    6  N2  UNL     1      23.177 -28.929  16.558  1.00  0.00    -0.298 N
HETATM    7  C15 UNL     1      23.299 -29.559  15.368  1.00  0.00     0.169 A
ENDROOT
BRANCH   1   8
HETATM    8  C7  UNL     1      22.854 -31.986  14.606  1.00  0.00     0.044 C
HETATM    9  C2  UNL     1      23.857 -33.084  14.715  1.00  0.00    -0.028 C
HETATM   10  C1  UNL     1      23.776 -33.817  16.040  1.00  0.00     0.016 C
HETATM   11  C3  UNL     1      25.274 -32.763  14.395  1.00  0.00     0.016 C
HETATM   12  C4  UNL     1      23.260 -33.980  13.595  1.00  0.00    -0.003 C
HETATM   13  C5  UNL     1      21.852 -34.099  14.046  1.00  0.00     0.007 C
HETATM   14  C17 UNL     1      23.293 -32.968  12.468  1.00  0.00     0.044 C
HETATM   15  C6  UNL     1      21.562 -32.786  14.745  1.00  0.00     0.020 C
HETATM   16  C16 UNL     1      22.960 -31.642  13.134  1.00  0.00     0.185 C
HETATM   17  F1  UNL     1      21.720 -31.220  12.705  1.00  0.00    -0.248 F
ENDBRANCH   1   8
BRANCH   7  18
HETATM   18  O1  UNL     1      23.751 -28.938  14.187  1.00  0.00    -0.344 OA
ATOM     19  H1  UNL     1      23.548 -28.054  13.905  1.00  0.00     0.219 HD
ENDBRANCH   7  18
BRANCH   6  20
HETATM   20  C10 UNL     1      23.485 -27.551  16.803  1.00  0.00     0.172 C
BRANCH  20  21
HETATM   21  C11 UNL     1      22.344 -26.630  16.422  1.00  0.00    -0.033 A
HETATM   22  C12 UNL     1      22.223 -26.073  15.211  1.00  0.00     0.016 A
HETATM   23  C13 UNL     1      21.140 -25.265  14.990  1.00  0.00     0.050 A
HETATM   24  S2  UNL     1      20.323 -25.307  16.484  1.00  0.00    -0.113 SA
HETATM   25  C14 UNL     1      21.371 -26.344  17.342  1.00  0.00     0.058 A
ENDBRANCH  20  21
ENDBRANCH   6  20
TORSDOF 4
ENDMDL