MODEL 3
REMARK VINA RESULT: -8.457602398      2.724      6.224
REMARK  5 active torsions:
REMARK  status: ('A' for Active; 'I' for Inactive)
REMARK    1  A    between atoms: C2_2  and  C4_4
REMARK    2  A    between atoms: C5_5  and  O1_6
REMARK    3  A    between atoms: C6_8  and  O2_9
REMARK    4  A    between atoms: O2_9  and  C7_10
REMARK    5  A    between atoms: C16_20  and  O4_21
ROOT
HETATM    1  C4  UNL     1      21.966 -32.072  18.828  1.00  0.00    -0.008 A
HETATM    2  C5  UNL     1      22.421 -32.492  17.646  1.00  0.00     0.106 A
HETATM    3  C6  UNL     1      23.000 -31.674  16.580  1.00  0.00     0.325 A
HETATM    4  O3  UNL     1      23.071 -30.334  16.986  1.00  0.00    -0.313 OA
HETATM    5  C14 UNL     1      22.636 -29.822  18.158  1.00  0.00     0.086 A
HETATM    6  C15 UNL     1      22.749 -28.448  18.421  1.00  0.00     0.076 A
HETATM    7  C16 UNL     1      22.318 -27.907  19.600  1.00  0.00     0.090 A
HETATM    8  C17 UNL     1      21.765 -28.727  20.543  1.00  0.00     0.068 A
HETATM    9 CL1  UNL     1      21.201 -28.071  22.068  1.00  0.00    -0.081 Cl
HETATM   10  C18 UNL     1      21.657 -30.089  20.272  1.00  0.00     0.041 A
HETATM   11  C19 UNL     1      22.078 -30.648  19.108  1.00  0.00     0.008 A
ENDROOT
BRANCH   3  12
HETATM   12  O2  UNL     1      22.224 -31.813  15.433  1.00  0.00    -0.344 OA
BRANCH  12  13
HETATM   13  C7  UNL     1      22.758 -32.472  14.387  1.00  0.00     0.061 C
HETATM   14  C8  UNL     1      24.217 -32.837  14.552  1.00  0.00     0.046 C
HETATM   15  C9  UNL     1      21.996 -33.704  14.032  1.00  0.00     0.038 C
HETATM   16  C10 UNL     1      22.601 -34.395  12.806  1.00  0.00     0.003 C
HETATM   17  C11 UNL     1      22.718 -33.453  11.652  1.00  0.00     0.000 C
HETATM   18  C12 UNL     1      23.293 -32.115  11.968  1.00  0.00     0.003 C
HETATM   19  C13 UNL     1      22.743 -31.482  13.202  1.00  0.00     0.038 C
ENDBRANCH  12  13
ENDBRANCH   3  12
BRANCH   2  20
HETATM   20  O1  UNL     1      22.293 -33.901  17.478  1.00  0.00    -0.359 OA
ATOM     21  H1  UNL     1      21.984 -34.140  16.611  1.00  0.00     0.217 HD
ENDBRANCH   2  20
BRANCH   1  22
HETATM   22  C2  UNL     1      21.388 -33.013  19.840  1.00  0.00     0.014 C
HETATM   23  C1  UNL     1      22.382 -33.333  20.934  1.00  0.00     0.015 C
HETATM   24  C3  UNL     1      20.049 -32.601  20.362  1.00  0.00     0.015 C
ENDBRANCH   1  22
BRANCH   7  25
HETATM   25  O4  UNL     1      22.452 -26.532  19.816  1.00  0.00    -0.359 OA
ATOM     26  H4  UNL     1      23.255 -26.193  20.193  1.00  0.00     0.217 HD
ENDBRANCH   7  25
TORSDOF 5
ENDMDL