MODEL 5
REMARK VINA RESULT: -7.581405333      2.600      7.705
REMARK  5 active torsions:
REMARK  status: ('A' for Active; 'I' for Inactive)
REMARK    1  A    between atoms: C2_2  and  O1_3
REMARK    2  A    between atoms: O1_3  and  C3_4
REMARK    3  A    between atoms: C3_4  and  C4_6
REMARK    4  A    between atoms: C5_7  and  N1_8
REMARK       I    between atoms: N1_8  and  C6_10
REMARK       I    between atoms: C6_10  and  N2_12
REMARK       I    between atoms: N2_12  and  C7_14
REMARK    5  A    between atoms: C7_14  and  C8_16
ROOT
HETATM    1  N1  UNL     1      22.887 -29.954  16.378  1.00  0.00    -0.302 N
ATOM      2  H1  UNL     1      23.644 -29.363  16.720  1.00  0.00     0.171 HD
HETATM    3  C6  UNL     1      21.970 -30.518  17.272  1.00  0.00     0.327 C
HETATM    4  O3  UNL     1      21.040 -31.252  16.774  1.00  0.00    -0.247 OA
HETATM    5  N2  UNL     1      21.977 -30.356  18.643  1.00  0.00    -0.279 N
ATOM      6  H2  UNL     1      21.247 -30.827  19.176  1.00  0.00     0.173 HD
HETATM    7  C7  UNL     1      22.907 -29.598  19.354  1.00  0.00     0.229 C
HETATM    8  O4  UNL     1      23.839 -28.978  18.844  1.00  0.00    -0.273 OA
ENDROOT
BRANCH   1   9
HETATM    9  C5  UNL     1      22.746 -30.218  14.960  1.00  0.00     0.095 A
HETATM   10  C4  UNL     1      23.128 -31.270  14.190  1.00  0.00     0.080 A
HETATM   11  C15 UNL     1      22.833 -31.189  12.870  1.00  0.00    -0.030 A
HETATM   12  C13 UNL     1      22.184 -30.069  12.435  1.00  0.00    -0.012 A
HETATM   13  C16 UNL     1      23.187 -32.270  11.862  1.00  0.00     0.050 C
HETATM   14  S1  UNL     1      21.994 -29.151  13.853  1.00  0.00    -0.076 SA
HETATM   15  C14 UNL     1      21.746 -29.740  11.022  1.00  0.00     0.057 C
BRANCH  10  16
HETATM   16  C3  UNL     1      23.832 -32.447  14.769  1.00  0.00     0.296 C
HETATM   17  O2  UNL     1      25.004 -32.738  14.487  1.00  0.00    -0.259 OA
BRANCH  16  18
HETATM   18  O1  UNL     1      23.213 -33.300  15.670  1.00  0.00    -0.318 OA
BRANCH  18  19
HETATM   19  C2  UNL     1      22.174 -34.183  15.287  1.00  0.00     0.174 C
HETATM   20  C1  UNL     1      22.501 -34.958  14.053  1.00  0.00     0.034 C
ENDBRANCH  18  19
ENDBRANCH  16  18
ENDBRANCH  10  16
ENDBRANCH   1   9
BRANCH   7  21
HETATM   21  C8  UNL     1      22.715 -29.564  20.874  1.00  0.00     0.078 A
HETATM   22  C9  UNL     1      22.079 -28.260  21.166  1.00  0.00     0.014 A
HETATM   23  C10 UNL     1      20.710 -28.554  21.686  1.00  0.00     0.001 A
HETATM   24  C11 UNL     1      20.550 -30.036  21.754  1.00  0.00     0.001 A
HETATM   25  C12 UNL     1      21.821 -30.650  21.265  1.00  0.00     0.014 A
ENDBRANCH   7  21
TORSDOF 5
ENDMDL