MODEL 3
REMARK VINA RESULT: -7.669866179      2.936      5.420
REMARK  5 active torsions:
REMARK  status: ('A' for Active; 'I' for Inactive)
REMARK    1  A    between atoms: O1_2  and  C2_3
REMARK    2  A    between atoms: C7_8  and  O2_9
REMARK    3  A    between atoms: O2_9  and  C8_10
REMARK    4  A    between atoms: C11_13  and  O3_14
REMARK    5  A    between atoms: N1_22  and  O4_23
ROOT
HETATM    1  C2  UNL     1      22.607 -29.924  16.700  1.00  0.00     0.102 A
HETATM    2  C3  UNL     1      22.560 -29.749  18.078  1.00  0.00     0.049 A
HETATM    3  C4  UNL     1      22.033 -30.678  18.937  1.00  0.00    -0.025 A
HETATM    4  C5  UNL     1      21.532 -31.835  18.381  1.00  0.00    -0.045 A
HETATM    5  C6  UNL     1      21.574 -32.014  17.028  1.00  0.00     0.047 A
HETATM    6  C7  UNL     1      22.115 -31.066  16.126  1.00  0.00     0.103 A
HETATM    7  C14 UNL     1      20.937 -32.897  19.281  1.00  0.00     0.066 C
HETATM    8  C15 UNL     1      21.549 -32.914  20.639  1.00  0.00     0.036 C
HETATM    9  C16 UNL     1      20.485 -33.228  21.700  1.00  0.00     0.034 C
HETATM   10  C17 UNL     1      22.477 -34.142  20.686  1.00  0.00     0.034 C
HETATM   11  N1  UNL     1      22.341 -31.790  20.986  1.00  0.00    -0.177 NA
HETATM   12  C18 UNL     1      21.960 -30.544  20.402  1.00  0.00     0.059 C
HETATM   13  C19 UNL     1      20.614 -30.049  20.792  1.00  0.00     0.040 C
HETATM   14  C20 UNL     1      22.984 -29.500  20.863  1.00  0.00     0.040 C
ENDROOT
BRANCH   6  15
HETATM   15  O2  UNL     1      22.115 -31.328  14.806  1.00  0.00    -0.343 OA
BRANCH  15  16
HETATM   16  C8  UNL     1      22.718 -30.762  13.728  1.00  0.00     0.129 C
HETATM   17  C9  UNL     1      23.109 -31.807  12.688  1.00  0.00     0.035 C
HETATM   18  C10 UNL     1      23.423 -31.277  11.359  1.00  0.00     0.034 C
HETATM   19  C11 UNL     1      22.792 -29.993  10.952  1.00  0.00     0.118 C
HETATM   20  C12 UNL     1      22.518 -29.039  12.065  1.00  0.00     0.034 C
HETATM   21  C13 UNL     1      21.706 -29.782  13.104  1.00  0.00     0.035 C
BRANCH  19  22
HETATM   22  O3  UNL     1      23.629 -29.322  10.030  1.00  0.00    -0.396 OA
ATOM     23  H3  UNL     1      23.490 -29.672   9.158  1.00  0.00     0.210 HD
ENDBRANCH  19  22
ENDBRANCH  15  16
ENDBRANCH   6  15
BRANCH   1  24
HETATM   24  O1  UNL     1      23.172 -28.888  15.984  1.00  0.00    -0.353 OA
HETATM   25  C1  UNL     1      22.691 -27.580  15.972  1.00  0.00     0.210 C
ENDBRANCH   1  24
BRANCH  11  26
HETATM   26  O4  UNL     1      23.637 -32.028  20.603  1.00  0.00    -0.311 OA
ATOM     27  H4  UNL     1      23.789 -32.966  20.608  1.00  0.00     0.237 HD
ENDBRANCH  11  26
TORSDOF 5
ENDMDL