MODEL 1
REMARK VINA RESULT: -9.158520840      0.000      0.000
REMARK  4 active torsions:
REMARK  status: ('A' for Active; 'I' for Inactive)
REMARK    1  A    between atoms: C2_3  and  O1_4
REMARK    2  A    between atoms: O1_4  and  C3_5
REMARK    3  A    between atoms: C3_5  and  N2_6
REMARK       I    between atoms: N2_6  and  C4_8
REMARK       I    between atoms: C4_8  and  N3_10
REMARK    4  A    between atoms: N3_10  and  C5_12
ROOT
HETATM    1  N1  UNL     1      26.730 -20.048  10.251  1.00  0.00    -0.195 NA
HETATM    2  C1  UNL     1      25.690 -20.594  10.351  1.00  0.00     0.085 C
HETATM    3  C2  UNL     1      24.391 -21.230  10.456  1.00  0.00     0.294 C
ENDROOT
BRANCH   3   4
HETATM    4  O1  UNL     1      24.377 -22.422  11.058  1.00  0.00    -0.347 OA
BRANCH   4   5
HETATM    5  C3  UNL     1      23.580 -22.670  12.145  1.00  0.00     0.139 A
HETATM    6  C15 UNL     1      24.193 -22.574  13.492  1.00  0.00     0.061 A
HETATM    7  C16 UNL     1      23.453 -21.269  13.779  1.00  0.00     0.010 A
HETATM    8  C17 UNL     1      22.792 -21.385  12.439  1.00  0.00     0.061 A
BRANCH   5   9
HETATM    9  N2  UNL     1      22.716 -23.813  11.922  1.00  0.00    -0.310 N
HETATM   10  C4  UNL     1      23.076 -25.155  12.046  1.00  0.00     0.323 C
HETATM   11  O2  UNL     1      24.231 -25.486  12.370  1.00  0.00    -0.247 OA
HETATM   12  N3  UNL     1      22.138 -26.192  11.808  1.00  0.00    -0.302 N
ATOM     13  H3  UNL     1      21.182 -25.952  11.542  1.00  0.00     0.171 HD
ATOM     14  H2  UNL     1      21.753 -23.617  11.648  1.00  0.00     0.167 HD
BRANCH  12  15
HETATM   15  C5  UNL     1      22.508 -27.569  11.936  1.00  0.00     0.100 A
HETATM   16  S1  UNL     1      22.807 -28.630  10.634  1.00  0.00    -0.074 SA
HETATM   17  C6  UNL     1      23.173 -30.021  11.496  1.00  0.00     0.003 A
HETATM   18  C7  UNL     1      23.062 -29.657  12.821  1.00  0.00    -0.021 A
HETATM   19  C14 UNL     1      23.524 -31.375  10.932  1.00  0.00     0.126 C
HETATM   20  C8  UNL     1      22.708 -28.353  13.031  1.00  0.00     0.086 A
HETATM   21  C10 UNL     1      23.300 -30.545  14.030  1.00  0.00     0.042 C
HETATM   22  C9  UNL     1      22.523 -27.716  14.358  1.00  0.00     0.103 C
HETATM   23  N4  UNL     1      22.382 -27.232  15.411  1.00  0.00    -0.191 NA
HETATM   24  C11 UNL     1      22.530 -31.800  14.172  1.00  0.00     0.016 C
HETATM   25  C12 UNL     1      22.982 -32.945  13.199  1.00  0.00     0.080 C
HETATM   26  C13 UNL     1      23.265 -32.349  11.953  1.00  0.00    -0.178 C
ENDBRANCH  12  15
ENDBRANCH   5   9
ENDBRANCH   4   5
ENDBRANCH   3   4
TORSDOF 4
ENDMDL