MODEL 1
REMARK VINA RESULT: -8.374967013      0.000      0.000
REMARK  3 active torsions:
REMARK  status: ('A' for Active; 'I' for Inactive)
REMARK    1  A    between atoms: C6_6  and  C7_7
REMARK       I    between atoms: C7_7  and  N1_9
REMARK    2  A    between atoms: N1_9  and  C8_11
REMARK    3  A    between atoms: C9_12  and  N2_13
ROOT
HETATM    1  C8  UNL     1      22.187 -30.437  20.038  1.00  0.00     0.093 A
HETATM    2  C9  UNL     1      21.304 -30.923  20.946  1.00  0.00     0.066 A
HETATM    3  C14 UNL     1      20.994 -30.111  22.008  1.00  0.00     0.083 A
HETATM    4  S1  UNL     1      21.922 -28.717  21.722  1.00  0.00    -0.083 SA
HETATM    5  C15 UNL     1      22.679 -29.177  20.277  1.00  0.00     0.116 A
HETATM    6  N3  UNL     1      23.624 -28.475  19.443  1.00  0.00    -0.092 NA
ENDROOT
BRANCH   1   7
HETATM    7  N1  UNL     1      22.621 -31.200  18.865  1.00  0.00    -0.323 N
HETATM    8  C7  UNL     1      22.222 -30.813  17.562  1.00  0.00     0.226 C
HETATM    9  O1  UNL     1      21.471 -29.789  17.420  1.00  0.00    -0.273 OA
ATOM     10  H1  UNL     1      23.217 -32.018  18.988  1.00  0.00     0.169 HD
BRANCH   8  11
HETATM   11  C6  UNL     1      22.652 -31.561  16.379  1.00  0.00     0.078 C
HETATM   12  C5  UNL     1      22.185 -30.847  15.129  1.00  0.00     0.015 C
HETATM   13  C4  UNL     1      23.029 -31.344  13.981  1.00  0.00     0.010 C
HETATM   14  C2  UNL     1      23.066 -32.840  14.005  1.00  0.00    -0.048 C
HETATM   15  C1  UNL     1      22.756 -33.324  12.583  1.00  0.00     0.015 C
HETATM   16  C3  UNL     1      24.456 -33.292  14.349  1.00  0.00     0.015 C
HETATM   17  C17 UNL     1      22.013 -33.431  14.898  1.00  0.00     0.010 C
HETATM   18  C16 UNL     1      22.097 -32.967  16.319  1.00  0.00     0.015 C
ENDBRANCH   8  11
ENDBRANCH   1   7
BRANCH   2  19
HETATM   19  N2  UNL     1      20.667 -32.234  20.842  1.00  0.00    -0.374 N
HETATM   20  C10 UNL     1      21.348 -33.462  21.154  1.00  0.00     0.149 C
HETATM   21  C11 UNL     1      20.426 -34.454  21.846  1.00  0.00     0.187 C
HETATM   22  O2  UNL     1      19.232 -33.837  22.223  1.00  0.00    -0.388 OA
HETATM   23  C12 UNL     1      18.525 -33.422  21.086  1.00  0.00     0.187 C
HETATM   24  C13 UNL     1      19.283 -32.320  20.407  1.00  0.00     0.149 C
ENDBRANCH   2  19
TORSDOF 3
ENDMDL