MODEL 2
REMARK VINA RESULT: -9.757817425      1.044      1.309
REMARK  5 active torsions:
REMARK  status: ('A' for Active; 'I' for Inactive)
REMARK    1  A    between atoms: C5_6  and  C6_7
REMARK    2  A    between atoms: C6_7  and  C7_8
REMARK    3  A    between atoms: C7_8  and  C8_9
REMARK    4  A    between atoms: C8_9  and  O2_10
REMARK    5  A    between atoms: C14_17  and  O3_18
ROOT
HETATM    1  C1  UNL     1      22.480 -34.235  12.369  1.00  0.00     0.077 C
HETATM    2  C2  UNL     1      22.624 -32.774  12.207  1.00  0.00     0.056 A
HETATM    3  O1  UNL     1      22.934 -32.163  11.103  1.00  0.00    -0.318 OA
HETATM    4  C3  UNL     1      22.973 -30.872  11.333  1.00  0.00     0.069 A
HETATM    5  C4  UNL     1      22.667 -30.600  12.688  1.00  0.00     0.014 A
HETATM    6  C5  UNL     1      22.445 -31.844  13.241  1.00  0.00    -0.015 A
HETATM    7  C9  UNL     1      22.750 -29.165  12.894  1.00  0.00    -0.006 A
HETATM    8  C10 UNL     1      22.580 -28.366  13.997  1.00  0.00    -0.035 A
HETATM    9  C11 UNL     1      22.052 -28.873  15.277  1.00  0.00     0.050 C
HETATM   10  C12 UNL     1      22.766 -26.996  13.949  1.00  0.00     0.030 A
HETATM   11  C13 UNL     1      23.132 -26.395  12.724  1.00  0.00     0.014 A
HETATM   12  C14 UNL     1      23.302 -27.173  11.603  1.00  0.00     0.082 A
HETATM   13  C15 UNL     1      23.106 -28.551  11.714  1.00  0.00    -0.006 A
HETATM   14  C16 UNL     1      23.233 -29.579  10.652  1.00  0.00     0.108 A
HETATM   15  C17 UNL     1      23.308 -24.925  12.654  1.00  0.00     0.211 C
HETATM   16  O4  UNL     1      23.226 -24.273  13.833  1.00  0.00    -0.374 OA
HETATM   17  C18 UNL     1      22.247 -24.722  14.735  1.00  0.00     0.192 C
HETATM   18  C19 UNL     1      22.209 -23.806  15.931  1.00  0.00     0.048 C
HETATM   19  C20 UNL     1      22.699 -26.092  15.096  1.00  0.00     0.189 C
HETATM   20  O5  UNL     1      23.009 -26.518  16.210  1.00  0.00    -0.289 OA
ENDROOT
BRANCH   6  21
HETATM   21  C6  UNL     1      22.116 -32.190  14.597  1.00  0.00     0.044 C
BRANCH  21  22
HETATM   22  C7  UNL     1      23.323 -32.470  15.503  1.00  0.00     0.031 C
BRANCH  22  23
HETATM   23  C8  UNL     1      22.859 -33.539  16.479  1.00  0.00     0.164 C
BRANCH  23  24
HETATM   24  O2  UNL     1      22.238 -34.589  15.817  1.00  0.00    -0.401 OA
ATOM     25  H2  UNL     1      21.308 -34.427  15.711  1.00  0.00     0.209 HD
ENDBRANCH  23  24
ENDBRANCH  22  23
ENDBRANCH  21  22
ENDBRANCH   6  21
BRANCH  12  26
HETATM   26  O3  UNL     1      23.658 -26.623  10.388  1.00  0.00    -0.359 OA
ATOM     27  H3  UNL     1      23.114 -26.727   9.615  1.00  0.00     0.217 HD
ENDBRANCH  12  26
TORSDOF 5
ENDMDL