MODEL 2
REMARK VINA RESULT: -9.109452476      1.664      7.009
REMARK  5 active torsions:
REMARK  status: ('A' for Active; 'I' for Inactive)
REMARK    1  A    between atoms: C2_2  and  C3_3
REMARK    2  A    between atoms: C3_3  and  C4_4
REMARK    3  A    between atoms: C4_4  and  C5_5
REMARK    4  A    between atoms: C7_8  and  O2_9
REMARK    5  A    between atoms: C17_20  and  O3_21
ROOT
HETATM    1  C5  UNL     1      22.794 -28.492  15.553  1.00  0.00    -0.021 C
HETATM    2  C6  UNL     1      22.574 -29.520  16.344  1.00  0.00     0.093 A
HETATM    3  O1  UNL     1      22.146 -29.167  17.611  1.00  0.00    -0.286 OA
HETATM    4  C7  UNL     1      21.953 -30.193  18.317  1.00  0.00     0.190 A
HETATM    5  C8  UNL     1      22.234 -31.304  17.581  1.00  0.00     0.009 A
HETATM    6  C9  UNL     1      22.094 -32.668  18.143  1.00  0.00     0.054 C
HETATM    7  C10 UNL     1      22.651 -30.873  16.263  1.00  0.00     0.005 A
HETATM    8  C11 UNL     1      22.980 -31.783  15.394  1.00  0.00    -0.012 C
HETATM    9  C12 UNL     1      23.450 -31.862  14.027  1.00  0.00     0.028 C
HETATM   10  C13 UNL     1      22.269 -32.199  13.098  1.00  0.00     0.004 C
HETATM   11  C14 UNL     1      22.805 -32.828  11.865  1.00  0.00     0.000 C
HETATM   12  C15 UNL     1      23.430 -31.872  10.885  1.00  0.00     0.003 C
HETATM   13  C16 UNL     1      22.653 -30.622  10.674  1.00  0.00     0.042 C
HETATM   14  C17 UNL     1      23.375 -29.371  11.181  1.00  0.00     0.217 C
HETATM   15  C18 UNL     1      22.332 -28.566  11.866  1.00  0.00     0.288 C
HETATM   16  O4  UNL     1      21.571 -27.887  11.093  1.00  0.00    -0.262 OA
HETATM   17  O5  UNL     1      22.244 -28.593  13.221  1.00  0.00    -0.315 OA
HETATM   18  C19 UNL     1      23.243 -28.390  14.145  1.00  0.00     0.215 C
ENDROOT
BRANCH   1  19
HETATM   19  C4  UNL     1      22.578 -27.066  16.036  1.00  0.00     0.039 C
BRANCH  19  20
HETATM   20  C3  UNL     1      21.883 -26.112  15.198  1.00  0.00     0.004 C
BRANCH  20  21
HETATM   21  C2  UNL     1      22.732 -24.790  15.264  1.00  0.00    -0.004 C
HETATM   22  C1  UNL     1      23.146 -24.462  13.862  1.00  0.00     0.005 C
ENDBRANCH  20  21
ENDBRANCH  19  20
ENDBRANCH   1  19
BRANCH   4  23
HETATM   23  O2  UNL     1      21.511 -30.235  19.668  1.00  0.00    -0.340 OA
ATOM     24  H2  UNL     1      20.642 -30.035  19.994  1.00  0.00     0.220 HD
ENDBRANCH   4  23
BRANCH  14  25
HETATM   25  O3  UNL     1      23.910 -28.648  10.096  1.00  0.00    -0.386 OA
ATOM     26  H3  UNL     1      24.533 -29.186   9.621  1.00  0.00     0.210 HD
ENDBRANCH  14  25
TORSDOF 5
ENDMDL