MODEL 5
REMARK VINA RESULT: -6.716674653      4.339      4.762
REMARK  4 active torsions:
REMARK  status: ('A' for Active; 'I' for Inactive)
REMARK    1  A    between atoms: C2_2  and  N1_4
REMARK    2  A    between atoms: C2_2  and  C4_8
REMARK    3  A    between atoms: C4_8  and  C5_9
REMARK    4  A    between atoms: C11_16  and  N2_17
ROOT
HETATM    1  N2  UNL     1      22.346 -23.880  17.572  1.00  0.00    -0.338 N
HETATM    2  C12 UNL     1      23.434 -23.251  17.080  1.00  0.00     0.095 A
HETATM    3  C13 UNL     1      23.755 -22.223  17.958  1.00  0.00     0.041 A
HETATM    4  C14 UNL     1      22.853 -22.231  18.989  1.00  0.00     0.061 A
HETATM    5  C15 UNL     1      22.784 -21.359  20.126  1.00  0.00     0.101 C
HETATM    6  N3  UNL     1      22.744 -20.652  21.043  1.00  0.00    -0.191 NA
HETATM    7  C16 UNL     1      21.981 -23.285  18.715  1.00  0.00     0.115 A
ENDROOT
BRANCH   1   8
HETATM    8  C11 UNL     1      21.696 -25.013  16.946  1.00  0.00     0.231 C
HETATM    9  O1  UNL     1      20.844 -24.618  15.950  1.00  0.00    -0.365 OA
HETATM   10  C10 UNL     1      20.875 -25.540  14.934  1.00  0.00     0.176 C
HETATM   11  C9  UNL     1      22.211 -26.247  14.990  1.00  0.00     0.023 C
HETATM   12  C8  UNL     1      22.132 -27.628  14.505  1.00  0.00     0.001 C
HETATM   13  C17 UNL     1      22.682 -25.995  16.356  1.00  0.00     0.041 C
HETATM   14  C7  UNL     1      22.989 -27.849  13.249  1.00  0.00     0.006 C
HETATM   15  C20 UNL     1      22.508 -28.722  15.417  1.00  0.00    -0.036 C
HETATM   16  C6  UNL     1      24.090 -28.811  13.726  1.00  0.00     0.006 C
HETATM   17  C5  UNL     1      23.317 -29.740  14.571  1.00  0.00    -0.004 C
HETATM   18  C19 UNL     1      23.347 -28.380  16.584  1.00  0.00     0.010 C
HETATM   19  C21 UNL     1      21.260 -29.443  15.942  1.00  0.00     0.016 C
HETATM   20  C18 UNL     1      22.787 -27.160  17.263  1.00  0.00     0.010 C
BRANCH  17  21
HETATM   21  C4  UNL     1      22.435 -30.746  13.971  1.00  0.00     0.043 C
BRANCH  21  22
HETATM   22  C2  UNL     1      22.874 -32.159  13.937  1.00  0.00     0.117 C
HETATM   23  C1  UNL     1      22.962 -32.632  12.450  1.00  0.00     0.045 C
HETATM   24  C3  UNL     1      24.232 -32.472  14.500  1.00  0.00     0.045 C
BRANCH  22  25
HETATM   25  N1  UNL     1      21.928 -33.070  14.560  1.00  0.00    -0.071 N
ATOM     26  H13 UNL     1      22.354 -33.728  15.212  1.00  0.00     0.275 HD
ATOM     27  H12 UNL     1      21.306 -32.624  15.234  1.00  0.00     0.275 HD
ATOM     28  H11 UNL     1      21.445 -33.514  13.779  1.00  0.00     0.275 HD
ENDBRANCH  22  25
ENDBRANCH  21  22
ENDBRANCH  17  21
ENDBRANCH   1   8
TORSDOF 4
ENDMDL