MODEL 4
REMARK VINA RESULT: -8.795208111      3.451      8.802
REMARK  5 active torsions:
REMARK  status: ('A' for Active; 'I' for Inactive)
REMARK    1  A    between atoms: O1_1  and  N1_3
REMARK    2  A    between atoms: C5_9  and  C6_10
REMARK    3  A    between atoms: C6_10  and  N2_11
REMARK    4  A    between atoms: C9_14  and  N3_15
REMARK    5  A    between atoms: C13_19  and  O2_20
ROOT
HETATM    1  N2  UNL     1      22.843 -29.119  14.807  1.00  0.00    -0.393 N
HETATM    2  C7  UNL     1      21.992 -28.212  15.429  1.00  0.00     0.123 C
HETATM    3  C8  UNL     1      22.609 -26.803  15.328  1.00  0.00     0.045 C
HETATM    4  C9  UNL     1      22.565 -26.429  13.877  1.00  0.00     0.094 C
HETATM    5  C18 UNL     1      23.399 -27.421  13.120  1.00  0.00     0.045 C
HETATM    6  C19 UNL     1      23.894 -28.543  13.994  1.00  0.00     0.123 C
ENDROOT
BRANCH   1   7
HETATM    7  C6  UNL     1      22.443 -30.399  14.414  1.00  0.00     0.063 C
BRANCH   7   8
HETATM    8  C5  UNL     1      23.148 -31.511  15.119  1.00  0.00     0.029 C
HETATM    9  C4  UNL     1      22.368 -32.166  16.196  1.00  0.00     0.010 C
HETATM   10  C3  UNL     1      22.556 -33.683  16.244  1.00  0.00     0.006 C
HETATM   11  C2  UNL     1      22.110 -34.281  14.941  1.00  0.00     0.054 C
HETATM   12  C1  UNL     1      22.835 -33.631  13.837  1.00  0.00     0.010 C
HETATM   13  N1  UNL     1      22.679 -34.032  12.627  1.00  0.00    -0.277 N
HETATM   14  C20 UNL     1      23.753 -32.506  14.141  1.00  0.00     0.064 C
ATOM     15  H1  UNL     1      23.185 -33.575  11.867  1.00  0.00     0.193 HD
BRANCH  13  16
HETATM   16  O1  UNL     1      21.831 -35.075  12.359  1.00  0.00    -0.290 OA
ATOM     17  H1  UNL     1      22.015 -35.937  12.714  1.00  0.00     0.244 HD
ENDBRANCH  13  16
ENDBRANCH   7   8
ENDBRANCH   1   7
BRANCH   4  18
HETATM   18  N3  UNL     1      22.953 -25.052  13.657  1.00  0.00    -0.332 N
HETATM   19  C10 UNL     1      22.985 -24.075  14.579  1.00  0.00     0.101 A
HETATM   20  C11 UNL     1      23.423 -22.903  13.998  1.00  0.00    -0.032 A
HETATM   21  C12 UNL     1      23.648 -23.257  12.666  1.00  0.00     0.001 A
HETATM   22  C17 UNL     1      23.698 -21.509  14.359  1.00  0.00     0.040 C
HETATM   23  C13 UNL     1      23.352 -24.582  12.483  1.00  0.00     0.149 A
HETATM   24  C14 UNL     1      24.139 -22.171  11.776  1.00  0.00     0.043 C
HETATM   25  C15 UNL     1      23.270 -20.953  11.947  1.00  0.00     0.005 C
HETATM   26  C16 UNL     1      22.945 -20.627  13.365  1.00  0.00     0.005 C
BRANCH  23  27
HETATM   27  O2  UNL     1      23.473 -25.235  11.266  1.00  0.00    -0.346 OA
ATOM     28  H2  UNL     1      24.245 -25.379  10.731  1.00  0.00     0.219 HD
ENDBRANCH  23  27
ENDBRANCH   4  18
TORSDOF 5
ENDMDL