MODEL 3
REMARK VINA RESULT: -7.096883391      1.989      6.876
REMARK  5 active torsions:
REMARK  status: ('A' for Active; 'I' for Inactive)
REMARK    1  A    between atoms: O1_2  and  C2_3
REMARK    2  A    between atoms: C9_10  and  O2_11
REMARK    3  A    between atoms: N1_13  and  C10_14
REMARK    4  A    between atoms: C10_14  and  C11_15
REMARK    5  A    between atoms: C14_18  and  O3_19
ROOT
HETATM    1  C2  UNL     1      22.032 -29.436  19.988  1.00  0.00     0.091 C
HETATM    2  C3  UNL     1      23.505 -29.115  20.100  1.00  0.00     0.009 C
HETATM    3  C4  UNL     1      23.889 -28.646  18.916  1.00  0.00    -0.018 C
HETATM    4  C5  UNL     1      22.785 -28.609  17.967  1.00  0.00     0.049 C
HETATM    5  C6  UNL     1      21.585 -28.474  18.940  1.00  0.00     0.057 C
HETATM    6  C7  UNL     1      22.513 -29.907  17.315  1.00  0.00     0.012 A
HETATM    7  C8  UNL     1      22.094 -30.973  18.063  1.00  0.00     0.016 A
HETATM    8  C9  UNL     1      21.893 -31.986  17.117  1.00  0.00     0.152 A
HETATM    9  N1  UNL     1      22.181 -31.545  15.882  1.00  0.00    -0.307 N
HETATM   10  C14 UNL     1      22.566 -30.262  15.978  1.00  0.00     0.151 A
HETATM   11  C15 UNL     1      21.955 -30.904  19.505  1.00  0.00     0.027 C
HETATM   12  C16 UNL     1      23.114 -31.585  20.180  1.00  0.00     0.025 C
HETATM   13  C17 UNL     1      22.985 -33.050  20.426  1.00  0.00     0.079 C
HETATM   14  C18 UNL     1      21.664 -33.348  21.028  1.00  0.00     0.127 C
HETATM   15  O4  UNL     1      21.301 -34.474  21.255  1.00  0.00    -0.298 OA
HETATM   16  C19 UNL     1      20.797 -32.180  21.344  1.00  0.00     0.079 C
HETATM   17  C20 UNL     1      20.655 -31.420  20.035  1.00  0.00     0.025 C
ENDROOT
BRANCH   1  18
HETATM   18  O1  UNL     1      21.398 -29.327  21.197  1.00  0.00    -0.380 OA
HETATM   19  C1  UNL     1      21.974 -28.430  22.042  1.00  0.00     0.203 C
ENDBRANCH   1  18
BRANCH   8  20
HETATM   20  O2  UNL     1      21.464 -33.254  17.386  1.00  0.00    -0.345 OA
ATOM     21  H2  UNL     1      21.994 -34.040  17.339  1.00  0.00     0.219 HD
ENDBRANCH   8  20
BRANCH  10  22
HETATM   22  O3  UNL     1      22.959 -29.403  14.950  1.00  0.00    -0.345 OA
ATOM     23  H3  UNL     1      23.041 -28.461  15.042  1.00  0.00     0.219 HD
ENDBRANCH  10  22
BRANCH   9  24
HETATM   24  C10 UNL     1      22.091 -32.319  14.662  1.00  0.00     0.137 C
BRANCH  24  25
HETATM   25  C11 UNL     1      23.368 -32.350  13.875  1.00  0.00    -0.004 C
HETATM   26  C12 UNL     1      23.062 -33.015  12.546  1.00  0.00     0.011 C
HETATM   27  C13 UNL     1      24.432 -33.108  14.596  1.00  0.00     0.011 C
ENDBRANCH  24  25
ENDBRANCH   9  24
TORSDOF 5
ENDMDL