MODEL 1
REMARK VINA RESULT: -7.951510239      0.000      0.000
REMARK  5 active torsions:
REMARK  status: ('A' for Active; 'I' for Inactive)
REMARK    1  A    between atoms: C2_3  and  C3_4
REMARK    2  A    between atoms: C3_4  and  C4_5
REMARK    3  A    between atoms: C9_10  and  O1_11
REMARK    4  A    between atoms: C11_15  and  O2_16
REMARK    5  A    between atoms: C12_18  and  C13_19
ROOT
HETATM    1  C1  UNL     1      21.616 -28.529  12.564  1.00  0.00     0.312 C
HETATM    2  N1  UNL     1      23.049 -28.439  12.405  1.00  0.00     0.107 N
HETATM    3  C2  UNL     1      23.496 -27.183  12.971  1.00  0.00     0.262 C
HETATM    4  C7  UNL     1      23.039 -27.347  14.389  1.00  0.00     0.039 A
HETATM    5  C8  UNL     1      23.144 -28.719  14.659  1.00  0.00     0.044 A
HETATM    6  C9  UNL     1      22.734 -28.905  15.957  1.00  0.00     0.153 A
HETATM    7  N2  UNL     1      22.395 -27.729  16.461  1.00  0.00    -0.312 N
HETATM    8  C10 UNL     1      21.898 -27.417  17.809  1.00  0.00     0.160 C
HETATM    9  C11 UNL     1      22.568 -26.761  15.542  1.00  0.00     0.153 A
HETATM   10  C12 UNL     1      23.642 -29.321  13.428  1.00  0.00     0.301 C
ENDROOT
BRANCH  10  11
HETATM   11  C13 UNL     1      23.299 -30.738  13.222  1.00  0.00     0.021 A
HETATM   12  C14 UNL     1      23.258 -31.672  14.220  1.00  0.00     0.025 A
HETATM   13  C15 UNL     1      22.928 -32.935  13.867  1.00  0.00    -0.044 A
HETATM   14  C16 UNL     1      22.662 -33.191  12.567  1.00  0.00    -0.010 A
HETATM   15  C18 UNL     1      22.651 -34.409  14.132  1.00  0.00     0.045 A
HETATM   16  S1  UNL     1      22.878 -31.660  11.857  1.00  0.00    -0.096 SA
HETATM   17  C17 UNL     1      22.361 -34.657  12.678  1.00  0.00     0.051 A
ENDBRANCH  10  11
BRANCH   3  18
HETATM   18  C3  UNL     1      22.974 -25.958  12.328  1.00  0.00     0.045 C
BRANCH  18  19
HETATM   19  C4  UNL     1      23.993 -24.877  12.260  1.00  0.00    -0.012 A
HETATM   20  C5  UNL     1      23.623 -23.534  11.778  1.00  0.00     0.005 A
HETATM   21  C6  UNL     1      23.816 -23.735  13.250  1.00  0.00     0.005 A
ENDBRANCH  18  19
ENDBRANCH   3  18
BRANCH   6  22
HETATM   22  O1  UNL     1      22.669 -30.103  16.653  1.00  0.00    -0.345 OA
ATOM     23  H1  UNL     1      22.466 -30.962  16.301  1.00  0.00     0.219 HD
ENDBRANCH   6  22
BRANCH   9  24
HETATM   24  O2  UNL     1      22.337 -25.391  15.649  1.00  0.00    -0.345 OA
ATOM     25  H2  UNL     1      21.568 -24.972  15.282  1.00  0.00     0.219 HD
ENDBRANCH   9  24
TORSDOF 5
ENDMDL