MODEL 3
REMARK VINA RESULT: -6.804196150      2.939      7.892
REMARK  15 active torsions:
REMARK  status: ('A' for Active; 'I' for Inactive)
REMARK    1  A    between atoms: C2_2  and  C3_3
REMARK    2  A    between atoms: C2_2  and  N2_13
REMARK    3  A    between atoms: C3_3  and  C4_4
REMARK    4  A    between atoms: C4_4  and  O1_5
REMARK    5  A    between atoms: C4_4  and  C5_7
REMARK    6  A    between atoms: N2_13  and  C8_15
REMARK    7  A    between atoms: C8_15  and  C9_16
REMARK    8  A    between atoms: C8_15  and  C10_21
REMARK    9  A    between atoms: C9_16  and  O3_17
REMARK   10  A    between atoms: C9_16  and  O4_19
REMARK   11  A    between atoms: C10_21  and  O5_22
REMARK   12  A    between atoms: C10_21  and  N3_24
REMARK   13  A    between atoms: N3_24  and  C11_27
REMARK   14  A    between atoms: C11_27  and  N4_28
REMARK   15  A    between atoms: C11_27  and  C12_32
ROOT
HETATM    1  C8  UNL     1       5.729  85.742  -7.903  1.00  0.00     0.189 C
ENDROOT
BRANCH   1   2
HETATM    2  N2  UNL     1       5.932  86.710  -6.918  1.00  0.00    -0.405 N
ATOM      3  H2  UNL     1       5.674  86.500  -5.954  1.00  0.00     0.154 HD
BRANCH   2   4
HETATM    4  C2  UNL     1       6.488  87.975  -7.225  1.00  0.00     0.076 C
HETATM    5  C1  UNL     1       5.398  88.694  -8.049  1.00  0.00     0.032 C
BRANCH   4   6
HETATM    6  C3  UNL     1       7.703  87.847  -8.107  1.00  0.00     0.063 C
BRANCH   6   7
HETATM    7  C4  UNL     1       8.800  88.808  -7.858  1.00  0.00     0.178 C
BRANCH   7   8
HETATM    8  O1  UNL     1       9.640  88.365  -6.802  1.00  0.00    -0.389 OA
ATOM      9  H1  UNL     1      10.284  89.025  -6.576  1.00  0.00     0.210 HD
ENDBRANCH   7   8
BRANCH   7  10
HETATM   10  C5  UNL     1       9.587  89.242  -9.005  1.00  0.00     0.098 A
HETATM   11  C6  UNL     1      10.938  89.459  -9.095  1.00  0.00     0.124 A
HETATM   12  N1  UNL     1      11.213  89.856 -10.363  1.00  0.00    -0.354 N
HETATM   13  C7  UNL     1      10.034  89.867 -11.000  1.00  0.00     0.233 A
ATOM     14  H1  UNL     1      12.126  90.095 -10.751  1.00  0.00     0.166 HD
HETATM   15  O2  UNL     1       9.088  89.502 -10.182  1.00  0.00    -0.306 OA
ENDBRANCH   7  10
ENDBRANCH   6   7
ENDBRANCH   4   6
ENDBRANCH   2   4
ENDBRANCH   1   2
BRANCH   1  16
HETATM   16  C9  UNL     1       6.624  84.568  -7.972  1.00  0.00     0.280 C
BRANCH  16  17
HETATM   17  O3  UNL     1       6.863  83.886  -6.815  1.00  0.00    -0.369 OA
ATOM     18  H3  UNL     1       7.737  83.937  -6.446  1.00  0.00     0.212 HD
ENDBRANCH  16  17
BRANCH  16  19
HETATM   19  O4  UNL     1       6.251  83.629  -8.933  1.00  0.00    -0.369 OA
ATOM     20  H4  UNL     1       6.735  83.700  -9.748  1.00  0.00     0.212 HD
ENDBRANCH  16  19
ENDBRANCH   1  16
BRANCH   1  21
HETATM   21  C10 UNL     1       4.289  85.254  -7.853  1.00  0.00     0.348 C
BRANCH  21  22
HETATM   22  O5  UNL     1       3.916  85.032  -9.187  1.00  0.00    -0.368 OA
ATOM     23  H5  UNL     1       3.057  84.628  -9.150  1.00  0.00     0.212 HD
ENDBRANCH  21  22
BRANCH  21  24
HETATM   24  N3  UNL     1       4.087  84.071  -7.091  1.00  0.00    -0.018 N
ATOM     25  H32 UNL     1       4.938  83.516  -6.993  1.00  0.00     0.282 HD
ATOM     26  H31 UNL     1       3.934  84.262  -6.101  1.00  0.00     0.282 HD
BRANCH  24  27
HETATM   27  C11 UNL     1       2.990  83.321  -7.699  1.00  0.00     0.386 C
BRANCH  27  28
HETATM   28  N4  UNL     1       3.448  82.283  -8.561  1.00  0.00    -0.050 N
ATOM     29  H43 UNL     1       3.693  82.652  -9.480  1.00  0.00     0.276 HD
ATOM     30  H42 UNL     1       4.364  81.942  -8.270  1.00  0.00     0.276 HD
ATOM     31  H41 UNL     1       2.779  81.516  -8.640  1.00  0.00     0.276 HD
ENDBRANCH  27  28
BRANCH  27  32
HETATM   32  C12 UNL     1       2.096  82.717  -6.635  1.00  0.00     0.036 C
HETATM   33  C13 UNL     1       0.896  83.565  -6.328  1.00  0.00     0.013 C
HETATM   34  C14 UNL     1       1.654  81.327  -7.000  1.00  0.00     0.013 C
ENDBRANCH  27  32
ENDBRANCH  24  27
ENDBRANCH  21  24
ENDBRANCH   1  21
TORSDOF 15
ENDMDL