MODEL 5
REMARK VINA RESULT: -6.510273283      2.361      4.932
REMARK  12 active torsions:
REMARK  status: ('A' for Active; 'I' for Inactive)
REMARK    1  A    between atoms: N1_2  and  C2_3
REMARK    2  A    between atoms: N1_2  and  C4_9
REMARK    3  A    between atoms: C2_3  and  C3_4
REMARK    4  A    between atoms: C3_4  and  N2_5
REMARK    5  A    between atoms: C4_9  and  C5_10
REMARK    6  A    between atoms: C5_10  and  C6_11
REMARK    7  A    between atoms: C6_11  and  C7_12
REMARK    8  A    between atoms: C8_13  and  C9_14
REMARK    9  A    between atoms: C9_14  and  C10_15
REMARK   10  A    between atoms: C10_15  and  C11_16
REMARK   11  A    between atoms: C13_28  and  N7_29
REMARK   12  A    between atoms: N7_29  and  N8_31
ROOT
HETATM    1  C7  UNL     1       6.605  87.574  -7.776  1.00  0.00     0.053 A
HETATM    2  C8  UNL     1       5.441  87.231  -7.227  1.00  0.00     0.070 A
HETATM    3  N6  UNL     1       5.141  85.841  -7.245  1.00  0.00    -0.188 N
ATOM      4  H6  UNL     1       4.253  85.560  -6.828  1.00  0.00     0.184 HD
HETATM    5  C13 UNL     1       5.857  84.920  -7.721  1.00  0.00     0.711 A
HETATM    6  N9  UNL     1       7.098  85.211  -8.314  1.00  0.00    -0.131 N
ATOM      7  H9  UNL     1       7.692  84.479  -8.703  1.00  0.00     0.205 HD
HETATM    8  N10 UNL     1       7.479  86.566  -8.342  1.00  0.00    -0.288 N
ATOM      9  H10 UNL     1       8.368  86.838  -8.759  1.00  0.00     0.187 HD
ENDROOT
BRANCH   2  10
HETATM   10  C9  UNL     1       4.600  88.262  -6.664  1.00  0.00     0.013 C
BRANCH  10  11
HETATM   11  C10 UNL     1       3.446  88.808  -7.371  1.00  0.00     0.115 C
BRANCH  11  12
HETATM   12  C11 UNL     1       2.113  88.311  -7.042  1.00  0.00     0.145 A
HETATM   13  N3  UNL     1       1.664  87.100  -6.800  1.00  0.00    -0.280 N
HETATM   14  N4  UNL     1       0.370  87.184  -6.552  1.00  0.00    -0.263 N
ATOM     15  H3  UNL     1       2.219  86.244  -6.803  1.00  0.00     0.189 HD
HETATM   16  C12 UNL     1       0.002  88.466  -6.639  1.00  0.00     0.238 A
ATOM     17  H4  UNL     1      -0.245  86.401  -6.330  1.00  0.00     0.190 HD
HETATM   18  N5  UNL     1      -1.198  88.885  -6.451  1.00  0.00    -0.364 N
HETATM   19  O1  UNL     1       1.079  89.136  -6.939  1.00  0.00    -0.264 OA
ATOM     20  H52 UNL     1      -2.041  88.360  -6.217  1.00  0.00     0.159 HD
ATOM     21  H51 UNL     1      -1.479  89.864  -6.517  1.00  0.00     0.159 HD
ENDBRANCH  11  12
ENDBRANCH  10  11
ENDBRANCH   2  10
BRANCH   1  22
HETATM   22  C6  UNL     1       7.018  88.953  -7.805  1.00  0.00     0.062 C
BRANCH  22  23
HETATM   23  C5  UNL     1       8.490  89.256  -7.951  1.00  0.00     0.036 C
BRANCH  23  24
HETATM   24  C4  UNL     1       8.957  89.603  -9.306  1.00  0.00     0.272 C
BRANCH  24  25
HETATM   25  N1  UNL     1      10.247  88.974  -9.570  1.00  0.00     0.085 N
HETATM   26  C1  UNL     1      10.025  87.929 -10.567  1.00  0.00     0.309 C
BRANCH  25  27
HETATM   27  C2  UNL     1      10.916  88.518  -8.421  1.00  0.00     0.299 C
BRANCH  27  28
HETATM   28  C3  UNL     1      12.270  89.154  -8.186  1.00  0.00     0.259 C
BRANCH  28  29
HETATM   29  N2  UNL     1      12.171  90.589  -8.250  1.00  0.00    -0.078 N
ATOM     30  H23 UNL     1      11.933  90.911  -9.188  1.00  0.00     0.274 HD
ATOM     31  H22 UNL     1      11.349  90.934  -7.756  1.00  0.00     0.274 HD
ATOM     32  H21 UNL     1      13.029  91.022  -7.906  1.00  0.00     0.274 HD
ENDBRANCH  28  29
ENDBRANCH  27  28
ENDBRANCH  25  27
ENDBRANCH  24  25
ENDBRANCH  23  24
ENDBRANCH  22  23
ENDBRANCH   1  22
BRANCH   5  33
HETATM   33  N7  UNL     1       5.453  83.557  -7.684  1.00  0.00    -0.137 N
ATOM     34  H7  UNL     1       5.057  83.199  -6.815  1.00  0.00     0.205 HD
BRANCH  33  35
HETATM   35  N8  UNL     1       5.564  82.687  -8.753  1.00  0.00    -0.331 N
ATOM     36  H82 UNL     1       5.366  81.704  -8.571  1.00  0.00     0.177 HD
ATOM     37  H81 UNL     1       5.828  82.973  -9.697  1.00  0.00     0.177 HD
ENDBRANCH  33  35
ENDBRANCH   5  33
TORSDOF 12
ENDMDL