MODEL 2
REMARK VINA RESULT: -6.823180741      2.009      2.985
REMARK  13 active torsions:
REMARK  status: ('A' for Active; 'I' for Inactive)
REMARK    1  A    between atoms: C2_2  and  N1_3
REMARK    2  A    between atoms: C2_2  and  C3_7
REMARK    3  A    between atoms: C3_7  and  C4_8
REMARK    4  A    between atoms: C5_11  and  C6_12
REMARK    5  A    between atoms: C6_12  and  N3_13
REMARK    6  A    between atoms: N3_13  and  C7_15
REMARK    7  A    between atoms: C7_15  and  O1_16
REMARK    8  A    between atoms: C7_15  and  C8_18
REMARK    9  A    between atoms: C8_18  and  N4_20
REMARK   10  A    between atoms: N4_20  and  C10_23
REMARK   11  A    between atoms: C10_23  and  O2_24
REMARK   12  A    between atoms: C10_23  and  N5_26
REMARK   13  A    between atoms: N5_26  and  C11_28
ROOT
HETATM    1  N3  UNL     1       6.237  86.480  -7.266  1.00  0.00    -0.367 N
ATOM      2  H3  UNL     1       6.712  86.100  -6.448  1.00  0.00     0.161 HD
ENDROOT
BRANCH   1   3
HETATM    3  C6  UNL     1       4.880  86.120  -7.534  1.00  0.00     0.182 C
BRANCH   3   4
HETATM    4  C5  UNL     1       4.838  84.756  -8.143  1.00  0.00     0.077 A
HETATM    5  N2  UNL     1       3.974  84.362  -9.124  1.00  0.00    -0.339 N
HETATM    6  C4  UNL     1       4.331  83.104  -9.549  1.00  0.00     0.128 A
ATOM      7  H2  UNL     1       3.193  84.911  -9.483  1.00  0.00     0.167 HD
HETATM    8  O3  UNL     1       5.357  82.743  -8.866  1.00  0.00    -0.281 OA
HETATM    9  C14 UNL     1       5.700  83.706  -8.001  1.00  0.00     0.183 A
HETATM   10  N6  UNL     1       6.811  83.573  -7.093  1.00  0.00    -0.072 NA
BRANCH   6  11
HETATM   11  C3  UNL     1       3.612  82.358 -10.591  1.00  0.00     0.116 C
BRANCH  11  12
HETATM   12  C2  UNL     1       4.426  81.623 -11.595  1.00  0.00     0.187 C
HETATM   13  C1  UNL     1       5.292  82.508 -12.476  1.00  0.00     0.040 C
BRANCH  12  14
HETATM   14  N1  UNL     1       5.266  80.595 -11.012  1.00  0.00    -0.075 N
ATOM     15  H13 UNL     1       6.224  80.911 -10.860  1.00  0.00     0.274 HD
ATOM     16  H12 UNL     1       5.028  80.398 -10.040  1.00  0.00     0.274 HD
ATOM     17  H11 UNL     1       5.216  79.766 -11.604  1.00  0.00     0.274 HD
ENDBRANCH  12  14
ENDBRANCH  11  12
ENDBRANCH   6  11
ENDBRANCH   3   4
ENDBRANCH   1   3
BRANCH   1  18
HETATM   18  C7  UNL     1       6.917  87.353  -8.123  1.00  0.00     0.142 C
BRANCH  18  19
HETATM   19  O1  UNL     1       7.542  86.825  -9.235  1.00  0.00    -0.348 OA
ATOM     20  H1  UNL     1       8.487  86.728  -9.218  1.00  0.00     0.219 HD
ENDBRANCH  18  19
BRANCH  18  21
HETATM   21  C8  UNL     1       7.626  88.518  -7.550  1.00  0.00     0.260 C
HETATM   22  C9  UNL     1       6.621  89.261  -6.646  1.00  0.00     0.049 C
BRANCH  21  23
HETATM   23  N4  UNL     1       8.410  89.360  -8.359  1.00  0.00    -0.020 N
ATOM     24  H42 UNL     1       8.110  89.296  -9.331  1.00  0.00     0.283 HD
ATOM     25  H41 UNL     1       8.190  90.338  -8.170  1.00  0.00     0.283 HD
BRANCH  23  26
HETATM   26  C10 UNL     1       9.848  89.138  -8.259  1.00  0.00     0.423 C
BRANCH  26  27
HETATM   27  O2  UNL     1      10.486  90.359  -8.102  1.00  0.00    -0.355 OA
ATOM     28  H2  UNL     1      11.316  90.338  -8.564  1.00  0.00     0.213 HD
ENDBRANCH  26  27
BRANCH  26  29
HETATM   29  N5  UNL     1      10.416  88.303  -9.248  1.00  0.00    -0.371 N
ATOM     30  H5  UNL     1      10.914  87.459  -8.965  1.00  0.00     0.157 HD
BRANCH  29  31
HETATM   31  C11 UNL     1      10.307  88.614 -10.616  1.00  0.00     0.072 C
HETATM   32  C12 UNL     1      11.433  89.464 -11.177  1.00  0.00     0.031 C
HETATM   33  C13 UNL     1      10.223  87.410 -11.509  1.00  0.00     0.031 C
ENDBRANCH  29  31
ENDBRANCH  26  29
ENDBRANCH  23  26
ENDBRANCH  21  23
ENDBRANCH  18  21
ENDBRANCH   1  18
TORSDOF 13
ENDMDL