MODEL 2
REMARK VINA RESULT: -6.433926337      3.504      9.062
REMARK  14 active torsions:
REMARK  status: ('A' for Active; 'I' for Inactive)
REMARK    1  A    between atoms: N1_2  and  C2_5
REMARK    2  A    between atoms: C2_5  and  C3_6
REMARK    3  A    between atoms: C3_6  and  N2_7
REMARK    4  A    between atoms: N2_7  and  C4_9
REMARK    5  A    between atoms: C5_12  and  N4_13
REMARK    6  A    between atoms: C6_16  and  C7_17
REMARK    7  A    between atoms: C7_17  and  N5_18
REMARK    8  A    between atoms: N5_18  and  O1_19
REMARK    9  A    between atoms: O1_19  and  C8_20
REMARK   10  A    between atoms: C8_20  and  C9_21
REMARK   11  A    between atoms: C9_21  and  C11_23
REMARK   12  A    between atoms: C11_23  and  O2_24
REMARK   13  A    between atoms: C11_23  and  C12_26
REMARK   14  A    between atoms: C12_26  and  N6_27
ROOT
HETATM    1  C4  UNL     1       2.661  85.209  -7.647  1.00  0.00     0.681 A
HETATM    2  N3  UNL     1       3.985  85.014  -7.602  1.00  0.00    -0.176 N
ATOM      3  H3  UNL     1       4.343  84.060  -7.654  1.00  0.00     0.186 HD
HETATM    4  C5  UNL     1       4.877  86.050  -7.489  1.00  0.00     0.131 A
HETATM    5  C6  UNL     1       4.373  87.336  -7.419  1.00  0.00     0.081 A
HETATM    6  C13 UNL     1       3.009  87.563  -7.464  1.00  0.00     0.148 A
HETATM    7  N7  UNL     1       2.449  88.858  -7.396  1.00  0.00    -0.081 NA
HETATM    8  N8  UNL     1       2.226  86.458  -7.578  1.00  0.00    -0.178 N
ATOM      9  H8  UNL     1       1.217  86.602  -7.612  1.00  0.00     0.185 HD
ENDROOT
BRANCH   5  10
HETATM   10  C7  UNL     1       5.301  88.466  -7.296  1.00  0.00     0.236 C
BRANCH  10  11
HETATM   11  N5  UNL     1       6.314  88.691  -7.903  1.00  0.00    -0.293 NA
BRANCH  11  12
HETATM   12  O1  UNL     1       7.367  88.693  -8.576  1.00  0.00    -0.209 OA
BRANCH  12  13
HETATM   13  C8  UNL     1       8.638  88.076  -8.428  1.00  0.00     0.224 C
BRANCH  13  14
HETATM   14  C9  UNL     1       9.676  89.157  -8.553  1.00  0.00     0.039 C
HETATM   15  C10 UNL     1       9.757  89.684  -9.972  1.00  0.00     0.015 C
BRANCH  14  16
HETATM   16  C11 UNL     1      11.045  88.689  -8.138  1.00  0.00     0.149 C
BRANCH  16  17
HETATM   17  O2  UNL     1      11.143  88.684  -6.749  1.00  0.00    -0.393 OA
ATOM     18  H2  UNL     1      11.168  89.576  -6.424  1.00  0.00     0.210 HD
ENDBRANCH  16  17
BRANCH  16  19
HETATM   19  C12 UNL     1      12.072  89.609  -8.755  1.00  0.00     0.261 C
BRANCH  19  20
HETATM   20  N6  UNL     1      12.245  90.754  -7.854  1.00  0.00    -0.077 N
ATOM     21  H63 UNL     1      11.724  91.577  -8.156  1.00  0.00     0.274 HD
ATOM     22  H62 UNL     1      11.782  90.624  -6.955  1.00  0.00     0.274 HD
ATOM     23  H61 UNL     1      13.246  90.928  -7.763  1.00  0.00     0.274 HD
ENDBRANCH  19  20
ENDBRANCH  16  19
ENDBRANCH  14  16
ENDBRANCH  13  14
ENDBRANCH  12  13
ENDBRANCH  11  12
ENDBRANCH  10  11
ENDBRANCH   5  10
BRANCH   4  24
HETATM   24  N4  UNL     1       6.122  85.780  -7.452  1.00  0.00    -0.384 N
ATOM     25  H42 UNL     1       6.795  86.134  -8.131  1.00  0.00     0.157 HD
ATOM     26  H41 UNL     1       6.469  85.179  -6.704  1.00  0.00     0.157 HD
ENDBRANCH   4  24
BRANCH   1  27
HETATM   27  N2  UNL     1       1.793  84.081  -7.763  1.00  0.00    -0.224 N
ATOM     28  H2  UNL     1       1.063  84.063  -8.475  1.00  0.00     0.177 HD
BRANCH  27  29
HETATM   29  C3  UNL     1       1.962  82.968  -6.861  1.00  0.00     0.165 C
BRANCH  29  30
HETATM   30  C2  UNL     1       2.089  81.654  -7.644  1.00  0.00     0.252 C
BRANCH  30  31
HETATM   31  N1  UNL     1       1.533  80.617  -6.794  1.00  0.00    -0.077 N
HETATM   32  C1  UNL     1       0.982  81.262  -5.619  1.00  0.00     0.267 C
ATOM     33  H12 UNL     1       2.207  79.886  -6.567  1.00  0.00     0.276 HD
ATOM     34  H11 UNL     1       0.856  80.027  -7.279  1.00  0.00     0.276 HD
ENDBRANCH  30  31
ENDBRANCH  29  30
ENDBRANCH  27  29
ENDBRANCH   1  27
TORSDOF 14
ENDMDL