MODEL 5
REMARK VINA RESULT: -6.631542242      1.511      2.004
REMARK  13 active torsions:
REMARK  status: ('A' for Active; 'I' for Inactive)
REMARK    1  A    between atoms: N1_2  and  C2_5
REMARK    2  A    between atoms: C2_5  and  C3_6
REMARK    3  A    between atoms: C3_6  and  C4_7
REMARK    4  A    between atoms: C4_7  and  N2_8
REMARK    5  A    between atoms: N2_8  and  C5_10
REMARK    6  A    between atoms: C6_11  and  N3_12
REMARK    7  A    between atoms: N3_12  and  C7_14
REMARK    8  A    between atoms: C7_14  and  C8_15
REMARK    9  A    between atoms: C7_14  and  C9_22
REMARK   10  A    between atoms: C9_22  and  O1_23
REMARK   11  A    between atoms: C9_22  and  C10_25
REMARK   12  A    between atoms: C10_25  and  O2_27
REMARK   13  A    between atoms: C12_32  and  N9_33
ROOT
HETATM    1  C5  UNL     1       5.583  84.453  -8.235  1.00  0.00     0.127 A
HETATM    2  C6  UNL     1       6.487  85.466  -8.359  1.00  0.00     0.197 A
HETATM    3  O3  UNL     1       7.142  85.239  -9.503  1.00  0.00    -0.216 OA
HETATM    4  N8  UNL     1       6.706  84.172 -10.078  1.00  0.00    -0.241 N
ATOM      5  H8  UNL     1       7.058  83.806 -10.963  1.00  0.00     0.196 HD
HETATM    6  C12 UNL     1       5.728  83.608  -9.359  1.00  0.00     0.150 A
ENDROOT
BRANCH   2   7
HETATM    7  N3  UNL     1       6.726  86.564  -7.488  1.00  0.00    -0.353 N
ATOM      8  H3  UNL     1       7.004  86.395  -6.521  1.00  0.00     0.162 HD
BRANCH   7   9
HETATM    9  C7  UNL     1       6.573  87.942  -7.980  1.00  0.00     0.184 C
BRANCH   9  10
HETATM   10  C8  UNL     1       5.168  88.345  -7.541  1.00  0.00     0.132 A
HETATM   11  N4  UNL     1       4.297  89.141  -8.152  1.00  0.00    -0.272 N
HETATM   12  N5  UNL     1       3.193  89.198  -7.387  1.00  0.00    -0.007 NA
ATOM     13  H4  UNL     1       4.440  89.622  -9.040  1.00  0.00     0.185 HD
HETATM   14  N6  UNL     1       3.364  88.450  -6.308  1.00  0.00    -0.007 NA
HETATM   15  N7  UNL     1       4.588  87.927  -6.412  1.00  0.00    -0.272 N
ATOM     16  H7  UNL     1       5.017  87.300  -5.730  1.00  0.00     0.185 HD
ENDBRANCH   9  10
BRANCH   9  17
HETATM   17  C9  UNL     1       7.452  88.925  -7.269  1.00  0.00     0.176 C
BRANCH  17  18
HETATM   18  O1  UNL     1       7.500  88.787  -5.891  1.00  0.00    -0.391 OA
ATOM     19  H1  UNL     1       6.702  89.023  -5.432  1.00  0.00     0.210 HD
ENDBRANCH  17  18
BRANCH  17  20
HETATM   20  C10 UNL     1       8.847  89.094  -7.778  1.00  0.00     0.145 C
HETATM   21  C11 UNL     1       9.095  88.354  -9.094  1.00  0.00     0.042 C
BRANCH  20  22
HETATM   22  O2  UNL     1       9.710  88.395  -6.871  1.00  0.00    -0.393 OA
ATOM     23  H2  UNL     1       9.365  87.514  -6.785  1.00  0.00     0.210 HD
ENDBRANCH  20  22
ENDBRANCH  17  20
ENDBRANCH   9  17
ENDBRANCH   7   9
ENDBRANCH   2   7
BRANCH   1  24
HETATM   24  N2  UNL     1       4.635  84.218  -7.210  1.00  0.00    -0.383 N
ATOM     25  H2  UNL     1       5.002  83.844  -6.336  1.00  0.00     0.159 HD
BRANCH  24  26
HETATM   26  C4  UNL     1       3.223  84.442  -7.256  1.00  0.00     0.121 C
BRANCH  26  27
HETATM   27  C3  UNL     1       2.459  83.216  -6.741  1.00  0.00     0.047 C
BRANCH  27  28
HETATM   28  C2  UNL     1       2.119  82.296  -7.866  1.00  0.00     0.233 C
BRANCH  28  29
HETATM   29  N1  UNL     1       1.848  80.944  -7.412  1.00  0.00    -0.079 N
HETATM   30  C1  UNL     1       1.140  80.878  -6.172  1.00  0.00     0.266 C
ATOM     31  H12 UNL     1       2.711  80.404  -7.361  1.00  0.00     0.276 HD
ATOM     32  H11 UNL     1       1.356  80.416  -8.133  1.00  0.00     0.276 HD
ENDBRANCH  28  29
ENDBRANCH  27  28
ENDBRANCH  26  27
ENDBRANCH  24  26
ENDBRANCH   1  24
BRANCH   6  33
HETATM   33  N9  UNL     1       5.053  82.542  -9.603  1.00  0.00    -0.382 N
ATOM     34  H92 UNL     1       4.870  81.743  -8.996  1.00  0.00     0.157 HD
ATOM     35  H91 UNL     1       4.574  82.315 -10.475  1.00  0.00     0.157 HD
ENDBRANCH   6  33
TORSDOF 13
ENDMDL