MODEL 2
REMARK VINA RESULT: -6.553869876      1.154      2.795
REMARK  13 active torsions:
REMARK  status: ('A' for Active; 'I' for Inactive)
REMARK    1  A    between atoms: N1_1  and  C1_4
REMARK    2  A    between atoms: C6_14  and  N5_15
REMARK    3  A    between atoms: N5_15  and  N6_17
REMARK    4  A    between atoms: N7_20  and  C7_21
REMARK    5  A    between atoms: C7_21  and  C8_22
REMARK    6  A    between atoms: C8_22  and  N8_23
REMARK    7  A    between atoms: N8_23  and  C9_24
REMARK    8  A    between atoms: N8_23  and  C11_28
REMARK    9  A    between atoms: C9_24  and  C10_25
REMARK   10  A    between atoms: C10_25  and  O1_26
REMARK   11  A    between atoms: C11_28  and  C12_29
REMARK   12  A    between atoms: C12_29  and  C13_30
REMARK   13  A    between atoms: C13_30  and  N9_31
ROOT
HETATM    1  C1  UNL     1       2.560  86.036  -7.404  1.00  0.00     0.115 A
HETATM    2  N2  UNL     1       2.574  84.665  -7.383  1.00  0.00    -0.338 N
ATOM      3  H2  UNL     1       1.715  84.118  -7.320  1.00  0.00     0.168 HD
HETATM    4  C2  UNL     1       3.779  84.085  -7.450  1.00  0.00     0.183 A
HETATM    5  N3  UNL     1       4.905  84.804  -7.533  1.00  0.00    -0.338 N
ATOM      6  H3  UNL     1       5.790  84.299  -7.582  1.00  0.00     0.168 HD
HETATM    7  C3  UNL     1       4.949  86.158  -7.558  1.00  0.00     0.126 A
HETATM    8  C4  UNL     1       3.712  86.782  -7.490  1.00  0.00     0.080 A
HETATM    9  C5  UNL     1       3.997  88.130  -7.519  1.00  0.00     0.109 A
HETATM   10  N4  UNL     1       3.032  89.169  -7.469  1.00  0.00    -0.097 NA
HETATM   11  C6  UNL     1       5.382  88.307  -7.602  1.00  0.00     0.149 A
HETATM   12  N7  UNL     1       5.913  87.075  -7.623  1.00  0.00    -0.314 N
ENDROOT
BRANCH  12  13
HETATM   13  C7  UNL     1       7.318  86.840  -7.736  1.00  0.00     0.162 C
BRANCH  13  14
HETATM   14  C8  UNL     1       7.929  87.025  -9.066  1.00  0.00     0.292 C
BRANCH  14  15
HETATM   15  N8  UNL     1       8.912  88.072  -9.208  1.00  0.00     0.092 N
BRANCH  15  16
HETATM   16  C9  UNL     1       9.364  88.479  -7.854  1.00  0.00     0.298 C
BRANCH  16  17
HETATM   17  C10 UNL     1      10.793  88.881  -7.834  1.00  0.00     0.194 C
BRANCH  17  18
HETATM   18  O1  UNL     1      11.316  88.527  -6.582  1.00  0.00    -0.399 OA
ATOM     19  H1  UNL     1      11.979  89.168  -6.355  1.00  0.00     0.209 HD
ENDBRANCH  17  18
ENDBRANCH  16  17
ENDBRANCH  15  16
BRANCH  15  20
HETATM   20  C11 UNL     1      10.110  87.598  -9.881  1.00  0.00     0.274 C
BRANCH  20  21
HETATM   21  C12 UNL     1      10.194  87.908 -11.331  1.00  0.00     0.057 C
BRANCH  21  22
HETATM   22  C13 UNL     1      10.963  89.235 -11.437  1.00  0.00     0.231 C
BRANCH  22  23
HETATM   23  N9  UNL     1      10.172  90.361 -11.066  1.00  0.00    -0.079 N
ATOM     24  H93 UNL     1      10.047  90.995 -11.854  1.00  0.00     0.274 HD
ATOM     25  H92 UNL     1       9.200  90.091 -10.915  1.00  0.00     0.274 HD
ATOM     26  H91 UNL     1      10.545  90.854 -10.254  1.00  0.00     0.274 HD
ENDBRANCH  22  23
ENDBRANCH  21  22
ENDBRANCH  20  21
ENDBRANCH  15  20
ENDBRANCH  14  15
ENDBRANCH  13  14
ENDBRANCH  12  13
BRANCH  11  27
HETATM   27  N5  UNL     1       5.969  89.588  -7.649  1.00  0.00    -0.290 N
ATOM     28  H5  UNL     1       5.877  90.102  -8.525  1.00  0.00     0.188 HD
BRANCH  27  29
HETATM   29  N6  UNL     1       6.656  90.216  -6.633  1.00  0.00    -0.344 N
ATOM     30  H62 UNL     1       6.109  90.428  -5.798  1.00  0.00     0.176 HD
ATOM     31  H61 UNL     1       7.640  90.483  -6.637  1.00  0.00     0.176 HD
ENDBRANCH  27  29
ENDBRANCH  11  27
BRANCH   1  32
HETATM   32  N1  UNL     1       1.397  86.549  -7.343  1.00  0.00    -0.385 N
ATOM     33  H12 UNL     1       1.225  87.517  -7.068  1.00  0.00     0.157 HD
ATOM     34  H11 UNL     1       0.643  85.911  -7.596  1.00  0.00     0.157 HD
ENDBRANCH   1  32
TORSDOF 13
ENDMDL