MODEL 2
REMARK VINA RESULT: -7.066754887      2.162      7.355
REMARK  14 active torsions:
REMARK  status: ('A' for Active; 'I' for Inactive)
REMARK    1  A    between atoms: C2_2  and  C4_4
REMARK    2  A    between atoms: C4_4  and  C5_5
REMARK    3  A    between atoms: C5_5  and  O1_6
REMARK    4  A    between atoms: C5_5  and  N1_8
REMARK    5  A    between atoms: N1_8  and  C6_10
REMARK    6  A    between atoms: C6_10  and  C8_13
REMARK    7  A    between atoms: C8_13  and  N3_14
REMARK    8  A    between atoms: N3_14  and  C9_17
REMARK    9  A    between atoms: C9_17  and  O2_18
REMARK   10  A    between atoms: C9_17  and  N4_20
REMARK   11  A    between atoms: N4_20  and  C10_23
REMARK   12  A    between atoms: C10_23  and  C11_24
REMARK   13  A    between atoms: C10_23  and  C12_27
REMARK   14  A    between atoms: C11_24  and  O3_25
ROOT
HETATM    1  C6  UNL     1       6.709  87.685  -7.755  1.00  0.00     0.216 C
HETATM    2  C7  UNL     1       5.451  87.614  -7.053  1.00  0.00     0.086 C
HETATM    3  N2  UNL     1       4.438  87.525  -6.500  1.00  0.00    -0.195 NA
ENDROOT
BRANCH   1   4
HETATM    4  N1  UNL     1       7.815  88.286  -7.138  1.00  0.00    -0.356 N
ATOM      5  H1  UNL     1       7.721  88.606  -6.174  1.00  0.00     0.162 HD
BRANCH   4   6
HETATM    6  C5  UNL     1       9.036  88.466  -7.781  1.00  0.00     0.112 C
BRANCH   6   7
HETATM    7  C4  UNL     1       9.248  89.430  -8.865  1.00  0.00     0.087 C
BRANCH   7   8
HETATM    8  C2  UNL     1       9.961  88.976 -10.092  1.00  0.00    -0.015 C
HETATM    9  C1  UNL     1      11.335  89.566 -10.227  1.00  0.00     0.010 C
HETATM   10  C3  UNL     1       9.954  87.490 -10.291  1.00  0.00     0.010 C
ENDBRANCH   7   8
ENDBRANCH   6   7
BRANCH   6  11
HETATM   11  O1  UNL     1      10.109  88.415  -6.868  1.00  0.00    -0.350 OA
ATOM     12  H1  UNL     1      10.819  89.007  -7.091  1.00  0.00     0.219 HD
ENDBRANCH   6  11
ENDBRANCH   4   6
ENDBRANCH   1   4
BRANCH   1  13
HETATM   13  C8  UNL     1       7.082  86.274  -8.269  1.00  0.00     0.277 C
BRANCH  13  14
HETATM   14  N3  UNL     1       6.143  85.344  -7.719  1.00  0.00    -0.020 N
ATOM     15  H32 UNL     1       5.765  85.675  -6.832  1.00  0.00     0.282 HD
ATOM     16  H31 UNL     1       5.278  85.323  -8.259  1.00  0.00     0.282 HD
BRANCH  14  17
HETATM   17  C9  UNL     1       6.728  84.010  -7.590  1.00  0.00     0.522 C
BRANCH  17  18
HETATM   18  O2  UNL     1       6.345  83.597  -6.283  1.00  0.00    -0.349 OA
ATOM     19  H2  UNL     1       5.442  83.321  -6.389  1.00  0.00     0.213 HD
ENDBRANCH  17  18
BRANCH  17  20
HETATM   20  N4  UNL     1       6.173  83.123  -8.564  1.00  0.00    -0.011 N
ATOM     21  H42 UNL     1       6.824  82.956  -9.331  1.00  0.00     0.283 HD
ATOM     22  H41 UNL     1       6.105  82.171  -8.205  1.00  0.00     0.283 HD
BRANCH  20  23
HETATM   23  C10 UNL     1       4.908  83.596  -9.042  1.00  0.00     0.273 C
BRANCH  23  24
HETATM   24  C11 UNL     1       4.854  83.583 -10.543  1.00  0.00     0.204 C
BRANCH  24  25
HETATM   25  O3  UNL     1       6.078  84.023 -11.034  1.00  0.00    -0.398 OA
ATOM     26  H3  UNL     1       6.691  84.084 -10.311  1.00  0.00     0.209 HD
ENDBRANCH  24  25
ENDBRANCH  23  24
BRANCH  23  27
HETATM   27  C12 UNL     1       3.785  82.766  -8.477  1.00  0.00     0.110 A
HETATM   28  C13 UNL     1       2.986  83.096  -7.425  1.00  0.00     0.056 A
HETATM   29  C14 UNL     1       2.108  82.043  -7.271  1.00  0.00     0.117 A
HETATM   30  N5  UNL     1       2.415  81.128  -8.232  1.00  0.00    -0.272 N
HETATM   31  O4  UNL     1       3.418  81.588  -8.932  1.00  0.00    -0.241 OA
ATOM     32  H5  UNL     1       1.942  80.236  -8.379  1.00  0.00     0.193 HD
ENDBRANCH  23  27
ENDBRANCH  20  23
ENDBRANCH  17  20
ENDBRANCH  14  17
ENDBRANCH  13  14
ENDBRANCH   1  13
TORSDOF 14
ENDMDL