MODEL 2
REMARK VINA RESULT: -6.125301581      3.198      8.005
REMARK  12 active torsions:
REMARK  status: ('A' for Active; 'I' for Inactive)
REMARK    1  A    between atoms: N1_1  and  C1_4
REMARK    2  A    between atoms: N5_15  and  C5_16
REMARK    3  A    between atoms: C5_16  and  C6_17
REMARK    4  A    between atoms: C6_17  and  S1_18
REMARK    5  A    between atoms: S1_18  and  S2_19
REMARK    6  A    between atoms: S2_19  and  C7_20
REMARK    7  A    between atoms: C7_20  and  C8_21
REMARK    8  A    between atoms: C8_21  and  N6_22
REMARK    9  A    between atoms: N6_22  and  C9_24
REMARK   10  A    between atoms: C9_24  and  C10_25
REMARK   11  A    between atoms: C10_25  and  N7_26
REMARK   12  A    between atoms: N7_26  and  N8_27
ROOT
HETATM    1  C1  UNL     1       5.677  83.966  -7.761  1.00  0.00     0.679 A
HETATM    2  N2  UNL     1       4.492  83.427  -8.095  1.00  0.00    -0.175 N
ATOM      3  H2  UNL     1       4.456  82.442  -8.358  1.00  0.00     0.186 HD
HETATM    4  C2  UNL     1       3.370  84.126  -8.094  1.00  0.00     0.145 A
HETATM    5  N3  UNL     1       2.247  83.581  -8.416  1.00  0.00    -0.383 N
ATOM      6  H31 UNL     1       1.382  84.121  -8.416  1.00  0.00     0.157 HD
ATOM      7  H32 UNL     1       2.203  82.597  -8.681  1.00  0.00     0.157 HD
HETATM    8  C3  UNL     1       3.429  85.458  -7.735  1.00  0.00     0.123 A
HETATM    9  N4  UNL     1       2.500  86.424  -7.633  1.00  0.00    -0.346 N
ATOM     10  H4  UNL     1       1.505  86.307  -7.825  1.00  0.00     0.167 HD
HETATM   11  C4  UNL     1       3.086  87.573  -7.236  1.00  0.00     0.185 A
HETATM   12  N5  UNL     1       4.409  87.349  -7.079  1.00  0.00    -0.326 N
HETATM   13  C11 UNL     1       4.626  86.063  -7.382  1.00  0.00     0.155 A
HETATM   14  N9  UNL     1       5.734  85.267  -7.411  1.00  0.00    -0.174 N
ATOM     15  H9  UNL     1       6.636  85.670  -7.159  1.00  0.00     0.186 HD
ENDROOT
BRANCH  12  16
HETATM   16  C5  UNL     1       5.406  88.326  -6.656  1.00  0.00     0.142 C
BRANCH  16  17
HETATM   17  C6  UNL     1       6.118  88.820  -7.882  1.00  0.00     0.106 C
BRANCH  17  18
HETATM   18  S1  UNL     1       7.747  88.123  -8.136  1.00  0.00    -0.096 SA
BRANCH  18  19
HETATM   19  S2  UNL     1       9.256  89.587  -8.142  1.00  0.00    -0.096 SA
BRANCH  19  20
HETATM   20  C7  UNL     1      10.883  88.858  -7.814  1.00  0.00     0.105 C
BRANCH  20  21
HETATM   21  C8  UNL     1      11.938  89.425  -8.745  1.00  0.00     0.124 C
BRANCH  21  22
HETATM   22  N6  UNL     1      11.373  90.009  -9.921  1.00  0.00    -0.419 N
ATOM     23  H6  UNL     1      10.859  90.890  -9.885  1.00  0.00     0.153 HD
BRANCH  22  24
HETATM   24  C9  UNL     1      11.557  89.314 -11.135  1.00  0.00     0.131 C
BRANCH  24  25
HETATM   25  C10 UNL     1      10.315  88.719 -11.737  1.00  0.00     0.153 C
BRANCH  25  26
HETATM   26  N7  UNL     1      10.457  87.268 -11.856  1.00  0.00    -0.147 NA
BRANCH  26  27
HETATM   27  N8  UNL     1       9.988  86.618 -10.715  1.00  0.00    -0.348 N
ATOM     28  H82 UNL     1      10.522  86.544  -9.849  1.00  0.00     0.172 HD
ATOM     29  H81 UNL     1       9.055  86.235 -10.865  1.00  0.00     0.172 HD
ENDBRANCH  26  27
ENDBRANCH  25  26
ENDBRANCH  24  25
ENDBRANCH  22  24
ENDBRANCH  21  22
ENDBRANCH  20  21
ENDBRANCH  19  20
ENDBRANCH  18  19
ENDBRANCH  17  18
ENDBRANCH  16  17
ENDBRANCH  12  16
BRANCH   1  30
HETATM   30  N1  UNL     1       6.763  83.233  -7.778  1.00  0.00    -0.234 N
ATOM     31  H12 UNL     1       7.519  83.441  -8.431  1.00  0.00     0.174 HD
ATOM     32  H11 UNL     1       6.862  82.446  -7.137  1.00  0.00     0.174 HD
ENDBRANCH   1  30
TORSDOF 12
ENDMDL