MODEL 5
REMARK VINA RESULT: -6.770870327      0.903      1.345
REMARK  12 active torsions:
REMARK  status: ('A' for Active; 'I' for Inactive)
REMARK    1  A    between atoms: C2_2  and  C3_3
REMARK    2  A    between atoms: C3_3  and  C4_4
REMARK    3  A    between atoms: C4_4  and  N1_6
REMARK    4  A    between atoms: N1_6  and  C6_8
REMARK    5  A    between atoms: C9_13  and  N3_14
REMARK    6  A    between atoms: N3_14  and  C10_16
REMARK    7  A    between atoms: C10_16  and  O1_17
REMARK    8  A    between atoms: C10_16  and  C11_19
REMARK    9  A    between atoms: C11_19  and  N4_20
REMARK   10  A    between atoms: C11_19  and  C12_24
REMARK   11  A    between atoms: C12_24  and  O2_25
REMARK   12  A    between atoms: C14_28  and  N5_29
REMARK       I    between atoms: N5_29  and  C15_31
REMARK       I    between atoms: C15_31  and  N6_32
REMARK       I    between atoms: C15_31  and  N7_36
ROOT
HETATM    1  C6  UNL     1       3.687  86.565  -7.895  1.00  0.00     0.056 C
HETATM    2  C7  UNL     1       3.165  87.758  -7.445  1.00  0.00     0.048 C
HETATM    3  C8  UNL     1       3.768  89.013  -7.513  1.00  0.00     0.092 C
HETATM    4  N2  UNL     1       5.085  89.290  -7.684  1.00  0.00    -0.352 N
ATOM      5  H2  UNL     1       5.290  90.285  -7.787  1.00  0.00     0.166 HD
HETATM    6  C9  UNL     1       6.160  88.505  -7.743  1.00  0.00     0.104 C
HETATM    7  C13 UNL     1       6.143  87.109  -7.616  1.00  0.00     0.079 C
HETATM    8  C14 UNL     1       5.068  86.279  -7.863  1.00  0.00     0.061 C
ENDROOT
BRANCH   6   9
HETATM    9  N3  UNL     1       7.440  89.082  -7.951  1.00  0.00    -0.348 N
ATOM     10  H3  UNL     1       7.510  90.096  -8.039  1.00  0.00     0.163 HD
BRANCH   9  11
HETATM   11  C10 UNL     1       8.647  88.295  -8.042  1.00  0.00     0.251 C
BRANCH  11  12
HETATM   12  O1  UNL     1       9.343  88.343  -6.856  1.00  0.00    -0.375 OA
ATOM     13  H1  UNL     1      10.258  88.541  -7.016  1.00  0.00     0.212 HD
ENDBRANCH  11  12
BRANCH  11  14
HETATM   14  C11 UNL     1       9.489  88.688  -9.226  1.00  0.00     0.255 C
BRANCH  14  15
HETATM   15  N4  UNL     1       9.998  87.524  -9.909  1.00  0.00    -0.069 N
ATOM     16  H43 UNL     1      10.597  86.964  -9.303  1.00  0.00     0.275 HD
ATOM     17  H42 UNL     1       9.263  86.837 -10.080  1.00  0.00     0.275 HD
ATOM     18  H41 UNL     1      10.476  87.784 -10.772  1.00  0.00     0.275 HD
ENDBRANCH  14  15
BRANCH  14  19
HETATM   19  C12 UNL     1      10.660  89.511  -8.720  1.00  0.00     0.201 C
BRANCH  19  20
HETATM   20  O2  UNL     1      10.269  90.666  -8.088  1.00  0.00    -0.399 OA
ATOM     21  H2  UNL     1      10.575  91.451  -8.527  1.00  0.00     0.209 HD
ENDBRANCH  19  20
ENDBRANCH  14  19
ENDBRANCH  11  14
ENDBRANCH   9  11
ENDBRANCH   6   9
BRANCH   8  22
HETATM   22  N5  UNL     1       5.365  85.054  -8.105  1.00  0.00    -0.339 N
HETATM   23  C15 UNL     1       6.353  84.277  -7.414  1.00  0.00     0.480 C
HETATM   24  N6  UNL     1       5.840  83.691  -6.183  1.00  0.00    -0.033 N
HETATM   25  N7  UNL     1       6.815  83.151  -8.211  1.00  0.00    -0.033 N
ATOM     26  H63 UNL     1       5.444  84.407  -5.574  1.00  0.00     0.278 HD
ATOM     27  H62 UNL     1       4.998  83.142  -6.360  1.00  0.00     0.278 HD
ATOM     28  H61 UNL     1       6.542  83.139  -5.692  1.00  0.00     0.278 HD
ATOM     29  H73 UNL     1       6.035  82.570  -8.518  1.00  0.00     0.278 HD
ATOM     30  H72 UNL     1       7.157  83.458  -9.121  1.00  0.00     0.278 HD
ATOM     31  H71 UNL     1       7.517  82.599  -7.719  1.00  0.00     0.278 HD
ATOM     32  H5  UNL     1       4.852  84.592  -8.856  1.00  0.00     0.163 HD
ENDBRANCH   8  22
BRANCH   1  33
HETATM   33  N1  UNL     1       2.860  85.570  -8.407  1.00  0.00    -0.384 N
ATOM     34  H1  UNL     1       3.283  84.991  -9.131  1.00  0.00     0.160 HD
BRANCH  33  35
HETATM   35  C4  UNL     1       1.519  85.233  -8.080  1.00  0.00     0.081 C
HETATM   36  C5  UNL     1       0.852  84.542  -9.245  1.00  0.00     0.032 C
BRANCH  35  37
HETATM   37  C3  UNL     1       1.327  84.575  -6.760  1.00  0.00     0.051 C
BRANCH  37  38
HETATM   38  C2  UNL     1       0.283  85.155  -5.887  1.00  0.00    -0.035 C
HETATM   39  C1  UNL     1       0.137  86.448  -5.668  1.00  0.00     0.007 C
ENDBRANCH  37  38
ENDBRANCH  35  37
ENDBRANCH  33  35
ENDBRANCH   1  33
TORSDOF 12
ENDMDL