MODEL 5
REMARK VINA RESULT: -6.478243791      1.235      1.807
REMARK  13 active torsions:
REMARK  status: ('A' for Active; 'I' for Inactive)
REMARK    1  A    between atoms: N1_1  and  C1_5
REMARK    2  A    between atoms: C1_5  and  C2_6
REMARK    3  A    between atoms: C2_6  and  N2_7
REMARK    4  A    between atoms: N2_7  and  C3_10
REMARK    5  A    between atoms: C3_10  and  C4_11
REMARK    6  A    between atoms: C4_11  and  N3_12
REMARK    7  A    between atoms: C5_19  and  C6_20
REMARK    8  A    between atoms: C6_20  and  N7_21
REMARK    9  A    between atoms: N7_21  and  C7_23
REMARK   10  A    between atoms: C10_29  and  N10_30
REMARK   11  A    between atoms: N10_30  and  C11_32
REMARK   12  A    between atoms: C11_32  and  C12_33
REMARK   13  A    between atoms: C12_33  and  O1_34
ROOT
HETATM    1  N3  UNL     1       5.144  87.336  -7.162  1.00  0.00    -0.260 N
HETATM    2  N4  UNL     1       4.397  88.301  -6.617  1.00  0.00    -0.225 N
ATOM      3  H4  UNL     1       3.474  88.192  -6.195  1.00  0.00     0.210 HD
HETATM    4  N5  UNL     1       5.083  89.418  -6.729  1.00  0.00    -0.227 N
ATOM      5  H5  UNL     1       4.771  90.333  -6.403  1.00  0.00     0.210 HD
HETATM    6  N6  UNL     1       6.234  89.176  -7.327  1.00  0.00    -0.271 N
ATOM      7  H6  UNL     1       6.955  89.867  -7.537  1.00  0.00     0.190 HD
HETATM    8  C5  UNL     1       6.294  87.853  -7.613  1.00  0.00     0.133 A
ENDROOT
BRANCH   8   9
HETATM    9  C6  UNL     1       7.398  87.124  -8.296  1.00  0.00     0.201 C
BRANCH   9  10
HETATM   10  N7  UNL     1       8.551  87.991  -8.343  1.00  0.00    -0.367 N
ATOM     11  H7  UNL     1       8.807  88.525  -7.512  1.00  0.00     0.161 HD
BRANCH  10  12
HETATM   12  C7  UNL     1       9.338  88.119  -9.520  1.00  0.00     0.129 A
HETATM   13  N8  UNL     1       9.354  87.272 -10.589  1.00  0.00    -0.329 N
HETATM   14  C8  UNL     1      10.223  87.731 -11.523  1.00  0.00     0.120 A
ATOM     15  H8  UNL     1       8.797  86.421 -10.672  1.00  0.00     0.168 HD
HETATM   16  N9  UNL     1      10.508  87.126 -12.767  1.00  0.00    -0.083 NA
HETATM   17  C9  UNL     1      10.772  88.902 -11.028  1.00  0.00     0.078 A
HETATM   18  C10 UNL     1      10.221  89.145  -9.781  1.00  0.00     0.075 A
BRANCH  18  19
HETATM   19  N10 UNL     1      10.542  90.270  -8.963  1.00  0.00    -0.385 N
ATOM     20  H10 UNL     1       9.903  91.065  -8.925  1.00  0.00     0.159 HD
BRANCH  19  21
HETATM   21  C11 UNL     1      11.766  90.297  -8.187  1.00  0.00     0.146 C
BRANCH  21  22
HETATM   22  C12 UNL     1      12.112  88.885  -7.719  1.00  0.00     0.183 C
BRANCH  22  23
HETATM   23  O1  UNL     1      11.405  88.589  -6.566  1.00  0.00    -0.399 OA
ATOM     24  H1  UNL     1      11.215  87.659  -6.537  1.00  0.00     0.209 HD
ENDBRANCH  22  23
ENDBRANCH  21  22
ENDBRANCH  19  21
ENDBRANCH  18  19
ENDBRANCH  10  12
ENDBRANCH   9  10
ENDBRANCH   8   9
BRANCH   1  25
HETATM   25  C4  UNL     1       4.724  85.940  -7.217  1.00  0.00     0.179 C
BRANCH  25  26
HETATM   26  C3  UNL     1       3.448  85.829  -7.995  1.00  0.00     0.254 C
BRANCH  26  27
HETATM   27  N2  UNL     1       2.422  85.145  -7.245  1.00  0.00    -0.072 N
ATOM     28  H22 UNL     1       2.667  85.048  -6.259  1.00  0.00     0.277 HD
ATOM     29  H21 UNL     1       2.369  84.154  -7.480  1.00  0.00     0.277 HD
BRANCH  27  30
HETATM   30  C2  UNL     1       1.168  85.810  -7.427  1.00  0.00     0.259 C
BRANCH  30  31
HETATM   31  C1  UNL     1       0.929  86.897  -6.395  1.00  0.00     0.257 C
BRANCH  31  32
HETATM   32  N1  UNL     1       0.986  88.219  -6.988  1.00  0.00    -0.078 N
ATOM     33  H13 UNL     1       1.156  88.936  -6.283  1.00  0.00     0.274 HD
ATOM     34  H12 UNL     1       1.831  88.340  -7.545  1.00  0.00     0.274 HD
ATOM     35  H11 UNL     1       0.148  88.424  -7.532  1.00  0.00     0.274 HD
ENDBRANCH  31  32
ENDBRANCH  30  31
ENDBRANCH  27  30
ENDBRANCH  26  27
ENDBRANCH  25  26
ENDBRANCH   1  25
TORSDOF 13
ENDMDL