MODEL 2
REMARK VINA RESULT: -5.314741553      2.822      4.838
REMARK  8 active torsions:
REMARK  status: ('A' for Active; 'I' for Inactive)
REMARK    1  A    between atoms: N1_1  and  C1_5
REMARK    2  A    between atoms: C1_5  and  C2_6
REMARK    3  A    between atoms: C2_6  and  C3_7
REMARK    4  A    between atoms: C3_7  and  C4_8
REMARK    5  A    between atoms: C3_7  and  C9_13
REMARK    6  A    between atoms: C4_8  and  C5_9
REMARK    7  A    between atoms: C5_9  and  C6_10
REMARK    8  A    between atoms: C9_13  and  C10_14
ROOT
HETATM    1  C3  UNL     1     -24.588   8.436 -19.023  1.00  0.00    -0.013 C
ENDROOT
BRANCH   1   2
HETATM    2  C2  UNL     1     -24.778   9.504 -20.083  1.00  0.00     0.032 C
BRANCH   2   3
HETATM    3  C1  UNL     1     -25.932   9.398 -20.981  1.00  0.00     0.230 C
BRANCH   3   4
HETATM    4  N1  UNL     1     -25.642   9.102 -22.367  1.00  0.00    -0.079 N
ATOM      5  H13 UNL     1     -25.585   9.970 -22.899  1.00  0.00     0.274 HD
ATOM      6  H12 UNL     1     -24.683   8.767 -22.453  1.00  0.00     0.274 HD
ATOM      7  H11 UNL     1     -26.276   8.454 -22.833  1.00  0.00     0.274 HD
ENDBRANCH   3   4
ENDBRANCH   2   3
ENDBRANCH   1   2
BRANCH   1   8
HETATM    8  C4  UNL     1     -25.742   8.329 -18.137  1.00  0.00     0.005 C
BRANCH   8   9
HETATM    9  C5  UNL     1     -26.582   7.125 -18.134  1.00  0.00     0.005 C
BRANCH   9  10
HETATM   10  C6  UNL     1     -26.776   6.306 -16.923  1.00  0.00    -0.014 A
HETATM   11  C7  UNL     1     -25.735   5.938 -15.952  1.00  0.00     0.005 A
HETATM   12  C8  UNL     1     -26.013   4.942 -17.001  1.00  0.00     0.005 A
ENDBRANCH   9  10
ENDBRANCH   8   9
ENDBRANCH   1   8
BRANCH   1  13
HETATM   13  C9  UNL     1     -24.159   7.135 -19.612  1.00  0.00     0.009 C
BRANCH  13  14
HETATM   14  C10 UNL     1     -22.750   6.736 -19.212  1.00  0.00    -0.014 A
HETATM   15  C11 UNL     1     -22.672   5.274 -18.765  1.00  0.00     0.005 A
HETATM   16  C12 UNL     1     -22.578   6.338 -17.764  1.00  0.00     0.005 A
ENDBRANCH  13  14
ENDBRANCH   1  13
TORSDOF 8
ENDMDL