MODEL 4
REMARK VINA RESULT: -5.361672436      0.968      1.386
REMARK  7 active torsions:
REMARK  status: ('A' for Active; 'I' for Inactive)
REMARK    1  A    between atoms: C2_2  and  C3_3
REMARK    2  A    between atoms: C3_3  and  C4_4
REMARK    3  A    between atoms: C4_4  and  C5_5
REMARK    4  A    between atoms: C4_4  and  C8_8
REMARK    5  A    between atoms: C5_5  and  C6_6
REMARK    6  A    between atoms: C8_8  and  C9_9
REMARK    7  A    between atoms: C9_9  and  C10_10
ROOT
HETATM    1  C8  UNL     1     -26.387   5.152 -15.729  1.00  0.00     0.005 C
ENDROOT
BRANCH   1   2
HETATM    2  C4  UNL     1     -25.160   5.280 -16.557  1.00  0.00    -0.014 C
BRANCH   2   3
HETATM    3  C3  UNL     1     -24.585   6.683 -16.551  1.00  0.00     0.004 C
BRANCH   3   4
HETATM    4  C2  UNL     1     -24.587   7.285 -17.938  1.00  0.00    -0.004 C
HETATM    5  C1  UNL     1     -25.293   8.628 -17.946  1.00  0.00     0.005 C
ENDBRANCH   3   4
ENDBRANCH   2   3
BRANCH   2   6
HETATM    6  C5  UNL     1     -24.124   4.256 -16.230  1.00  0.00     0.004 C
BRANCH   6   7
HETATM    7  C6  UNL     1     -23.420   3.732 -17.459  1.00  0.00    -0.004 C
HETATM    8  C7  UNL     1     -24.463   3.456 -18.525  1.00  0.00     0.005 C
ENDBRANCH   6   7
ENDBRANCH   2   6
ENDBRANCH   1   2
BRANCH   1   9
HETATM    9  C9  UNL     1     -27.556   5.955 -16.218  1.00  0.00     0.008 C
BRANCH   9  10
HETATM   10  C10 UNL     1     -28.026   6.779 -15.028  1.00  0.00     0.037 C
HETATM   11  C11 UNL     1     -29.504   6.687 -14.756  1.00  0.00     0.238 C
HETATM   12  N1  UNL     1     -29.672   8.117 -14.962  1.00  0.00    -0.074 N
HETATM   13  C12 UNL     1     -28.316   8.204 -15.416  1.00  0.00     0.238 C
ATOM     14  H12 UNL     1     -30.431   8.463 -15.549  1.00  0.00     0.277 HD
ATOM     15  H11 UNL     1     -29.996   8.711 -14.198  1.00  0.00     0.277 HD
ENDBRANCH   9  10
ENDBRANCH   1   9
TORSDOF 7
ENDMDL