MODEL 4
REMARK VINA RESULT: -5.674136662      2.322      4.790
REMARK  7 active torsions:
REMARK  status: ('A' for Active; 'I' for Inactive)
REMARK    1  A    between atoms: C2_2  and  C3_3
REMARK    2  A    between atoms: C3_3  and  C4_4
REMARK    3  A    between atoms: C4_4  and  C5_5
REMARK    4  A    between atoms: C5_5  and  C6_6
REMARK    5  A    between atoms: C5_5  and  C7_11
REMARK    6  A    between atoms: C6_6  and  N1_7
REMARK    7  A    between atoms: C7_11  and  C8_12
ROOT
HETATM    1  C5  UNL     1     -21.437   4.342 -17.960  1.00  0.00     0.015 C
ENDROOT
BRANCH   1   2
HETATM    2  C4  UNL     1     -21.907   3.638 -19.187  1.00  0.00     0.010 C
BRANCH   2   3
HETATM    3  C3  UNL     1     -22.858   2.524 -18.852  1.00  0.00     0.027 C
BRANCH   3   4
HETATM    4  C2  UNL     1     -24.071   2.609 -19.742  1.00  0.00    -0.037 C
HETATM    5  C1  UNL     1     -25.198   3.148 -19.335  1.00  0.00     0.007 C
ENDBRANCH   3   4
ENDBRANCH   2   3
ENDBRANCH   1   2
BRANCH   1   6
HETATM    6  C6  UNL     1     -19.982   4.086 -17.633  1.00  0.00     0.234 C
BRANCH   6   7
HETATM    7  N1  UNL     1     -19.942   3.589 -16.273  1.00  0.00    -0.079 N
ATOM      8  H13 UNL     1     -20.271   4.268 -15.586  1.00  0.00     0.274 HD
ATOM      9  H12 UNL     1     -20.641   2.870 -16.087  1.00  0.00     0.274 HD
ATOM     10  H11 UNL     1     -18.987   3.275 -16.104  1.00  0.00     0.274 HD
ENDBRANCH   6   7
ENDBRANCH   1   6
BRANCH   1  11
HETATM   11  C7  UNL     1     -22.224   3.993 -16.730  1.00  0.00     0.045 C
BRANCH  11  12
HETATM   12  C8  UNL     1     -23.467   4.786 -16.564  1.00  0.00    -0.058 A
HETATM   13  C9  UNL     1     -24.567   4.298 -15.881  1.00  0.00     0.007 A
HETATM   14  C10 UNL     1     -25.729   5.049 -15.735  1.00  0.00     0.001 A
HETATM   15  C11 UNL     1     -25.775   6.318 -16.293  1.00  0.00     0.000 A
HETATM   16  C12 UNL     1     -24.696   6.836 -16.981  1.00  0.00     0.001 A
HETATM   17  C13 UNL     1     -23.559   6.044 -17.099  1.00  0.00     0.007 A
ENDBRANCH  11  12
ENDBRANCH   1  11
TORSDOF 7
ENDMDL