MODEL 5
REMARK VINA RESULT: -4.899615891      1.691      3.883
REMARK  7 active torsions:
REMARK  status: ('A' for Active; 'I' for Inactive)
REMARK    1  A    between atoms: C2_2  and  C3_3
REMARK    2  A    between atoms: C3_3  and  N1_4
REMARK    3  A    between atoms: N1_4  and  C4_6
REMARK    4  A    between atoms: C4_6  and  C5_7
REMARK    5  A    between atoms: C4_6  and  C10_12
REMARK    6  A    between atoms: C5_7  and  C7_9
REMARK    7  A    between atoms: C7_9  and  C8_10
ROOT
HETATM    1  C4  UNL     1     -22.619   4.345 -19.508  1.00  0.00     0.088 C
ENDROOT
BRANCH   1   2
HETATM    2  N1  UNL     1     -23.571   4.671 -20.480  1.00  0.00    -0.394 N
ATOM      3  H1  UNL     1     -23.559   4.093 -21.320  1.00  0.00     0.159 HD
BRANCH   2   4
HETATM    4  C3  UNL     1     -24.519   5.661 -20.455  1.00  0.00     0.082 C
BRANCH   4   5
HETATM    5  C2  UNL     1     -24.345   6.491 -19.234  1.00  0.00     0.006 C
HETATM    6  C1  UNL     1     -23.977   7.744 -19.325  1.00  0.00     0.012 C
ENDBRANCH   4   5
ENDBRANCH   2   4
ENDBRANCH   1   2
BRANCH   1   7
HETATM    7  C5  UNL     1     -22.797   2.966 -18.947  1.00  0.00     0.004 C
HETATM    8  C6  UNL     1     -24.007   2.282 -19.492  1.00  0.00     0.012 C
BRANCH   7   9
HETATM    9  C7  UNL     1     -22.704   2.838 -17.467  1.00  0.00     0.006 C
BRANCH   9  10
HETATM   10  C8  UNL     1     -22.792   4.169 -16.708  1.00  0.00    -0.004 C
HETATM   11  C9  UNL     1     -24.228   4.234 -16.165  1.00  0.00     0.005 C
ENDBRANCH   9  10
ENDBRANCH   7   9
ENDBRANCH   1   7
BRANCH   1  12
HETATM   12  C10 UNL     1     -21.279   4.688 -20.064  1.00  0.00     0.009 A
HETATM   13  C11 UNL     1     -19.973   4.370 -19.534  1.00  0.00     0.007 A
HETATM   14  C12 UNL     1     -20.499   5.756 -19.290  1.00  0.00     0.007 A
ENDBRANCH   1  12
TORSDOF 7
ENDMDL