MODEL 2
REMARK VINA RESULT: -5.893556901      1.141      3.468
REMARK  6 active torsions:
REMARK  status: ('A' for Active; 'I' for Inactive)
REMARK    1  A    between atoms: C2_2  and  C3_3
REMARK    2  A    between atoms: C3_3  and  C4_4
REMARK    3  A    between atoms: C4_4  and  N1_5
REMARK    4  A    between atoms: N1_5  and  C5_7
REMARK    5  A    between atoms: N2_12  and  C10_13
REMARK    6  A    between atoms: C10_13  and  C11_14
ROOT
HETATM    1  C5  UNL     1     -26.877   5.573 -16.390  1.00  0.00     0.102 A
HETATM    2  C6  UNL     1     -27.534   5.035 -15.270  1.00  0.00     0.048 A
HETATM    3  C7  UNL     1     -28.537   5.734 -14.648  1.00  0.00     0.005 A
HETATM    4  C8  UNL     1     -28.877   6.971 -15.154  1.00  0.00     0.017 A
HETATM    5  C9  UNL     1     -28.222   7.477 -16.247  1.00  0.00     0.092 A
HETATM    6  N2  UNL     1     -27.218   6.775 -16.867  1.00  0.00    -0.344 N
ENDROOT
BRANCH   1   7
HETATM    7  N1  UNL     1     -25.856   4.815 -17.013  1.00  0.00    -0.376 N
ATOM      8  H1  UNL     1     -25.919   4.545 -17.994  1.00  0.00     0.161 HD
BRANCH   7   9
HETATM    9  C4  UNL     1     -24.710   4.438 -16.190  1.00  0.00     0.121 C
BRANCH   9  10
HETATM   10  C3  UNL     1     -23.425   4.460 -16.978  1.00  0.00     0.019 C
BRANCH  10  11
HETATM   11  C2  UNL     1     -23.006   5.887 -17.225  1.00  0.00    -0.003 C
HETATM   12  C1  UNL     1     -22.606   6.106 -18.673  1.00  0.00     0.005 C
ENDBRANCH  10  11
ENDBRANCH   9  10
ENDBRANCH   7   9
ENDBRANCH   1   7
BRANCH   6  13
HETATM   13  C10 UNL     1     -26.535   7.326 -17.986  1.00  0.00     0.129 C
BRANCH  13  14
HETATM   14  C11 UNL     1     -25.600   8.453 -17.663  1.00  0.00     0.016 C
HETATM   15  C12 UNL     1     -24.946   9.028 -18.899  1.00  0.00     0.006 C
ENDBRANCH  13  14
ENDBRANCH   6  13
TORSDOF 6
ENDMDL