MODEL 1
REMARK VINA RESULT: -4.859240736      0.000      0.000
REMARK  7 active torsions:
REMARK  status: ('A' for Active; 'I' for Inactive)
REMARK    1  A    between atoms: C2_2  and  C3_3
REMARK    2  A    between atoms: C3_3  and  C4_4
REMARK    3  A    between atoms: C4_4  and  C5_5
REMARK    4  A    between atoms: C5_5  and  C6_6
REMARK    5  A    between atoms: C6_6  and  N1_7
REMARK    6  A    between atoms: N1_7  and  C7_9
REMARK    7  A    between atoms: C7_9  and  C9_11
ROOT
HETATM    1  C5  UNL     1     -24.001   4.356 -18.814  1.00  0.00     0.029 C
ENDROOT
BRANCH   1   2
HETATM    2  C4  UNL     1     -23.744   4.979 -17.467  1.00  0.00    -0.036 A
HETATM    3  C11 UNL     1     -24.317   4.252 -16.285  1.00  0.00     0.010 A
HETATM    4  C12 UNL     1     -22.842   4.332 -16.493  1.00  0.00     0.010 A
BRANCH   2   5
HETATM    5  C3  UNL     1     -23.909   6.495 -17.497  1.00  0.00     0.036 C
BRANCH   5   6
HETATM    6  C2  UNL     1     -24.454   6.973 -18.776  1.00  0.00    -0.036 C
HETATM    7  C1  UNL     1     -24.173   8.138 -19.320  1.00  0.00     0.007 C
ENDBRANCH   5   6
ENDBRANCH   2   5
ENDBRANCH   1   2
BRANCH   1   8
HETATM    8  C6  UNL     1     -22.810   3.730 -19.462  1.00  0.00     0.115 C
BRANCH   8   9
HETATM    9  N1  UNL     1     -22.199   4.634 -20.416  1.00  0.00    -0.417 N
ATOM     10  H1  UNL     1     -22.703   4.992 -21.227  1.00  0.00     0.153 HD
BRANCH   9  11
HETATM   11  C7  UNL     1     -20.847   4.989 -20.144  1.00  0.00     0.072 C
HETATM   12  C8  UNL     1     -20.183   4.119 -19.115  1.00  0.00     0.031 C
BRANCH  11  13
HETATM   13  C9  UNL     1     -20.829   6.435 -19.672  1.00  0.00     0.020 C
HETATM   14  C10 UNL     1     -20.329   6.523 -18.236  1.00  0.00     0.007 C
ENDBRANCH  11  13
ENDBRANCH   9  11
ENDBRANCH   8   9
ENDBRANCH   1   8
TORSDOF 7
ENDMDL