MODEL 5
REMARK VINA RESULT: -5.249399511      1.444      4.864
REMARK  6 active torsions:
REMARK  status: ('A' for Active; 'I' for Inactive)
REMARK    1  A    between atoms: C2_2  and  C3_3
REMARK    2  A    between atoms: C3_3  and  C4_4
REMARK    3  A    between atoms: N1_8  and  C8_9
REMARK    4  A    between atoms: C8_9  and  C9_10
REMARK    5  A    between atoms: C9_10  and  N2_11
REMARK    6  A    between atoms: N2_11  and  C10_14
ROOT
HETATM    1  C4  UNL     1     -26.940   6.052 -15.575  1.00  0.00     0.079 C
HETATM    2  C5  UNL     1     -27.951   5.937 -14.469  1.00  0.00     0.026 C
HETATM    3  C6  UNL     1     -29.105   6.889 -14.848  1.00  0.00     0.021 C
HETATM    4  C7  UNL     1     -28.481   7.732 -15.937  1.00  0.00     0.117 C
HETATM    5  N1  UNL     1     -27.588   6.806 -16.542  1.00  0.00    -0.407 N
ENDROOT
BRANCH   5   6
HETATM    6  C8  UNL     1     -26.993   7.159 -17.746  1.00  0.00     0.144 C
BRANCH   6   7
HETATM    7  C9  UNL     1     -25.939   8.243 -17.474  1.00  0.00     0.251 C
BRANCH   7   8
HETATM    8  N2  UNL     1     -24.675   7.779 -17.945  1.00  0.00    -0.074 N
ATOM      9  H22 UNL     1     -23.911   8.199 -17.416  1.00  0.00     0.277 HD
ATOM     10  H21 UNL     1     -24.529   6.801 -17.699  1.00  0.00     0.277 HD
BRANCH   8  11
HETATM   11  C10 UNL     1     -24.501   7.986 -19.348  1.00  0.00     0.228 C
HETATM   12  C11 UNL     1     -24.661   9.455 -19.700  1.00  0.00     0.034 C
ENDBRANCH   8  11
ENDBRANCH   7   8
ENDBRANCH   6   7
ENDBRANCH   5   6
BRANCH   1  13
HETATM   13  C3  UNL     1     -26.344   4.768 -15.923  1.00  0.00     0.024 C
BRANCH  13  14
HETATM   14  C2  UNL     1     -24.854   4.632 -15.881  1.00  0.00    -0.002 C
HETATM   15  C1  UNL     1     -24.157   4.235 -17.119  1.00  0.00     0.005 C
ENDBRANCH  13  14
ENDBRANCH   1  13
TORSDOF 6
ENDMDL