MODEL 1
REMARK VINA RESULT: -5.232404923      0.000      0.000
REMARK  6 active torsions:
REMARK  status: ('A' for Active; 'I' for Inactive)
REMARK    1  A    between atoms: C2_2  and  C3_3
REMARK    2  A    between atoms: C3_3  and  C4_4
REMARK    3  A    between atoms: C6_6  and  N1_7
REMARK    4  A    between atoms: N1_7  and  C7_10
REMARK    5  A    between atoms: C7_10  and  C8_11
REMARK    6  A    between atoms: C8_11  and  C9_12
ROOT
HETATM    1  N1  UNL     1     -24.373   4.114 -20.963  1.00  0.00    -0.070 N
ATOM      2  H11 UNL     1     -24.547   3.661 -21.860  1.00  0.00     0.277 HD
ATOM      3  H12 UNL     1     -23.355   4.106 -21.026  1.00  0.00     0.277 HD
ENDROOT
BRANCH   1   4
HETATM    4  C6  UNL     1     -24.904   3.383 -19.814  1.00  0.00     0.190 A
HETATM    5  C4  UNL     1     -23.996   2.620 -18.904  1.00  0.00     0.018 A
HETATM    6  C5  UNL     1     -24.614   1.882 -20.015  1.00  0.00     0.040 A
BRANCH   5   7
HETATM    7  C3  UNL     1     -22.561   3.062 -18.844  1.00  0.00     0.006 C
BRANCH   7   8
HETATM    8  C2  UNL     1     -22.161   3.352 -17.383  1.00  0.00    -0.004 C
HETATM    9  C1  UNL     1     -23.276   4.044 -16.624  1.00  0.00     0.005 C
ENDBRANCH   7   8
ENDBRANCH   5   7
ENDBRANCH   1   4
BRANCH   1  10
HETATM   10  C7  UNL     1     -24.957   5.465 -20.848  1.00  0.00     0.233 C
BRANCH  10  11
HETATM   11  C8  UNL     1     -25.150   5.821 -19.406  1.00  0.00     0.036 C
BRANCH  11  12
HETATM   12  C9  UNL     1     -24.316   6.991 -18.998  1.00  0.00    -0.043 A
HETATM   13  C10 UNL     1     -22.820   6.757 -19.220  1.00  0.00     0.015 C
HETATM   14  C11 UNL     1     -24.584   7.463 -17.587  1.00  0.00     0.010 A
HETATM   15  C12 UNL     1     -24.771   8.354 -18.808  1.00  0.00     0.010 A
ENDBRANCH  11  12
ENDBRANCH  10  11
ENDBRANCH   1  10
TORSDOF 6
ENDMDL