MODEL 3
REMARK VINA RESULT: -6.739326565      2.507      3.185
REMARK  9 active torsions:
REMARK  status: ('A' for Active; 'I' for Inactive)
REMARK    1  A    between atoms: O1_2  and  C2_3
REMARK    2  A    between atoms: C2_3  and  C3_5
REMARK    3  A    between atoms: C4_6  and  S1_7
REMARK    4  A    between atoms: C7_15  and  N3_16
REMARK    5  A    between atoms: C8_19  and  S2_20
REMARK    6  A    between atoms: S2_20  and  C9_21
REMARK    7  A    between atoms: C9_21  and  C10_22
REMARK    8  A    between atoms: N4_23  and  N5_25
REMARK    9  A    between atoms: N6_28  and  N7_30
ROOT
HETATM    1  C3  UNL     1     111.173  93.131  24.201  1.00  0.00     0.092 A
HETATM    2  C4  UNL     1     111.719  93.193  25.474  1.00  0.00     0.088 A
HETATM    3  N1  UNL     1     112.317  94.316  25.861  1.00  0.00    -0.334 N
ATOM      4  H1  UNL     1     112.724  94.379  26.794  1.00  0.00     0.168 HD
HETATM    5  C6  UNL     1     112.386  95.369  25.025  1.00  0.00     0.134 A
HETATM    6  N2  UNL     1     112.979  96.432  25.463  1.00  0.00    -0.383 N
ATOM      7  H21 UNL     1     113.032  97.230  24.830  1.00  0.00     0.157 HD
ATOM      8  H22 UNL     1     113.373  96.451  26.404  1.00  0.00     0.157 HD
HETATM    9  C7  UNL     1     111.854  95.343  23.752  1.00  0.00     0.164 A
HETATM   10  C8  UNL     1     111.229  94.193  23.325  1.00  0.00     0.063 A
ENDROOT
BRANCH  10  11
HETATM   11  S2  UNL     1     110.541  94.154  21.679  1.00  0.00    -0.066 SA
BRANCH  11  12
HETATM   12  C9  UNL     1     111.720  93.531  20.488  1.00  0.00     0.106 C
HETATM   13  N6  UNL     1     111.418  92.395  19.946  1.00  0.00    -0.299 N
ATOM     14  H6  UNL     1     112.068  92.010  19.261  1.00  0.00     0.187 HD
BRANCH  12  15
HETATM   15  C10 UNL     1     112.925  94.238  20.151  1.00  0.00     0.145 C
HETATM   16  N4  UNL     1     112.899  95.444  19.729  1.00  0.00    -0.316 N
ATOM     17  H4  UNL     1     113.790  95.887  19.508  1.00  0.00     0.185 HD
BRANCH  16  18
HETATM   18  N5  UNL     1     111.746  96.195  19.551  1.00  0.00    -0.345 N
ATOM     19  H52 UNL     1     110.958  95.971  20.159  1.00  0.00     0.176 HD
ATOM     20  H51 UNL     1     111.638  96.941  18.865  1.00  0.00     0.176 HD
ENDBRANCH  16  18
ENDBRANCH  12  15
BRANCH  13  21
HETATM   21  N7  UNL     1     110.275  91.665  20.226  1.00  0.00    -0.344 N
ATOM     22  H72 UNL     1     109.916  91.076  19.475  1.00  0.00     0.176 HD
ATOM     23  H71 UNL     1     109.780  91.677  21.117  1.00  0.00     0.176 HD
ENDBRANCH  13  21
ENDBRANCH  11  12
ENDBRANCH  10  11
BRANCH   1  24
HETATM   24  C2  UNL     1     110.508  91.922  23.738  1.00  0.00     0.297 C
HETATM   25  O2  UNL     1     111.123  91.094  23.024  1.00  0.00    -0.259 OA
BRANCH  24  26
HETATM   26  O1  UNL     1     109.209  91.693  24.088  1.00  0.00    -0.322 OA
HETATM   27  C1  UNL     1     108.119  91.757  23.188  1.00  0.00     0.213 C
ENDBRANCH  24  26
ENDBRANCH   1  24
BRANCH   9  28
HETATM   28  N3  UNL     1     111.966  96.508  22.918  1.00  0.00    -0.110 N
HETATM   29  O3  UNL     1     113.048  96.888  22.437  1.00  0.00    -0.532 OA
HETATM   30  O4  UNL     1     110.836  97.251  22.624  1.00  0.00    -0.532 OA
ENDBRANCH   9  28
BRANCH   2  31
HETATM   31  S1  UNL     1     111.567  91.730  26.494  1.00  0.00    -0.116 SA
HETATM   32  C5  UNL     1     112.187  91.986  28.153  1.00  0.00     0.097 C
ENDBRANCH   2  31
TORSDOF 9
ENDMDL