MODEL 4
REMARK VINA RESULT: -8.075456031      1.601      2.048
REMARK  9 active torsions:
REMARK  status: ('A' for Active; 'I' for Inactive)
REMARK    1  A    between atoms: C2_2  and  O1_3
REMARK    2  A    between atoms: O1_3  and  C3_4
REMARK       I    between atoms: C3_4  and  N1_6
REMARK       I    between atoms: N1_6  and  C4_8
REMARK       I    between atoms: C4_8  and  N6_20
REMARK    3  A    between atoms: N2_9  and  O3_11
REMARK    4  A    between atoms: O3_11  and  C5_12
REMARK    5  A    between atoms: N4_14  and  N5_16
REMARK    6  A    between atoms: N5_16  and  O4_18
REMARK    7  A    between atoms: N6_20  and  N7_22
REMARK    8  A    between atoms: N8_24  and  C6_26
REMARK    9  A    between atoms: C9_29  and  N9_30
ROOT
HETATM    1  C3  UNL     1     112.320  94.062  26.458  1.00  0.00     0.379 C
HETATM    2  O2  UNL     1     111.826  94.643  25.459  1.00  0.00    -0.238 OA
HETATM    3  N1  UNL     1     112.163  92.686  26.705  1.00  0.00    -0.132 N
ATOM      4  H1  UNL     1     112.585  92.262  27.531  1.00  0.00     0.190 HD
HETATM    5  C4  UNL     1     111.420  91.898  25.806  1.00  0.00     0.722 C
HETATM    6  N2  UNL     1     111.270  90.640  26.023  1.00  0.00    -0.086 N
ATOM      7  H2  UNL     1     110.730  90.070  25.370  1.00  0.00     0.214 HD
HETATM    8  N6  UNL     1     110.825  92.451  24.657  1.00  0.00    -0.116 N
ATOM      9  H6  UNL     1     111.404  92.789  23.888  1.00  0.00     0.207 HD
ENDROOT
BRANCH   6  10
HETATM   10  O3  UNL     1     111.826  90.073  27.116  1.00  0.00    -0.188 OA
BRANCH  10  11
HETATM   11  C5  UNL     1     112.088  88.719  27.228  1.00  0.00     0.272 C
HETATM   12  N3  UNL     1     112.670  88.183  28.409  1.00  0.00    -0.053 NA
HETATM   13  N4  UNL     1     111.799  87.950  26.250  1.00  0.00    -0.246 N
ATOM     14  H4  UNL     1     111.382  88.346  25.408  1.00  0.00     0.192 HD
BRANCH  13  15
HETATM   15  N5  UNL     1     112.045  86.575  26.314  1.00  0.00    -0.207 N
ATOM     16  H5  UNL     1     111.271  85.935  26.491  1.00  0.00     0.215 HD
BRANCH  15  17
HETATM   17  O4  UNL     1     113.205  86.114  26.157  1.00  0.00    -0.274 OA
ATOM     18  H4  UNL     1     113.421  85.575  25.405  1.00  0.00     0.246 HD
ENDBRANCH  15  17
ENDBRANCH  13  15
ENDBRANCH  10  11
ENDBRANCH   6  10
BRANCH   8  19
HETATM   19  N7  UNL     1     109.444  92.533  24.581  1.00  0.00    -0.228 N
HETATM   20  N8  UNL     1     108.874  93.300  23.763  1.00  0.00    -0.286 N
ATOM     21  H8  UNL     1     107.855  93.326  23.742  1.00  0.00     0.188 HD
ATOM     22  H7  UNL     1     108.876  91.957  25.202  1.00  0.00     0.209 HD
BRANCH  20  23
HETATM   23  C6  UNL     1     109.597  94.129  22.869  1.00  0.00     0.049 A
HETATM   24  C7  UNL     1     109.642  95.497  23.108  1.00  0.00     0.033 A
HETATM   25  C8  UNL     1     110.333  96.352  22.268  1.00  0.00     0.038 A
HETATM   26  C9  UNL     1     111.001  95.869  21.164  1.00  0.00     0.103 A
HETATM   27  C10 UNL     1     110.949  94.509  20.938  1.00  0.00     0.038 A
HETATM   28  C11 UNL     1     110.266  93.662  21.769  1.00  0.00     0.033 A
BRANCH  26  29
HETATM   29  N9  UNL     1     111.705  96.744  20.309  1.00  0.00    -0.116 N
HETATM   30  O5  UNL     1     112.656  96.342  19.616  1.00  0.00    -0.532 OA
HETATM   31  O6  UNL     1     111.342  98.065  20.232  1.00  0.00    -0.532 OA
ENDBRANCH  26  29
ENDBRANCH  20  23
ENDBRANCH   8  19
BRANCH   1  32
HETATM   32  O1  UNL     1     113.049  94.825  27.343  1.00  0.00    -0.304 OA
BRANCH  32  33
HETATM   33  C2  UNL     1     112.962  94.691  28.745  1.00  0.00     0.176 C
HETATM   34  C1  UNL     1     111.938  95.634  29.343  1.00  0.00     0.034 C
ENDBRANCH  32  33
ENDBRANCH   1  32
TORSDOF 9
ENDMDL