MODEL 3
REMARK VINA RESULT: -9.006433308      2.159      3.640
REMARK  8 active torsions:
REMARK  status: ('A' for Active; 'I' for Inactive)
REMARK    1  A    between atoms: O1_1  and  C1_3
REMARK    2  A    between atoms: C1_3  and  N1_4
REMARK    3  A    between atoms: C1_3  and  C4_14
REMARK    4  A    between atoms: N1_4  and  C2_6
REMARK    5  A    between atoms: C6_16  and  C7_17
REMARK       I    between atoms: C7_17  and  N5_19
REMARK    6  A    between atoms: N5_19  and  N6_21
REMARK    7  A    between atoms: C8_23  and  C9_24
REMARK    8  A    between atoms: C12_27  and  N7_28
ROOT
HETATM    1  C4  UNL     1     111.907  89.734  27.462  1.00  0.00     0.108 A
HETATM    2  C5  UNL     1     111.488  90.928  26.839  1.00  0.00     0.081 A
HETATM    3  C6  UNL     1     111.179  90.642  25.531  1.00  0.00     0.170 A
HETATM    4  O6  UNL     1     111.395  89.366  25.370  1.00  0.00    -0.232 OA
HETATM    5  N8  UNL     1     111.811  88.843  26.470  1.00  0.00    -0.256 N
ATOM      6  H8  UNL     1     112.044  87.855  26.574  1.00  0.00     0.195 HD
ENDROOT
BRANCH   3   7
HETATM    7  C7  UNL     1     110.696  91.604  24.515  1.00  0.00     0.295 C
HETATM    8  O2  UNL     1     109.659  91.347  23.871  1.00  0.00    -0.264 OA
HETATM    9  N5  UNL     1     111.387  92.808  24.259  1.00  0.00    -0.264 N
ATOM     10  H5  UNL     1     112.235  93.016  24.787  1.00  0.00     0.190 HD
BRANCH   9  11
HETATM   11  N6  UNL     1     110.943  93.720  23.305  1.00  0.00    -0.306 N
HETATM   12  C8  UNL     1     110.277  94.778  23.586  1.00  0.00     0.144 C
ATOM     13  H6  UNL     1     111.160  93.534  22.325  1.00  0.00     0.186 HD
BRANCH  12  14
HETATM   14  C9  UNL     1     109.868  95.651  22.497  1.00  0.00     0.095 A
HETATM   15  C10 UNL     1     108.648  95.663  21.838  1.00  0.00     0.043 A
HETATM   16  C11 UNL     1     108.682  96.644  20.874  1.00  0.00     0.065 A
HETATM   17  C12 UNL     1     109.936  97.206  20.977  1.00  0.00     0.215 A
HETATM   18  O5  UNL     1     110.584  96.591  21.936  1.00  0.00    -0.287 OA
BRANCH  17  19
HETATM   19  N7  UNL     1     110.409  98.281  20.152  1.00  0.00    -0.090 N
HETATM   20  O3  UNL     1     111.585  98.279  19.753  1.00  0.00    -0.530 OA
HETATM   21  O4  UNL     1     109.563  99.307  19.805  1.00  0.00    -0.530 OA
ENDBRANCH  17  19
ENDBRANCH  12  14
ENDBRANCH   9  11
ENDBRANCH   3   7
BRANCH   1  22
HETATM   22  C1  UNL     1     112.323  89.590  28.839  1.00  0.00     0.171 C
BRANCH  22  23
HETATM   23  O1  UNL     1     113.030  88.518  29.064  1.00  0.00    -0.344 OA
ATOM     24  H1  UNL     1     112.653  87.713  28.730  1.00  0.00     0.219 HD
ENDBRANCH  22  23
BRANCH  22  25
HETATM   25  N1  UNL     1     112.102  90.383  29.948  1.00  0.00    -0.319 N
ATOM     26  H1  UNL     1     111.208  90.239  30.418  1.00  0.00     0.169 HD
BRANCH  25  27
HETATM   27  C2  UNL     1     112.941  91.366  30.523  1.00  0.00     0.140 A
HETATM   28  C3  UNL     1     113.453  92.452  29.780  1.00  0.00     0.158 A
HETATM   29  N2  UNL     1     114.200  93.177  30.629  1.00  0.00    -0.294 N
HETATM   30  N3  UNL     1     114.196  92.639  31.828  1.00  0.00    -0.241 N
ATOM     31  H2  UNL     1     114.701  94.029  30.378  1.00  0.00     0.187 HD
HETATM   32  N4  UNL     1     113.440  91.568  31.730  1.00  0.00    -0.270 N
ATOM     33  H3  UNL     1     114.677  92.980  32.660  1.00  0.00     0.208 HD
ATOM     34  H4  UNL     1     113.256  90.946  32.517  1.00  0.00     0.190 HD
ENDBRANCH  25  27
ENDBRANCH  22  25
ENDBRANCH   1  22
TORSDOF 8
ENDMDL