MODEL 3
REMARK VINA RESULT: -8.217127971      1.811      3.696
REMARK  8 active torsions:
REMARK  status: ('A' for Active; 'I' for Inactive)
REMARK    1  A    between atoms: O1_2  and  C2_3
REMARK    2  A    between atoms: C4_5  and  O2_6
REMARK    3  A    between atoms: C8_12  and  O3_13
REMARK    4  A    between atoms: O3_13  and  C9_14
REMARK    5  A    between atoms: C10_15  and  O4_16
REMARK    6  A    between atoms: C12_20  and  C13_21
REMARK       I    between atoms: C13_21  and  N3_23
REMARK    7  A    between atoms: N3_23  and  N4_25
REMARK    8  A    between atoms: C14_28  and  N5_29
ROOT
HETATM    1  C2  UNL     1     111.693  93.401  27.273  1.00  0.00     0.104 A
HETATM    2  C3  UNL     1     112.105  92.377  28.147  1.00  0.00     0.077 A
HETATM    3  C4  UNL     1     112.017  91.072  27.705  1.00  0.00     0.089 A
HETATM    4  C5  UNL     1     111.539  90.780  26.440  1.00  0.00     0.080 A
HETATM    5  C6  UNL     1     111.467  89.400  26.025  1.00  0.00     0.102 C
HETATM    6  N1  UNL     1     111.391  88.299  25.685  1.00  0.00    -0.191 NA
HETATM    7  C7  UNL     1     111.138  91.771  25.588  1.00  0.00     0.065 A
HETATM    8  C8  UNL     1     111.220  93.121  26.025  1.00  0.00     0.111 A
ENDROOT
BRANCH   3   9
HETATM    9  O2  UNL     1     112.407  90.018  28.518  1.00  0.00    -0.359 OA
ATOM     10  H2  UNL     1     112.892  90.176  29.319  1.00  0.00     0.217 HD
ENDBRANCH   3   9
BRANCH   8  11
HETATM   11  O3  UNL     1     110.808  94.074  25.142  1.00  0.00    -0.301 OA
BRANCH  11  12
HETATM   12  C9  UNL     1     110.921  94.168  23.800  1.00  0.00     0.162 A
HETATM   13  C10 UNL     1     109.903  93.723  22.942  1.00  0.00     0.180 A
HETATM   14  N2  UNL     1     110.262  93.938  21.674  1.00  0.00    -0.328 N
HETATM   15  C12 UNL     1     111.472  94.508  21.635  1.00  0.00     0.140 A
ATOM     16  H2  UNL     1     109.697  93.703  20.858  1.00  0.00     0.168 HD
HETATM   17  C14 UNL     1     111.900  94.659  22.966  1.00  0.00     0.173 A
BRANCH  13  18
HETATM   18  O4  UNL     1     108.690  93.140  23.318  1.00  0.00    -0.339 OA
HETATM   19  C11 UNL     1     108.523  91.769  22.968  1.00  0.00     0.211 C
ENDBRANCH  13  18
BRANCH  15  20
HETATM   20  C13 UNL     1     112.202  94.903  20.440  1.00  0.00     0.288 C
HETATM   21  O5  UNL     1     112.944  94.051  19.870  1.00  0.00    -0.264 OA
HETATM   22  N3  UNL     1     112.084  96.218  19.923  1.00  0.00    -0.271 N
ATOM     23  H3  UNL     1     111.482  96.899  20.387  1.00  0.00     0.189 HD
BRANCH  22  24
HETATM   24  N4  UNL     1     112.797  96.581  18.771  1.00  0.00    -0.342 N
ATOM     25  H42 UNL     1     112.307  97.050  18.010  1.00  0.00     0.176 HD
ATOM     26  H41 UNL     1     113.794  96.372  18.707  1.00  0.00     0.176 HD
ENDBRANCH  22  24
ENDBRANCH  15  20
BRANCH  17  27
HETATM   27  N5  UNL     1     113.133  95.287  23.279  1.00  0.00    -0.110 N
HETATM   28  O6  UNL     1     114.100  94.727  23.787  1.00  0.00    -0.532 OA
HETATM   29  O7  UNL     1     113.275  96.642  22.961  1.00  0.00    -0.532 OA
ENDBRANCH  17  27
ENDBRANCH  11  12
ENDBRANCH   8  11
BRANCH   1  30
HETATM   30  O1  UNL     1     111.787  94.680  27.723  1.00  0.00    -0.353 OA
HETATM   31  C1  UNL     1     112.892  95.227  28.407  1.00  0.00     0.210 C
ENDBRANCH   1  30
TORSDOF 8
ENDMDL