MODEL 5
REMARK VINA RESULT: -8.341898770      2.250      6.289
REMARK  8 active torsions:
REMARK  status: ('A' for Active; 'I' for Inactive)
REMARK    1  A    between atoms: C4_7  and  N3_8
REMARK    2  A    between atoms: N3_8  and  N4_10
REMARK    3  A    between atoms: N4_10  and  C5_12
REMARK    4  A    between atoms: C5_12  and  C6_17
REMARK    5  A    between atoms: N5_13  and  O1_15
REMARK       I    between atoms: C6_17  and  N6_19
REMARK    6  A    between atoms: N6_19  and  N7_21
REMARK    7  A    between atoms: C7_23  and  C8_24
REMARK    8  A    between atoms: C12_29  and  N8_30
ROOT
HETATM    1  N1  UNL     1     109.822  91.242  20.938  1.00  0.00    -0.191 NA
HETATM    2  C1  UNL     1     110.277  91.916  21.772  1.00  0.00     0.101 C
HETATM    3  C2  UNL     1     110.859  92.748  22.794  1.00  0.00     0.062 A
HETATM    4  C3  UNL     1     111.077  92.263  24.078  1.00  0.00     0.112 A
HETATM    5  N2  UNL     1     111.624  93.077  25.000  1.00  0.00    -0.348 N
ATOM      6  H2  UNL     1     111.784  92.717  25.942  1.00  0.00     0.167 HD
HETATM    7  C4  UNL     1     111.966  94.344  24.726  1.00  0.00     0.153 A
HETATM    8  C12 UNL     1     111.750  94.827  23.452  1.00  0.00     0.149 A
HETATM    9  C13 UNL     1     111.189  94.041  22.448  1.00  0.00     0.064 A
ENDROOT
BRANCH   8  10
HETATM   10  N8  UNL     1     112.122  96.178  23.189  1.00  0.00    -0.112 N
HETATM   11  O4  UNL     1     111.208  97.004  23.046  1.00  0.00    -0.532 OA
HETATM   12  O5  UNL     1     113.460  96.526  23.104  1.00  0.00    -0.532 OA
ENDBRANCH   8  10
BRANCH   7  13
HETATM   13  N3  UNL     1     112.544  95.155  25.754  1.00  0.00    -0.282 N
ATOM     14  H3  UNL     1     112.467  96.170  25.682  1.00  0.00     0.188 HD
BRANCH  13  15
HETATM   15  N4  UNL     1     113.208  94.610  26.848  1.00  0.00    -0.278 N
ATOM     16  H4  UNL     1     114.094  94.114  26.748  1.00  0.00     0.189 HD
BRANCH  15  17
HETATM   17  C5  UNL     1     112.563  94.785  28.155  1.00  0.00     0.210 C
HETATM   18  N5  UNL     1     112.071  95.935  28.332  1.00  0.00    -0.247 N
ATOM     19  H5  UNL     1     112.175  96.598  27.564  1.00  0.00     0.196 HD
BRANCH  18  20
HETATM   20  O1  UNL     1     111.433  96.374  29.412  1.00  0.00    -0.288 OA
ATOM     21  H1  UNL     1     110.502  96.540  29.498  1.00  0.00     0.244 HD
ENDBRANCH  18  20
BRANCH  17  22
HETATM   22  C6  UNL     1     112.561  93.667  29.068  1.00  0.00     0.307 C
HETATM   23  O2  UNL     1     111.591  93.645  29.915  1.00  0.00    -0.262 OA
HETATM   24  N6  UNL     1     113.522  92.645  29.076  1.00  0.00    -0.264 N
ATOM     25  H6  UNL     1     114.291  92.657  28.407  1.00  0.00     0.190 HD
BRANCH  24  26
HETATM   26  N7  UNL     1     113.419  91.631  29.991  1.00  0.00    -0.306 N
HETATM   27  C7  UNL     1     113.012  90.478  29.834  1.00  0.00     0.144 C
ATOM     28  H7  UNL     1     113.722  91.864  30.937  1.00  0.00     0.186 HD
BRANCH  27  29
HETATM   29  C8  UNL     1     112.526  89.888  28.608  1.00  0.00     0.091 A
HETATM   30  C9  UNL     1     112.504  88.562  28.243  1.00  0.00     0.040 A
HETATM   31  C10 UNL     1     111.939  88.494  26.964  1.00  0.00     0.027 A
HETATM   32  C11 UNL     1     111.648  89.770  26.618  1.00  0.00     0.142 A
HETATM   33  O3  UNL     1     111.993  90.574  27.577  1.00  0.00    -0.321 OA
ENDBRANCH  27  29
ENDBRANCH  24  26
ENDBRANCH  17  22
ENDBRANCH  15  17
ENDBRANCH  13  15
ENDBRANCH   7  13
TORSDOF 8
ENDMDL