MODEL 1
REMARK VINA RESULT: -6.127882611      0.000      0.000
REMARK  11 active torsions:
REMARK  status: ('A' for Active; 'I' for Inactive)
REMARK    1  A    between atoms: C2_2  and  O1_3
REMARK    2  A    between atoms: O1_3  and  C3_4
REMARK    3  A    between atoms: C3_4  and  O2_5
REMARK    4  A    between atoms: C3_4  and  C4_7
REMARK    5  A    between atoms: C4_7  and  C5_9
REMARK    6  A    between atoms: C5_9  and  S2_11
REMARK    7  A    between atoms: C5_9  and  C8_13
REMARK    8  A    between atoms: C8_13  and  O4_15
REMARK    9  A    between atoms: O4_15  and  N1_16
REMARK   10  A    between atoms: N1_16  and  C9_18
REMARK   11  A    between atoms: C10_21  and  O5_23
ROOT
HETATM    1  C8  UNL     1     112.436  96.184  23.519  1.00  0.00     0.300 C
HETATM    2  O3  UNL     1     113.248  96.800  22.789  1.00  0.00    -0.261 OA
ENDROOT
BRANCH   1   3
HETATM    3  C5  UNL     1     111.529  95.191  22.897  1.00  0.00     0.111 C
HETATM    4  C6  UNL     1     110.167  95.325  23.567  1.00  0.00     0.039 C
BRANCH   3   5
HETATM    5  C4  UNL     1     111.992  93.792  23.124  1.00  0.00     0.141 C
HETATM    6  S1  UNL     1     112.804  93.060  21.673  1.00  0.00    -0.085 SA
BRANCH   5   7
HETATM    7  C3  UNL     1     110.965  92.840  23.612  1.00  0.00     0.273 C
BRANCH   7   8
HETATM    8  O1  UNL     1     110.644  91.803  22.784  1.00  0.00    -0.361 OA
BRANCH   8   9
HETATM    9  C2  UNL     1     109.408  91.846  22.199  1.00  0.00     0.166 C
HETATM   10  C1  UNL     1     108.249  91.867  23.147  1.00  0.00     0.033 C
ENDBRANCH   8   9
ENDBRANCH   7   8
BRANCH   7  11
HETATM   11  O2  UNL     1     111.362  92.267  24.846  1.00  0.00    -0.370 OA
ATOM     12  H2  UNL     1     112.292  92.436  24.938  1.00  0.00     0.212 HD
ENDBRANCH   7  11
ENDBRANCH   5   7
ENDBRANCH   3   5
BRANCH   3  13
HETATM   13  S2  UNL     1     111.304  95.649  21.181  1.00  0.00    -0.152 SA
HETATM   14  C7  UNL     1     109.734  95.181  20.472  1.00  0.00     0.091 C
ENDBRANCH   3  13
ENDBRANCH   1   3
BRANCH   1  15
HETATM   15  O4  UNL     1     112.455  96.484  24.854  1.00  0.00    -0.195 OA
BRANCH  15  16
HETATM   16  N1  UNL     1     113.145  95.878  25.842  1.00  0.00    -0.227 N
ATOM     17  H1  UNL     1     114.119  96.149  25.973  1.00  0.00     0.198 HD
BRANCH  16  18
HETATM   18  C9  UNL     1     112.616  94.894  26.711  1.00  0.00     0.198 C
HETATM   19  N2  UNL     1     113.326  94.109  27.443  1.00  0.00    -0.328 N
HETATM   20  C10 UNL     1     112.486  93.218  28.217  1.00  0.00     0.146 C
ATOM     21  H2  UNL     1     114.346  94.112  27.473  1.00  0.00     0.165 HD
HETATM   22  C11 UNL     1     112.991  93.088  29.640  1.00  0.00     0.072 C
HETATM   23  C12 UNL     1     111.138  93.894  28.145  1.00  0.00     0.183 C
HETATM   24  N3  UNL     1     111.231  94.631  26.900  1.00  0.00    -0.356 N
ATOM     25  H3  UNL     1     110.463  94.904  26.287  1.00  0.00     0.162 HD
BRANCH  20  26
HETATM   26  O5  UNL     1     112.456  91.992  27.568  1.00  0.00    -0.369 OA
ATOM     27  H5  UNL     1     111.575  91.642  27.647  1.00  0.00     0.212 HD
ENDBRANCH  20  26
ENDBRANCH  16  18
ENDBRANCH  15  16
ENDBRANCH   1  15
TORSDOF 11
ENDMDL