MODEL 5
REMARK VINA RESULT: -7.315909800      2.765      6.633
REMARK  10 active torsions:
REMARK  status: ('A' for Active; 'I' for Inactive)
REMARK    1  A    between atoms: C2_2  and  C3_3
REMARK    2  A    between atoms: C3_3  and  C4_4
REMARK    3  A    between atoms: C5_5  and  C6_6
REMARK    4  A    between atoms: C6_6  and  O1_7
REMARK    5  A    between atoms: O1_7  and  C7_8
REMARK    6  A    between atoms: C7_8  and  N2_12
REMARK    7  A    between atoms: N2_12  and  N3_14
REMARK    8  A    between atoms: C8_16  and  C10_19
REMARK    9  A    between atoms: N5_20  and  N6_22
REMARK   10  A    between atoms: N6_22  and  C12_24
ROOT
HETATM    1  N3  UNL     1     110.343  93.626  21.817  1.00  0.00    -0.286 N
ATOM      2  H3  UNL     1     110.126  93.220  20.907  1.00  0.00     0.188 HD
HETATM    3  C8  UNL     1     111.518  94.141  21.969  1.00  0.00     0.145 C
HETATM    4  C9  UNL     1     112.466  94.127  20.868  1.00  0.00     0.120 C
HETATM    5  N4  UNL     1     113.209  94.114  19.977  1.00  0.00    -0.190 NA
ENDROOT
BRANCH   3   6
HETATM    6  C10 UNL     1     111.953  94.750  23.214  1.00  0.00     0.149 C
HETATM    7  N5  UNL     1     112.526  94.028  24.104  1.00  0.00    -0.305 N
ATOM      8  H5  UNL     1     112.676  93.033  23.936  1.00  0.00     0.186 HD
BRANCH   7   9
HETATM    9  N6  UNL     1     112.942  94.599  25.289  1.00  0.00    -0.274 N
HETATM   10  C11 UNL     1     114.154  95.352  25.359  1.00  0.00     0.180 C
BRANCH   9  11
HETATM   11  C12 UNL     1     112.142  94.428  26.456  1.00  0.00     0.183 A
HETATM   12  N7  UNL     1     110.828  94.517  26.605  1.00  0.00    -0.276 N
HETATM   13  N8  UNL     1     110.289  94.329  27.733  1.00  0.00    -0.278 N
ATOM     14  H7  UNL     1     110.244  94.740  25.799  1.00  0.00     0.189 HD
HETATM   15  C13 UNL     1     111.066  94.038  28.781  1.00  0.00     0.160 A
ATOM     16  H8  UNL     1     109.277  94.399  27.842  1.00  0.00     0.189 HD
HETATM   17  N9  UNL     1     110.695  93.811  30.020  1.00  0.00    -0.378 N
HETATM   18  S1  UNL     1     112.619  94.044  28.074  1.00  0.00    -0.014 SA
ATOM     19  H92 UNL     1     109.767  93.807  30.442  1.00  0.00     0.158 HD
ATOM     20  H91 UNL     1     111.289  93.589  30.819  1.00  0.00     0.158 HD
ENDBRANCH   9  11
ENDBRANCH   7   9
ENDBRANCH   3   6
BRANCH   1  21
HETATM   21  N2  UNL     1     109.356  93.576  22.784  1.00  0.00    -0.264 N
ATOM     22  H2  UNL     1     108.742  94.379  22.923  1.00  0.00     0.190 HD
BRANCH  21  23
HETATM   23  C7  UNL     1     109.189  92.395  23.596  1.00  0.00     0.232 C
HETATM   24  N1  UNL     1     108.291  91.518  23.325  1.00  0.00    -0.364 N
ATOM     25  H12 UNL     1     108.174  90.683  23.899  1.00  0.00     0.159 HD
ATOM     26  H11 UNL     1     107.690  91.667  22.516  1.00  0.00     0.159 HD
BRANCH  23  27
HETATM   27  O1  UNL     1     110.002  92.193  24.689  1.00  0.00    -0.309 OA
BRANCH  27  28
HETATM   28  C6  UNL     1     110.962  91.195  24.713  1.00  0.00     0.272 C
BRANCH  28  29
HETATM   29  C5  UNL     1     111.250  90.813  26.087  1.00  0.00    -0.080 C
HETATM   30  C4  UNL     1     111.470  90.504  27.252  1.00  0.00    -0.104 C
BRANCH  30  31
HETATM   31  C3  UNL     1     111.708  90.143  28.654  1.00  0.00     0.093 C
BRANCH  31  32
HETATM   32  C2  UNL     1     112.848  89.124  28.744  1.00  0.00     0.007 C
HETATM   33  C1  UNL     1     112.432  87.964  27.836  1.00  0.00     0.006 C
ENDBRANCH  31  32
ENDBRANCH  30  31
ENDBRANCH  28  29
ENDBRANCH  27  28
ENDBRANCH  23  27
ENDBRANCH  21  23
ENDBRANCH   1  21
TORSDOF 10
ENDMDL