MODEL 4
REMARK VINA RESULT: -7.711115170      2.219      6.365
REMARK  9 active torsions:
REMARK  status: ('A' for Active; 'I' for Inactive)
REMARK    1  A    between atoms: O1_2  and  C2_3
REMARK    2  A    between atoms: C2_3  and  C3_5
REMARK    3  A    between atoms: C4_6  and  C5_7
REMARK    4  A    between atoms: C5_7  and  C6_8
REMARK    5  A    between atoms: C6_8  and  N2_11
REMARK    6  A    between atoms: N2_11  and  N3_12
REMARK    7  A    between atoms: N3_12  and  C8_14
REMARK    8  A    between atoms: C11_18  and  N4_19
REMARK    9  A    between atoms: C12_24  and  N6_25
ROOT
HETATM    1  C6  UNL     1     112.362  94.480  25.223  1.00  0.00     0.193 C
HETATM    2  C7  UNL     1     113.288  95.321  25.987  1.00  0.00     0.131 C
HETATM    3  N1  UNL     1     114.022  95.976  26.595  1.00  0.00    -0.189 NA
ENDROOT
BRANCH   1   4
HETATM    4  C5  UNL     1     111.157  93.886  25.895  1.00  0.00     0.145 C
BRANCH   4   5
HETATM    5  C4  UNL     1     111.346  92.504  26.358  1.00  0.00     0.056 A
HETATM    6  C3  UNL     1     111.184  91.381  25.624  1.00  0.00     0.131 A
HETATM    7  C13 UNL     1     111.525  90.133  26.204  1.00  0.00     0.278 A
HETATM    8  N7  UNL     1     111.992  90.039  27.444  1.00  0.00    -0.155 N
HETATM    9  O6  UNL     1     111.370  89.105  25.501  1.00  0.00    -0.266 OA
HETATM   10  C12 UNL     1     112.137  91.166  28.152  1.00  0.00     0.679 A
ATOM     11  H7  UNL     1     112.235  89.132  27.845  1.00  0.00     0.187 HD
HETATM   12  N5  UNL     1     111.835  92.363  27.652  1.00  0.00    -0.194 N
ATOM     13  H5  UNL     1     111.965  93.193  28.231  1.00  0.00     0.184 HD
BRANCH   6  14
HETATM   14  C2  UNL     1     110.546  91.376  24.327  1.00  0.00     0.300 C
HETATM   15  O2  UNL     1     111.049  91.338  23.202  1.00  0.00    -0.259 OA
BRANCH  14  16
HETATM   16  O1  UNL     1     109.130  91.419  24.303  1.00  0.00    -0.322 OA
HETATM   17  C1  UNL     1     108.400  91.891  23.199  1.00  0.00     0.213 C
ENDBRANCH  14  16
ENDBRANCH   6  14
BRANCH  10  18
HETATM   18  N6  UNL     1     112.578  91.100  29.371  1.00  0.00    -0.234 N
ATOM     19  H62 UNL     1     111.979  91.406  30.138  1.00  0.00     0.174 HD
ATOM     20  H61 UNL     1     113.523  90.748  29.526  1.00  0.00     0.174 HD
ENDBRANCH  10  18
ENDBRANCH   4   5
ENDBRANCH   1   4
BRANCH   1  21
HETATM   21  N2  UNL     1     112.599  94.383  24.034  1.00  0.00    -0.317 NA
BRANCH  21  22
HETATM   22  N3  UNL     1     112.565  94.020  22.796  1.00  0.00    -0.210 N
ATOM     23  H3  UNL     1     113.339  93.473  22.420  1.00  0.00     0.204 HD
BRANCH  22  24
HETATM   24  C8  UNL     1     111.456  94.367  21.921  1.00  0.00     0.206 A
HETATM   25  O3  UNL     1     110.303  94.808  22.401  1.00  0.00    -0.302 OA
HETATM   26  C9  UNL     1     109.462  95.046  21.442  1.00  0.00     0.147 A
HETATM   27  C10 UNL     1     110.086  94.749  20.238  1.00  0.00     0.065 A
HETATM   28  C11 UNL     1     111.374  94.311  20.565  1.00  0.00     0.158 A
BRANCH  28  29
HETATM   29  N4  UNL     1     112.367  93.876  19.679  1.00  0.00    -0.111 N
HETATM   30  O4  UNL     1     113.573  94.120  19.987  1.00  0.00    -0.532 OA
HETATM   31  O5  UNL     1     112.139  93.214  18.507  1.00  0.00    -0.532 OA
ENDBRANCH  28  29
ENDBRANCH  22  24
ENDBRANCH  21  22
ENDBRANCH   1  21
TORSDOF 9
ENDMDL