MODEL 4
REMARK VINA RESULT: -7.892608649      4.877      8.258
REMARK  9 active torsions:
REMARK  status: ('A' for Active; 'I' for Inactive)
REMARK    1  A    between atoms: O1_2  and  C2_3
REMARK    2  A    between atoms: C2_3  and  C3_5
REMARK    3  A    between atoms: C6_8  and  N1_9
REMARK    4  A    between atoms: N1_9  and  N2_11
REMARK    5  A    between atoms: N2_11  and  C7_13
REMARK    6  A    between atoms: C7_13  and  C10_19
REMARK    7  A    between atoms: N3_14  and  C8_16
REMARK    8  A    between atoms: C11_25  and  N7_26
REMARK    9  A    between atoms: C12_29  and  N8_30
ROOT
HETATM    1  C8  UNL     1     110.318  92.989  30.890  1.00  0.00     0.245 C
HETATM    2  C9  UNL     1     109.277  93.999  31.160  1.00  0.00     0.078 C
HETATM    3  N4  UNL     1     108.449  94.791  31.387  1.00  0.00    -0.196 NA
ENDROOT
BRANCH   1   4
HETATM    4  N3  UNL     1     111.561  93.370  31.511  1.00  0.00    -0.361 N
HETATM    5  C7  UNL     1     112.604  92.637  31.399  1.00  0.00     0.149 C
ATOM      6  H3  UNL     1     111.609  94.235  32.048  1.00  0.00     0.162 HD
BRANCH   5   7
HETATM    7  N2  UNL     1     112.528  91.448  30.658  1.00  0.00    -0.283 N
ATOM      8  H2  UNL     1     111.884  90.738  31.007  1.00  0.00     0.188 HD
BRANCH   7   9
HETATM    9  N1  UNL     1     113.233  91.125  29.498  1.00  0.00    -0.297 N
ATOM     10  H1  UNL     1     114.228  90.900  29.528  1.00  0.00     0.187 HD
BRANCH   9  11
HETATM   11  C6  UNL     1     112.498  91.122  28.253  1.00  0.00     0.081 A
HETATM   12  C5  UNL     1     112.170  92.365  27.679  1.00  0.00     0.034 A
HETATM   13  C4  UNL     1     111.472  92.420  26.495  1.00  0.00     0.020 A
HETATM   14  C3  UNL     1     111.075  91.282  25.836  1.00  0.00     0.042 A
HETATM   15  C13 UNL     1     111.410  90.080  26.424  1.00  0.00     0.056 A
HETATM   16  C12 UNL     1     112.113  89.975  27.619  1.00  0.00     0.131 A
BRANCH  14  17
HETATM   17  C2  UNL     1     110.351  91.379  24.580  1.00  0.00     0.293 C
HETATM   18  O2  UNL     1     109.102  91.427  24.484  1.00  0.00    -0.259 OA
BRANCH  17  19
HETATM   19  O1  UNL     1     111.075  91.418  23.409  1.00  0.00    -0.323 OA
HETATM   20  C1  UNL     1     111.505  92.570  22.731  1.00  0.00     0.213 C
ENDBRANCH  17  19
ENDBRANCH  14  17
BRANCH  16  21
HETATM   21  N8  UNL     1     112.424  88.720  28.193  1.00  0.00    -0.113 N
HETATM   22  O4  UNL     1     112.661  88.589  29.378  1.00  0.00    -0.532 OA
HETATM   23  O5  UNL     1     112.446  87.623  27.369  1.00  0.00    -0.532 OA
ENDBRANCH  16  21
ENDBRANCH   9  11
ENDBRANCH   7   9
ENDBRANCH   5   7
BRANCH   5  24
HETATM   24  C10 UNL     1     113.851  93.081  32.035  1.00  0.00     0.146 A
HETATM   25  N5  UNL     1     114.917  93.612  31.368  1.00  0.00    -0.234 N
HETATM   26  O3  UNL     1     115.840  93.908  32.224  1.00  0.00    -0.155 OA
ATOM     27  H5  UNL     1     114.976  93.752  30.359  1.00  0.00     0.197 HD
HETATM   28  N6  UNL     1     115.439  93.602  33.411  1.00  0.00    -0.224 N
HETATM   29  C11 UNL     1     114.169  93.066  33.359  1.00  0.00     0.154 A
ATOM     30  H6  UNL     1     115.981  93.736  34.264  1.00  0.00     0.198 HD
BRANCH  29  31
HETATM   31  N7  UNL     1     113.520  92.678  34.399  1.00  0.00    -0.382 N
ATOM     32  H72 UNL     1     113.311  91.699  34.598  1.00  0.00     0.157 HD
ATOM     33  H71 UNL     1     113.113  93.187  35.183  1.00  0.00     0.157 HD
ENDBRANCH  29  31
ENDBRANCH   5  24
ENDBRANCH   1   4
TORSDOF 9
ENDMDL