MODEL 2
REMARK VINA RESULT: -9.316948416      1.078      1.547
REMARK  8 active torsions:
REMARK  status: ('A' for Active; 'I' for Inactive)
REMARK       I    between atoms: C1_2  and  N1_3
REMARK       I    between atoms: C1_2  and  N3_16
REMARK    1  A    between atoms: N1_3  and  N2_5
REMARK    2  A    between atoms: C2_7  and  C3_8
REMARK    3  A    between atoms: C8_13  and  O2_14
REMARK    4  A    between atoms: N3_16  and  N4_18
REMARK    5  A    between atoms: N4_18  and  C9_19
REMARK    6  A    between atoms: C9_19  and  C10_20
REMARK    7  A    between atoms: C12_22  and  N5_23
REMARK    8  A    between atoms: C13_27  and  N6_28
ROOT
HETATM    1  O1  UNL     1     111.509  94.449  26.955  1.00  0.00    -0.244 OA
HETATM    2  C1  UNL     1     112.718  94.219  27.061  1.00  0.00     0.350 C
HETATM    3  N1  UNL     1     113.180  93.304  28.048  1.00  0.00    -0.251 N
ATOM      4  H1  UNL     1     114.179  93.120  28.132  1.00  0.00     0.191 HD
HETATM    5  N3  UNL     1     113.699  94.845  26.218  1.00  0.00    -0.254 N
ATOM      6  H3  UNL     1     114.695  94.647  26.325  1.00  0.00     0.187 HD
ENDROOT
BRANCH   3   7
HETATM    7  N2  UNL     1     112.325  92.679  28.871  1.00  0.00    -0.307 N
HETATM    8  C2  UNL     1     111.757  91.587  29.022  1.00  0.00     0.121 C
ATOM      9  H2  UNL     1     112.051  93.313  29.623  1.00  0.00     0.186 HD
BRANCH   8  10
HETATM   10  C3  UNL     1     111.845  90.408  28.210  1.00  0.00     0.014 A
HETATM   11  C4  UNL     1     112.304  89.210  28.691  1.00  0.00     0.015 A
HETATM   12  C5  UNL     1     112.369  88.084  27.851  1.00  0.00     0.001 A
HETATM   13  C6  UNL     1     111.984  88.122  26.533  1.00  0.00     0.003 A
HETATM   14  C7  UNL     1     111.526  89.321  26.057  1.00  0.00     0.037 A
HETATM   15  C8  UNL     1     111.453  90.436  26.861  1.00  0.00     0.077 A
BRANCH  15  16
HETATM   16  O2  UNL     1     110.988  91.644  26.374  1.00  0.00    -0.360 OA
ATOM     17  H2  UNL     1     111.003  91.757  25.432  1.00  0.00     0.217 HD
ENDBRANCH  15  16
ENDBRANCH   8  10
ENDBRANCH   3   7
BRANCH   5  18
HETATM   18  N4  UNL     1     113.239  95.732  25.251  1.00  0.00    -0.133 NA
BRANCH  18  19
HETATM   19  C9  UNL     1     113.638  95.275  23.951  1.00  0.00     0.178 C
BRANCH  19  20
HETATM   20  C10 UNL     1     112.442  94.620  23.305  1.00  0.00     0.020 A
HETATM   21  C11 UNL     1     111.990  93.342  23.553  1.00  0.00     0.075 A
HETATM   22  C12 UNL     1     110.886  93.169  22.749  1.00  0.00     0.217 A
HETATM   23  O5  UNL     1     110.697  94.270  22.074  1.00  0.00    -0.265 OA
HETATM   24  C13 UNL     1     111.606  95.184  22.366  1.00  0.00     0.224 A
BRANCH  22  25
HETATM   25  N5  UNL     1     110.080  91.971  22.676  1.00  0.00    -0.090 N
HETATM   26  O3  UNL     1     109.694  91.423  23.724  1.00  0.00    -0.530 OA
HETATM   27  O4  UNL     1     109.736  91.433  21.482  1.00  0.00    -0.530 OA
ENDBRANCH  22  25
BRANCH  24  28
HETATM   28  N6  UNL     1     111.706  96.497  21.820  1.00  0.00    -0.090 N
HETATM   29  O6  UNL     1     111.128  97.452  22.365  1.00  0.00    -0.530 OA
HETATM   30  O7  UNL     1     112.437  96.728  20.692  1.00  0.00    -0.530 OA
ENDBRANCH  24  28
ENDBRANCH  19  20
ENDBRANCH  18  19
ENDBRANCH   5  18
TORSDOF 8
ENDMDL