MODEL 2
REMARK VINA RESULT: -8.032434811      1.868      4.665
REMARK  12 active torsions:
REMARK  status: ('A' for Active; 'I' for Inactive)
REMARK    1  A    between atoms: C2_2  and  C3_3
REMARK    2  A    between atoms: C7_11  and  C8_12
REMARK    3  A    between atoms: C8_12  and  N3_13
REMARK    4  A    between atoms: C9_15  and  N4_16
REMARK    5  A    between atoms: N4_16  and  C10_17
REMARK    6  A    between atoms: N4_16  and  C14_26
REMARK    7  A    between atoms: C10_17  and  C11_18
REMARK    8  A    between atoms: C11_18  and  N5_19
REMARK    9  A    between atoms: N5_19  and  C12_22
REMARK   10  A    between atoms: C12_22  and  C13_23
REMARK   11  A    between atoms: C13_23  and  O1_24
REMARK   12  A    between atoms: C14_26  and  C15_27
ROOT
HETATM    1  N4  UNL     1       5.076  19.562  66.548  1.00  0.00    -0.371 N
ENDROOT
BRANCH   1   2
HETATM    2  C9  UNL     1       4.622  20.851  66.909  1.00  0.00     0.174 C
HETATM    3  N3  UNL     1       4.564  21.324  68.093  1.00  0.00    -0.381 N
ATOM      4  H3  UNL     1       4.859  20.765  68.894  1.00  0.00     0.160 HD
BRANCH   3   5
HETATM    5  C8  UNL     1       4.068  22.670  68.271  1.00  0.00     0.179 C
BRANCH   5   6
HETATM    6  C7  UNL     1       2.787  22.730  68.997  1.00  0.00     0.056 A
HETATM    7  N2  UNL     1       2.528  23.033  70.279  1.00  0.00    -0.302 N
HETATM    8  N1  UNL     1       1.245  22.974  70.548  1.00  0.00    -0.300 N
ATOM      9  H2  UNL     1       3.244  23.279  70.963  1.00  0.00     0.186 HD
HETATM   10  C6  UNL     1       0.598  22.623  69.425  1.00  0.00     0.060 A
ATOM     11  H1  UNL     1       0.813  23.164  71.453  1.00  0.00     0.187 HD
HETATM   12  C5  UNL     1      -0.737  22.427  69.181  1.00  0.00     0.032 A
HETATM   13  C20 UNL     1       1.545  22.462  68.431  1.00  0.00     0.018 A
HETATM   14  C4  UNL     1      -1.158  22.064  67.919  1.00  0.00     0.009 A
HETATM   15  C3  UNL     1      -0.245  21.892  66.893  1.00  0.00    -0.058 A
HETATM   16  C21 UNL     1       1.098  22.102  67.194  1.00  0.00     0.023 A
BRANCH  15  17
HETATM   17  C2  UNL     1      -0.733  21.507  65.561  1.00  0.00     0.034 C
HETATM   18  C1  UNL     1      -2.229  21.337  65.568  1.00  0.00     0.010 C
ENDBRANCH  15  17
ENDBRANCH   5   6
ENDBRANCH   3   5
ENDBRANCH   1   2
BRANCH   1  19
HETATM   19  C10 UNL     1       6.315  19.476  65.784  1.00  0.00     0.151 C
BRANCH  19  20
HETATM   20  C11 UNL     1       7.544  19.565  66.656  1.00  0.00     0.252 C
BRANCH  20  21
HETATM   21  N5  UNL     1       8.611  20.302  66.004  1.00  0.00    -0.072 N
ATOM     22  H52 UNL     1       8.817  21.167  66.504  1.00  0.00     0.277 HD
ATOM     23  H51 UNL     1       9.507  19.829  66.121  1.00  0.00     0.277 HD
BRANCH  21  24
HETATM   24  C12 UNL     1       8.341  20.557  64.627  1.00  0.00     0.258 C
BRANCH  24  25
HETATM   25  C13 UNL     1       8.341  22.017  64.244  1.00  0.00     0.191 C
BRANCH  25  26
HETATM   26  O1  UNL     1       7.574  22.159  63.097  1.00  0.00    -0.399 OA
ATOM     27  H1  UNL     1       8.120  22.551  62.426  1.00  0.00     0.209 HD
ENDBRANCH  25  26
ENDBRANCH  24  25
ENDBRANCH  21  24
ENDBRANCH  20  21
ENDBRANCH  19  20
ENDBRANCH   1  19
BRANCH   1  28
HETATM   28  C14 UNL     1       4.343  18.398  66.914  1.00  0.00     0.162 C
BRANCH  28  29
HETATM   29  C15 UNL     1       3.126  18.121  66.141  1.00  0.00    -0.034 A
HETATM   30  C16 UNL     1       1.876  18.297  66.676  1.00  0.00     0.026 A
HETATM   31  C17 UNL     1       0.750  18.035  65.905  1.00  0.00     0.092 A
HETATM   32  N6  UNL     1       0.855  17.611  64.631  1.00  0.00    -0.334 N
HETATM   33  C18 UNL     1       2.071  17.432  64.086  1.00  0.00     0.245 A
ATOM     34  H6  UNL     1       0.016  17.425  64.082  1.00  0.00     0.168 HD
HETATM   35  O2  UNL     1       2.138  17.034  62.894  1.00  0.00    -0.268 OA
HETATM   36  C19 UNL     1       3.220  17.690  64.846  1.00  0.00     0.083 A
ENDBRANCH  28  29
ENDBRANCH   1  28
TORSDOF 12
ENDMDL