MODEL 1
REMARK VINA RESULT: -7.144758761      0.000      0.000
REMARK  12 active torsions:
REMARK  status: ('A' for Active; 'I' for Inactive)
REMARK    1  A    between atoms: N1_1  and  C1_5
REMARK    2  A    between atoms: C1_5  and  C2_6
REMARK    3  A    between atoms: C2_6  and  C3_7
REMARK       I    between atoms: C3_7  and  N2_9
REMARK    4  A    between atoms: N2_9  and  C4_10
REMARK    5  A    between atoms: N2_9  and  C7_16
REMARK    6  A    between atoms: C4_10  and  C5_11
REMARK    7  A    between atoms: C5_11  and  N3_12
REMARK    8  A    between atoms: N3_12  and  C6_14
REMARK    9  A    between atoms: C7_16  and  C8_17
REMARK   10  A    between atoms: C8_17  and  O3_18
REMARK   11  A    between atoms: O3_18  and  C9_19
REMARK   12  A    between atoms: C14_26  and  C15_27
ROOT
HETATM    1  O3  UNL     1       1.766  22.643  67.053  1.00  0.00    -0.347 OA
ENDROOT
BRANCH   1   2
HETATM    2  C8  UNL     1       2.605  22.263  68.105  1.00  0.00     0.195 C
BRANCH   2   3
HETATM    3  C7  UNL     1       3.959  21.761  67.740  1.00  0.00     0.152 C
BRANCH   3   4
HETATM    4  N2  UNL     1       4.174  20.358  67.901  1.00  0.00    -0.349 N
HETATM    5  C3  UNL     1       5.152  19.686  67.101  1.00  0.00     0.221 C
HETATM    6  O1  UNL     1       5.229  18.431  67.200  1.00  0.00    -0.273 OA
BRANCH   5   7
HETATM    7  C2  UNL     1       6.030  20.428  66.209  1.00  0.00     0.130 C
BRANCH   7   8
HETATM    8  C1  UNL     1       7.475  20.001  66.488  1.00  0.00     0.238 C
BRANCH   8   9
HETATM    9  N1  UNL     1       7.718  20.251  67.896  1.00  0.00    -0.079 N
ATOM     10  H13 UNL     1       8.089  21.183  68.081  1.00  0.00     0.274 HD
ATOM     11  H12 UNL     1       6.862  20.342  68.443  1.00  0.00     0.274 HD
ATOM     12  H11 UNL     1       8.329  19.503  68.225  1.00  0.00     0.274 HD
ENDBRANCH   8   9
ENDBRANCH   7   8
ENDBRANCH   5   7
BRANCH   4  13
HETATM   13  C4  UNL     1       3.403  19.527  68.793  1.00  0.00     0.145 C
BRANCH  13  14
HETATM   14  C5  UNL     1       3.709  19.696  70.245  1.00  0.00     0.141 C
BRANCH  14  15
HETATM   15  N3  UNL     1       5.088  19.755  70.616  1.00  0.00    -0.367 N
ATOM     16  H3  UNL     1       5.648  18.905  70.553  1.00  0.00     0.161 HD
BRANCH  15  17
HETATM   17  C6  UNL     1       5.714  20.961  71.071  1.00  0.00     0.348 C
HETATM   18  O2  UNL     1       6.413  21.625  70.258  1.00  0.00    -0.284 OA
ENDBRANCH  15  17
ENDBRANCH  14  15
ENDBRANCH  13  14
ENDBRANCH   4  13
ENDBRANCH   3   4
ENDBRANCH   2   3
ENDBRANCH   1   2
BRANCH   1  19
HETATM   19  C9  UNL     1       0.541  21.994  66.955  1.00  0.00     0.097 A
HETATM   20  C10 UNL     1      -0.638  22.525  67.441  1.00  0.00     0.039 A
HETATM   21  C11 UNL     1      -1.852  21.866  67.336  1.00  0.00     0.005 A
HETATM   22  C12 UNL     1      -1.915  20.641  66.730  1.00  0.00     0.032 A
HETATM   23  C13 UNL     1      -0.752  20.089  66.236  1.00  0.00     0.063 A
HETATM   24  N4  UNL     1      -0.474  18.934  65.603  1.00  0.00    -0.339 N
HETATM   25  C19 UNL     1       0.466  20.756  66.345  1.00  0.00     0.094 A
HETATM   26  C14 UNL     1       0.842  18.863  65.324  1.00  0.00     0.133 A
ATOM     27  H4  UNL     1      -1.160  18.216  65.370  1.00  0.00     0.167 HD
HETATM   28  N6  UNL     1       1.424  19.984  65.779  1.00  0.00    -0.337 N
ATOM     29  H6  UNL     1       2.416  20.214  65.710  1.00  0.00     0.168 HD
BRANCH  26  30
HETATM   30  C15 UNL     1       1.469  17.729  64.636  1.00  0.00     0.076 A
HETATM   31  C16 UNL     1       2.686  17.143  64.911  1.00  0.00     0.035 A
HETATM   32  C17 UNL     1       2.916  16.102  64.036  1.00  0.00     0.019 A
HETATM   33  C18 UNL     1       1.805  16.067  63.215  1.00  0.00     0.088 A
HETATM   34  N5  UNL     1       0.963  17.045  63.595  1.00  0.00    -0.363 N
ATOM     35  H5  UNL     1       0.064  17.239  63.154  1.00  0.00     0.165 HD
ENDBRANCH  26  30
ENDBRANCH   1  19
TORSDOF 12
ENDMDL