MODEL 5
REMARK VINA RESULT: -7.385807632      2.215      6.952
REMARK  12 active torsions:
REMARK  status: ('A' for Active; 'I' for Inactive)
REMARK    1  A    between atoms: N1_1  and  C1_4
REMARK    2  A    between atoms: C4_12  and  C5_13
REMARK    3  A    between atoms: C5_13  and  C6_14
REMARK    4  A    between atoms: C6_14  and  C7_15
REMARK    5  A    between atoms: C10_18  and  O2_19
REMARK    6  A    between atoms: O2_19  and  C11_20
REMARK    7  A    between atoms: C11_20  and  C12_21
REMARK    8  A    between atoms: C12_21  and  O3_22
REMARK    9  A    between atoms: O3_22  and  C13_23
REMARK   10  A    between atoms: C13_23  and  C14_24
REMARK   11  A    between atoms: C14_24  and  C15_25
REMARK   12  A    between atoms: C15_25  and  C16_26
ROOT
HETATM    1  C5  UNL     1       1.644  22.795  67.980  1.00  0.00     0.081 C
ENDROOT
BRANCH   1   2
HETATM    2  C4  UNL     1       1.333  21.513  67.268  1.00  0.00     0.083 A
HETATM    3  N3  UNL     1       0.126  21.021  66.954  1.00  0.00    -0.338 N
HETATM    4  C3  UNL     1       0.308  19.858  66.324  1.00  0.00     0.148 A
ATOM      5  H3  UNL     1      -0.772  21.458  67.160  1.00  0.00     0.167 HD
HETATM    6  C2  UNL     1      -0.560  18.943  65.792  1.00  0.00     0.290 A
HETATM    7  C20 UNL     1       1.657  19.621  66.244  1.00  0.00     0.155 A
HETATM    8  N2  UNL     1      -0.071  17.838  65.205  1.00  0.00    -0.154 N
HETATM    9  O1  UNL     1      -1.805  19.106  65.835  1.00  0.00    -0.265 OA
HETATM   10  C1  UNL     1       1.248  17.596  65.121  1.00  0.00     0.680 A
ATOM     11  H2  UNL     1      -0.723  17.161  64.809  1.00  0.00     0.187 HD
HETATM   12  N6  UNL     1       2.113  18.482  65.637  1.00  0.00    -0.174 N
ATOM     13  H6  UNL     1       3.116  18.305  65.578  1.00  0.00     0.186 HD
HETATM   14  N5  UNL     1       2.267  20.656  66.832  1.00  0.00    -0.330 N
ATOM     15  H5  UNL     1       3.275  20.773  66.932  1.00  0.00     0.168 HD
BRANCH  10  16
HETATM   16  N1  UNL     1       1.692  16.511  64.544  1.00  0.00    -0.234 N
ATOM     17  H12 UNL     1       1.050  15.746  64.336  1.00  0.00     0.174 HD
ATOM     18  H11 UNL     1       2.677  16.418  64.298  1.00  0.00     0.174 HD
ENDBRANCH  10  16
ENDBRANCH   1   2
BRANCH   1  19
HETATM   19  C6  UNL     1       1.618  22.559  69.486  1.00  0.00     0.046 C
BRANCH  19  20
HETATM   20  C7  UNL     1       2.908  21.985  69.872  1.00  0.00    -0.058 A
HETATM   21  C8  UNL     1       4.058  22.649  69.496  1.00  0.00     0.010 A
HETATM   22  C9  UNL     1       5.308  22.133  69.844  1.00  0.00     0.037 A
HETATM   23  C10 UNL     1       5.361  20.957  70.566  1.00  0.00     0.068 A
HETATM   24  C18 UNL     1       4.201  20.307  70.932  1.00  0.00     0.037 A
HETATM   25  C19 UNL     1       2.946  20.801  70.598  1.00  0.00     0.010 A
BRANCH  23  26
HETATM   26  O2  UNL     1       6.596  20.398  70.939  1.00  0.00    -0.349 OA
BRANCH  26  27
HETATM   27  C11 UNL     1       7.808  20.952  70.348  1.00  0.00     0.201 C
BRANCH  27  28
HETATM   28  C12 UNL     1       8.304  19.857  69.455  1.00  0.00     0.194 C
BRANCH  28  29
HETATM   29  O3  UNL     1       7.814  19.643  68.263  1.00  0.00    -0.389 OA
BRANCH  29  30
HETATM   30  C13 UNL     1       6.915  18.814  67.802  1.00  0.00     0.167 C
BRANCH  30  31
HETATM   31  C14 UNL     1       5.764  19.459  67.075  1.00  0.00     0.029 C
BRANCH  31  32
HETATM   32  C15 UNL     1       6.219  20.711  66.362  1.00  0.00     0.032 C
BRANCH  32  33
HETATM   33  C16 UNL     1       7.230  20.286  65.305  1.00  0.00     0.119 A
HETATM   34  C17 UNL     1       7.812  21.447  64.569  1.00  0.00     0.081 A
HETATM   35  N4  UNL     1       8.560  20.693  65.370  1.00  0.00    -0.391 N
ATOM     36  H4  UNL     1       9.485  20.525  65.766  1.00  0.00     0.159 HD
ENDBRANCH  32  33
ENDBRANCH  31  32
ENDBRANCH  30  31
ENDBRANCH  29  30
ENDBRANCH  28  29
ENDBRANCH  27  28
ENDBRANCH  26  27
ENDBRANCH  23  26
ENDBRANCH  19  20
ENDBRANCH   1  19
TORSDOF 12
ENDMDL