MODEL 4
REMARK VINA RESULT: -7.932812531      1.282      2.153
REMARK  13 active torsions:
REMARK  status: ('A' for Active; 'I' for Inactive)
REMARK    1  A    between atoms: C2_2  and  C3_3
REMARK    2  A    between atoms: C3_3  and  O1_4
REMARK    3  A    between atoms: O1_4  and  C4_5
REMARK    4  A    between atoms: C7_8  and  C8_9
REMARK    5  A    between atoms: C8_9  and  C9_10
REMARK    6  A    between atoms: C9_10  and  N1_11
REMARK    7  A    between atoms: N1_11  and  C10_13
REMARK    8  A    between atoms: C10_13  and  C11_14
REMARK    9  A    between atoms: C11_14  and  O2_15
REMARK   10  A    between atoms: C11_14  and  C12_17
REMARK   11  A    between atoms: C16_21  and  N2_22
REMARK   12  A    between atoms: N2_22  and  S1_24
REMARK   13  A    between atoms: S1_24  and  N3_25
ROOT
HETATM    1  C11 UNL     1       0.913  22.159  66.836  1.00  0.00     0.168 C
ENDROOT
BRANCH   1   2
HETATM    2  C10 UNL     1       0.569  22.730  68.154  1.00  0.00     0.150 C
BRANCH   2   3
HETATM    3  N1  UNL     1       1.752  22.803  68.977  1.00  0.00    -0.418 N
ATOM      4  H1  UNL     1       2.644  23.148  68.623  1.00  0.00     0.153 HD
BRANCH   3   5
HETATM    5  C9  UNL     1       1.583  22.357  70.322  1.00  0.00     0.118 C
BRANCH   5   6
HETATM    6  C8  UNL     1       2.877  21.877  70.947  1.00  0.00     0.057 C
BRANCH   6   7
HETATM    7  C7  UNL     1       3.591  21.073  69.913  1.00  0.00    -0.057 A
HETATM    8  C6  UNL     1       3.166  19.842  69.524  1.00  0.00     0.010 A
HETATM    9  C5  UNL     1       3.821  19.097  68.570  1.00  0.00     0.037 A
HETATM   10  C4  UNL     1       4.943  19.609  67.987  1.00  0.00     0.069 A
HETATM   11  C19 UNL     1       5.403  20.867  68.365  1.00  0.00     0.037 A
HETATM   12  C18 UNL     1       4.733  21.597  69.322  1.00  0.00     0.010 A
BRANCH  10  13
HETATM   13  O1  UNL     1       5.644  18.903  67.020  1.00  0.00    -0.348 OA
BRANCH  13  14
HETATM   14  C3  UNL     1       5.810  19.448  65.730  1.00  0.00     0.202 C
BRANCH  14  15
HETATM   15  C2  UNL     1       7.232  19.789  65.506  1.00  0.00    -0.011 C
HETATM   16  C1  UNL     1       7.554  20.970  65.017  1.00  0.00     0.009 C
ENDBRANCH  14  15
ENDBRANCH  13  14
ENDBRANCH  10  13
ENDBRANCH   6   7
ENDBRANCH   5   6
ENDBRANCH   3   5
ENDBRANCH   2   3
ENDBRANCH   1   2
BRANCH   1  17
HETATM   17  O2  UNL     1       2.268  21.808  66.838  1.00  0.00    -0.389 OA
ATOM     18  H2  UNL     1       2.539  21.628  65.945  1.00  0.00     0.210 HD
ENDBRANCH   1  17
BRANCH   1  19
HETATM   19  C12 UNL     1       0.173  20.952  66.459  1.00  0.00    -0.026 A
HETATM   20  C13 UNL     1      -1.195  21.038  66.308  1.00  0.00     0.010 A
HETATM   21  C14 UNL     1      -1.964  19.950  65.951  1.00  0.00     0.003 A
HETATM   22  C15 UNL     1      -1.398  18.714  65.727  1.00  0.00     0.030 A
HETATM   23  C16 UNL     1      -0.033  18.593  65.869  1.00  0.00     0.044 A
HETATM   24  C17 UNL     1       0.730  19.717  66.234  1.00  0.00     0.039 A
BRANCH  23  25
HETATM   25  N2  UNL     1       0.665  17.375  65.655  1.00  0.00    -0.268 N
ATOM     26  H2  UNL     1       0.399  16.564  66.214  1.00  0.00     0.180 HD
BRANCH  25  27
HETATM   27  S1  UNL     1       1.920  17.190  64.523  1.00  0.00     0.317 S
HETATM   28  O3  UNL     1       3.273  17.072  65.219  1.00  0.00    -0.183 OA
HETATM   29  O4  UNL     1       2.022  18.316  63.546  1.00  0.00    -0.183 OA
BRANCH  27  30
HETATM   30  N3  UNL     1       1.698  15.706  63.666  1.00  0.00    -0.311 N
ATOM     31  H32 UNL     1       1.048  14.970  63.941  1.00  0.00     0.170 HD
ATOM     32  H31 UNL     1       2.314  15.692  62.853  1.00  0.00     0.170 HD
ENDBRANCH  27  30
ENDBRANCH  25  27
ENDBRANCH  23  25
ENDBRANCH   1  19
TORSDOF 13
ENDMDL