MODEL 1
REMARK VINA RESULT: -7.611421680      0.000      0.000
REMARK  11 active torsions:
REMARK  status: ('A' for Active; 'I' for Inactive)
REMARK    1  A    between atoms: C1_4  and  C2_6
REMARK    2  A    between atoms: C5_9  and  S1_10
REMARK    3  A    between atoms: S1_10  and  C6_12
REMARK    4  A    between atoms: C6_12  and  C7_13
REMARK    5  A    between atoms: C11_17  and  O2_18
REMARK    6  A    between atoms: O2_18  and  C12_19
REMARK    7  A    between atoms: C12_19  and  C13_20
REMARK    8  A    between atoms: C13_20  and  N3_21
REMARK    9  A    between atoms: N3_21  and  C14_24
REMARK   10  A    between atoms: C14_24  and  C15_25
REMARK   11  A    between atoms: C15_25  and  C16_26
ROOT
HETATM    1  C7  UNL     1      -0.061  22.068  67.449  1.00  0.00    -0.044 A
HETATM    2  C8  UNL     1      -1.424  21.986  67.648  1.00  0.00     0.008 A
HETATM    3  C9  UNL     1      -2.132  21.054  66.928  1.00  0.00     0.003 A
HETATM    4  C10 UNL     1      -1.482  20.222  66.027  1.00  0.00     0.037 A
HETATM    5  C11 UNL     1      -0.123  20.284  65.812  1.00  0.00     0.069 A
HETATM    6  C17 UNL     1       0.577  21.250  66.564  1.00  0.00     0.044 A
ENDROOT
BRANCH   1   7
HETATM    7  C6  UNL     1       0.749  23.065  68.206  1.00  0.00     0.152 C
BRANCH   7   8
HETATM    8  S1  UNL     1       2.430  22.540  68.127  1.00  0.00     0.054 S
HETATM    9  O1  UNL     1       3.485  23.756  67.705  1.00  0.00    -0.252 OA
BRANCH   8  10
HETATM   10  C5  UNL     1       2.927  21.643  69.525  1.00  0.00     0.031 A
HETATM   11  C4  UNL     1       3.171  20.299  69.430  1.00  0.00     0.022 A
HETATM   12  C3  UNL     1       3.563  19.602  70.546  1.00  0.00     0.016 A
HETATM   13  C2  UNL     1       3.724  20.209  71.772  1.00  0.00     0.005 A
HETATM   14  C19 UNL     1       3.469  21.575  71.837  1.00  0.00     0.016 A
HETATM   15  C18 UNL     1       3.078  22.285  70.739  1.00  0.00     0.022 A
BRANCH  13  16
HETATM   16  C1  UNL     1       4.144  19.469  72.969  1.00  0.00     0.120 C
HETATM   17  N1  UNL     1       5.154  18.688  72.987  1.00  0.00    -0.387 N
ATOM     18  H12 UNL     1       5.446  18.174  73.818  1.00  0.00     0.157 HD
ATOM     19  H11 UNL     1       5.703  18.563  72.137  1.00  0.00     0.157 HD
HETATM   20  N2  UNL     1       3.374  19.643  74.161  1.00  0.00    -0.082 NA
ENDBRANCH  13  16
ENDBRANCH   8  10
ENDBRANCH   7   8
ENDBRANCH   1   7
BRANCH   5  21
HETATM   21  O2  UNL     1       0.583  19.490  64.941  1.00  0.00    -0.349 OA
BRANCH  21  22
HETATM   22  C12 UNL     1       1.046  18.203  65.016  1.00  0.00     0.203 C
BRANCH  22  23
HETATM   23  C13 UNL     1       2.469  18.063  64.566  1.00  0.00     0.258 C
BRANCH  23  24
HETATM   24  N3  UNL     1       3.380  18.849  65.366  1.00  0.00    -0.073 N
ATOM     25  H32 UNL     1       4.184  19.171  64.826  1.00  0.00     0.277 HD
ATOM     26  H31 UNL     1       2.989  19.759  65.607  1.00  0.00     0.277 HD
BRANCH  24  27
HETATM   27  C14 UNL     1       3.775  18.103  66.532  1.00  0.00     0.241 C
BRANCH  27  28
HETATM   28  C15 UNL     1       5.139  18.474  66.995  1.00  0.00     0.127 C
BRANCH  28  29
HETATM   29  C16 UNL     1       5.648  19.647  66.189  1.00  0.00     0.232 C
HETATM   30  N4  UNL     1       5.398  20.935  66.738  1.00  0.00    -0.062 NA
HETATM   31  O3  UNL     1       6.251  19.491  65.106  1.00  0.00    -0.277 OA
ENDBRANCH  28  29
ENDBRANCH  27  28
ENDBRANCH  24  27
ENDBRANCH  23  24
ENDBRANCH  22  23
ENDBRANCH  21  22
ENDBRANCH   5  21
TORSDOF 11
ENDMDL