MODEL 3
REMARK VINA RESULT: -7.432025146      3.312      5.049
REMARK  12 active torsions:
REMARK  status: ('A' for Active; 'I' for Inactive)
REMARK    1  A    between atoms: C1_4  and  C2_6
REMARK    2  A    between atoms: C5_9  and  C6_10
REMARK    3  A    between atoms: C6_10  and  C7_11
REMARK    4  A    between atoms: C7_11  and  N3_12
REMARK    5  A    between atoms: N3_12  and  C8_15
REMARK    6  A    between atoms: C8_15  and  C9_16
REMARK    7  A    between atoms: C9_16  and  C10_17
REMARK    8  A    between atoms: C9_16  and  C17_25
REMARK    9  A    between atoms: C10_17  and  O1_18
REMARK   10  A    between atoms: O1_18  and  C11_19
REMARK   11  A    between atoms: C17_25  and  S1_26
REMARK   12  A    between atoms: S1_26  and  N4_27
ROOT
HETATM    1  C8  UNL     1       1.490  22.467  67.990  1.00  0.00     0.239 C
ENDROOT
BRANCH   1   2
HETATM    2  N3  UNL     1       0.079  22.337  68.244  1.00  0.00    -0.074 N
ATOM      3  H32 UNL     1      -0.212  22.992  68.970  1.00  0.00     0.277 HD
ATOM      4  H31 UNL     1      -0.116  21.453  68.715  1.00  0.00     0.277 HD
BRANCH   2   5
HETATM    5  C7  UNL     1      -0.734  22.473  67.111  1.00  0.00     0.237 C
BRANCH   5   6
HETATM    6  C6  UNL     1      -1.753  21.423  66.802  1.00  0.00     0.066 C
BRANCH   6   7
HETATM    7  C5  UNL     1      -0.967  20.258  66.211  1.00  0.00    -0.057 A
HETATM    8  C4  UNL     1      -1.242  18.956  66.514  1.00  0.00     0.008 A
HETATM    9  C3  UNL     1      -0.426  17.942  66.037  1.00  0.00     0.015 A
HETATM   10  C2  UNL     1       0.661  18.226  65.261  1.00  0.00     0.004 A
HETATM   11  C19 UNL     1       0.934  19.573  64.951  1.00  0.00     0.015 A
HETATM   12  C18 UNL     1       0.114  20.557  65.433  1.00  0.00     0.008 A
BRANCH  10  13
HETATM   13  C1  UNL     1       1.592  17.220  64.752  1.00  0.00     0.120 C
HETATM   14  N1  UNL     1       2.313  16.543  65.554  1.00  0.00    -0.387 N
ATOM     15  H12 UNL     1       2.962  15.842  65.198  1.00  0.00     0.157 HD
ATOM     16  H11 UNL     1       2.221  16.693  66.558  1.00  0.00     0.157 HD
HETATM   17  N2  UNL     1       1.720  17.012  63.363  1.00  0.00    -0.082 NA
ENDBRANCH  10  13
ENDBRANCH   6   7
ENDBRANCH   5   6
ENDBRANCH   2   5
ENDBRANCH   1   2
BRANCH   1  18
HETATM   18  C9  UNL     1       2.284  21.277  68.444  1.00  0.00     0.051 C
BRANCH  18  19
HETATM   19  C10 UNL     1       2.798  21.454  69.808  1.00  0.00     0.183 C
BRANCH  19  20
HETATM   20  O1  UNL     1       2.100  22.528  70.441  1.00  0.00    -0.351 OA
BRANCH  20  21
HETATM   21  C11 UNL     1       1.421  22.234  71.628  1.00  0.00     0.068 A
HETATM   22  C12 UNL     1       0.335  22.894  72.105  1.00  0.00     0.037 A
HETATM   23  C13 UNL     1      -0.290  22.542  73.291  1.00  0.00     0.003 A
HETATM   24  C14 UNL     1       0.221  21.461  74.026  1.00  0.00     0.000 A
HETATM   25  C15 UNL     1       1.321  20.786  73.554  1.00  0.00     0.003 A
HETATM   26  C16 UNL     1       1.917  21.165  72.370  1.00  0.00     0.037 A
ENDBRANCH  20  21
ENDBRANCH  19  20
ENDBRANCH  18  19
BRANCH  18  27
HETATM   27  C17 UNL     1       3.332  21.023  67.384  1.00  0.00     0.171 C
BRANCH  27  28
HETATM   28  S1  UNL     1       3.946  19.388  67.337  1.00  0.00     0.224 S
HETATM   29  O2  UNL     1       2.862  18.475  67.865  1.00  0.00    -0.206 OA
HETATM   30  O3  UNL     1       4.360  18.889  66.017  1.00  0.00    -0.206 OA
BRANCH  28  31
HETATM   31  N4  UNL     1       5.296  19.189  68.438  1.00  0.00    -0.328 N
ATOM     32  H42 UNL     1       6.265  19.094  68.132  1.00  0.00     0.168 HD
ATOM     33  H41 UNL     1       4.981  19.180  69.409  1.00  0.00     0.168 HD
ENDBRANCH  28  31
ENDBRANCH  27  28
ENDBRANCH  18  27
ENDBRANCH   1  18
TORSDOF 12
ENDMDL