MODEL 1
REMARK VINA RESULT: -6.856488663      0.000      0.000
REMARK  13 active torsions:
REMARK  status: ('A' for Active; 'I' for Inactive)
REMARK    1  A    between atoms: N1_1  and  S1_4
REMARK    2  A    between atoms: S1_4  and  C1_7
REMARK    3  A    between atoms: C4_10  and  C5_11
REMARK    4  A    between atoms: C5_11  and  C6_12
REMARK    5  A    between atoms: C6_12  and  N2_13
REMARK    6  A    between atoms: N2_13  and  C7_16
REMARK    7  A    between atoms: C7_16  and  C8_17
REMARK    8  A    between atoms: C8_17  and  C9_18
REMARK    9  A    between atoms: C9_18  and  O3_19
REMARK   10  A    between atoms: C9_18  and  N3_21
REMARK   11  A    between atoms: N3_21  and  C10_24
REMARK   12  A    between atoms: C10_24  and  C11_25
REMARK   13  A    between atoms: C12_26  and  C13_27
ROOT
HETATM    1  N2  UNL     1       1.634  17.344  65.842  1.00  0.00    -0.075 N
ATOM      2  H21 UNL     1       1.035  16.858  66.511  1.00  0.00     0.277 HD
ATOM      3  H22 UNL     1       1.786  16.595  65.166  1.00  0.00     0.277 HD
ENDROOT
BRANCH   1   4
HETATM    4  C6  UNL     1       2.872  17.717  66.461  1.00  0.00     0.237 C
BRANCH   4   5
HETATM    5  C5  UNL     1       3.704  18.696  65.705  1.00  0.00     0.066 C
BRANCH   5   6
HETATM    6  C4  UNL     1       5.061  18.920  66.265  1.00  0.00    -0.057 A
HETATM    7  C3  UNL     1       5.551  18.230  67.356  1.00  0.00     0.009 A
HETATM    8  C2  UNL     1       6.816  18.456  67.852  1.00  0.00     0.026 A
HETATM    9  C1  UNL     1       7.660  19.385  67.281  1.00  0.00     0.079 A
HETATM   10  C20 UNL     1       7.190  20.084  66.192  1.00  0.00     0.026 A
HETATM   11  C19 UNL     1       5.924  19.856  65.699  1.00  0.00     0.009 A
BRANCH   9  12
HETATM   12  S1  UNL     1       9.277  19.669  67.914  1.00  0.00     0.256 S
HETATM   13  O1  UNL     1      10.165  20.314  66.896  1.00  0.00    -0.201 OA
HETATM   14  O2  UNL     1       9.205  20.553  69.114  1.00  0.00    -0.201 OA
BRANCH  12  15
HETATM   15  N1  UNL     1       9.996  18.170  68.428  1.00  0.00    -0.324 N
ATOM     16  H12 UNL     1      10.949  18.073  68.777  1.00  0.00     0.169 HD
ATOM     17  H11 UNL     1       9.313  17.419  68.322  1.00  0.00     0.169 HD
ENDBRANCH  12  15
ENDBRANCH   9  12
ENDBRANCH   5   6
ENDBRANCH   4   5
ENDBRANCH   1   4
BRANCH   1  18
HETATM   18  C7  UNL     1       0.927  18.419  65.237  1.00  0.00     0.236 C
BRANCH  18  19
HETATM   19  C8  UNL     1      -0.450  18.638  65.823  1.00  0.00     0.088 C
BRANCH  19  20
HETATM   20  C9  UNL     1      -0.946  20.052  65.625  1.00  0.00     0.320 C
BRANCH  20  21
HETATM   21  O3  UNL     1      -1.737  20.386  66.733  1.00  0.00    -0.370 OA
ATOM     22  H3  UNL     1      -2.638  20.449  66.438  1.00  0.00     0.212 HD
ENDBRANCH  20  21
BRANCH  20  23
HETATM   23  N3  UNL     1       0.129  20.995  65.456  1.00  0.00    -0.046 N
ATOM     24  H32 UNL     1       1.040  20.538  65.496  1.00  0.00     0.280 HD
ATOM     25  H31 UNL     1       0.174  21.347  64.500  1.00  0.00     0.280 HD
BRANCH  23  26
HETATM   26  C10 UNL     1       0.032  22.054  66.402  1.00  0.00     0.263 C
BRANCH  26  27
HETATM   27  C11 UNL     1       1.336  22.086  67.185  1.00  0.00     0.001 C
HETATM   28  C12 UNL     1       1.752  21.027  67.793  1.00  0.00     0.009 C
BRANCH  28  29
HETATM   29  C13 UNL     1       2.983  20.997  68.552  1.00  0.00    -0.036 A
HETATM   30  C14 UNL     1       3.141  20.092  69.617  1.00  0.00     0.011 A
HETATM   31  C15 UNL     1       4.298  20.045  70.349  1.00  0.00     0.001 A
HETATM   32  C16 UNL     1       5.346  20.878  70.072  1.00  0.00     0.000 A
HETATM   33  C17 UNL     1       5.219  21.779  69.029  1.00  0.00     0.001 A
HETATM   34  C18 UNL     1       4.047  21.821  68.295  1.00  0.00     0.011 A
ENDBRANCH  28  29
ENDBRANCH  26  27
ENDBRANCH  23  26
ENDBRANCH  20  23
ENDBRANCH  19  20
ENDBRANCH  18  19
ENDBRANCH   1  18
TORSDOF 13
ENDMDL