MODEL 3
REMARK VINA RESULT: -7.432160519      3.392      6.170
REMARK  15 active torsions:
REMARK  status: ('A' for Active; 'I' for Inactive)
REMARK    1  A    between atoms: S1_2  and  C2_3
REMARK    2  A    between atoms: C2_3  and  C3_4
REMARK    3  A    between atoms: C3_4  and  C4_5
REMARK    4  A    between atoms: C4_5  and  C5_6
REMARK    5  A    between atoms: C5_6  and  N1_7
REMARK    6  A    between atoms: N1_7  and  C6_9
REMARK    7  A    between atoms: C7_12  and  N3_13
REMARK    8  A    between atoms: N3_13  and  C8_15
REMARK    9  A    between atoms: C8_15  and  C9_16
REMARK   10  A    between atoms: C9_16  and  C10_17
REMARK   11  A    between atoms: C10_17  and  O1_18
REMARK   12  A    between atoms: C11_22  and  N5_23
REMARK   13  A    between atoms: N5_23  and  C12_25
REMARK   14  A    between atoms: C12_25  and  C13_26
REMARK   15  A    between atoms: C13_26  and  C14_27
ROOT
HETATM    1  C6  UNL     1       4.475  19.282  68.234  1.00  0.00     0.707 A
HETATM    2  N2  UNL     1       5.459  19.737  67.442  1.00  0.00    -0.022 N
ATOM      3  H2  UNL     1       6.230  20.251  67.869  1.00  0.00     0.203 HD
HETATM    4  C7  UNL     1       5.474  19.545  66.111  1.00  0.00     0.707 A
HETATM    5  N4  UNL     1       4.451  18.866  65.578  1.00  0.00    -0.022 N
ATOM      6  H4  UNL     1       4.446  18.711  64.570  1.00  0.00     0.203 HD
HETATM    7  C11 UNL     1       3.408  18.368  66.320  1.00  0.00     0.707 A
HETATM    8  N6  UNL     1       3.455  18.595  67.641  1.00  0.00    -0.022 N
ATOM      9  H6  UNL     1       2.698  18.241  68.226  1.00  0.00     0.203 HD
ENDROOT
BRANCH   7  10
HETATM   10  N5  UNL     1       2.477  17.731  65.712  1.00  0.00    -0.225 N
ATOM     11  H5  UNL     1       2.486  16.711  65.713  1.00  0.00     0.177 HD
BRANCH  10  12
HETATM   12  C12 UNL     1       1.421  18.424  65.031  1.00  0.00     0.142 C
BRANCH  12  13
HETATM   13  C13 UNL     1       0.152  18.286  65.863  1.00  0.00     0.058 C
BRANCH  13  14
HETATM   14  C14 UNL     1      -0.345  19.643  66.175  1.00  0.00    -0.057 A
HETATM   15  C15 UNL     1       0.525  20.691  66.476  1.00  0.00     0.007 A
HETATM   16  C16 UNL     1       0.055  21.950  66.765  1.00  0.00     0.001 A
HETATM   17  C17 UNL     1      -1.292  22.203  66.764  1.00  0.00     0.000 A
HETATM   18  C18 UNL     1      -2.171  21.181  66.471  1.00  0.00     0.001 A
HETATM   19  C19 UNL     1      -1.686  19.927  66.183  1.00  0.00     0.007 A
ENDBRANCH  13  14
ENDBRANCH  12  13
ENDBRANCH  10  12
ENDBRANCH   7  10
BRANCH   4  20
HETATM   20  N3  UNL     1       6.453  20.016  65.449  1.00  0.00    -0.225 N
ATOM     21  H3  UNL     1       6.230  20.772  64.801  1.00  0.00     0.177 HD
BRANCH  20  22
HETATM   22  C8  UNL     1       7.815  19.623  65.500  1.00  0.00     0.140 C
BRANCH  22  23
HETATM   23  C9  UNL     1       8.582  20.469  64.489  1.00  0.00     0.046 C
BRANCH  23  24
HETATM   24  C10 UNL     1       8.017  21.870  64.414  1.00  0.00     0.165 C
BRANCH  24  25
HETATM   25  O1  UNL     1       7.603  22.108  63.108  1.00  0.00    -0.401 OA
ATOM     26  H1  UNL     1       8.260  22.640  62.676  1.00  0.00     0.209 HD
ENDBRANCH  24  25
ENDBRANCH  23  24
ENDBRANCH  22  23
ENDBRANCH  20  22
ENDBRANCH   4  20
BRANCH   1  27
HETATM   27  N1  UNL     1       4.429  19.445  69.505  1.00  0.00    -0.225 N
ATOM     28  H1  UNL     1       4.459  18.611  70.092  1.00  0.00     0.177 HD
BRANCH  27  29
HETATM   29  C5  UNL     1       4.337  20.717  70.159  1.00  0.00     0.138 C
BRANCH  29  30
HETATM   30  C4  UNL     1       2.912  20.787  70.751  1.00  0.00     0.021 C
BRANCH  30  31
HETATM   31  C3  UNL     1       2.143  21.674  69.811  1.00  0.00     0.012 C
BRANCH  31  32
HETATM   32  C2  UNL     1       1.583  22.916  70.400  1.00  0.00     0.073 C
BRANCH  32  33
HETATM   33  S1  UNL     1       2.599  24.373  70.224  1.00  0.00    -0.173 SA
HETATM   34  C1  UNL     1       3.742  24.331  68.848  1.00  0.00     0.089 C
ENDBRANCH  32  33
ENDBRANCH  31  32
ENDBRANCH  30  31
ENDBRANCH  29  30
ENDBRANCH  27  29
ENDBRANCH   1  27
TORSDOF 15
ENDMDL