MODEL 4
REMARK VINA RESULT: -7.432904931      1.840      2.352
REMARK  11 active torsions:
REMARK  status: ('A' for Active; 'I' for Inactive)
REMARK    1  A    between atoms: C2_2  and  C3_3
REMARK    2  A    between atoms: N2_6  and  C4_7
REMARK    3  A    between atoms: C4_7  and  C5_8
REMARK    4  A    between atoms: C5_8  and  C6_9
REMARK    5  A    between atoms: C13_18  and  N4_19
REMARK    6  A    between atoms: N6_25  and  C15_27
REMARK    7  A    between atoms: C15_27  and  C16_28
REMARK    8  A    between atoms: C16_28  and  N7_29
REMARK    9  A    between atoms: N7_29  and  C17_31
REMARK   10  A    between atoms: C17_31  and  C18_32
REMARK   11  A    between atoms: N8_33  and  C19_35
ROOT
HETATM    1  C3  UNL     1       6.176  19.673  66.335  1.00  0.00     0.043 A
HETATM    2  N1  UNL     1       4.875  19.553  65.988  1.00  0.00    -0.300 N
ATOM      3  H1  UNL     1       4.528  19.458  65.034  1.00  0.00     0.187 HD
HETATM    4  N2  UNL     1       4.111  19.579  67.082  1.00  0.00    -0.275 N
HETATM    5  C12 UNL     1       4.927  19.716  68.155  1.00  0.00     0.153 A
HETATM    6  N3  UNL     1       4.610  19.789  69.458  1.00  0.00    -0.174 N
ATOM      7  H3  UNL     1       3.637  19.740  69.758  1.00  0.00     0.186 HD
HETATM    8  C13 UNL     1       5.611  19.927  70.369  1.00  0.00     0.679 A
HETATM    9  N5  UNL     1       6.875  19.986  69.931  1.00  0.00    -0.176 N
ATOM     10  H5  UNL     1       7.612  20.090  70.628  1.00  0.00     0.186 HD
HETATM   11  C14 UNL     1       7.248  19.918  68.641  1.00  0.00     0.133 A
HETATM   12  N6  UNL     1       8.473  19.971  68.239  1.00  0.00    -0.373 N
ATOM     13  H6  UNL     1       8.630  19.910  67.234  1.00  0.00     0.161 HD
HETATM   14  C20 UNL     1       6.236  19.778  67.706  1.00  0.00     0.078 A
ENDROOT
BRANCH  12  15
HETATM   15  C15 UNL     1       9.629  20.107  69.064  1.00  0.00     0.140 C
BRANCH  15  16
HETATM   16  C16 UNL     1      10.500  18.872  69.026  1.00  0.00     0.133 C
BRANCH  16  17
HETATM   17  N7  UNL     1      10.160  18.002  67.937  1.00  0.00    -0.415 N
ATOM     18  H7  UNL     1       9.235  17.582  67.839  1.00  0.00     0.153 HD
BRANCH  17  19
HETATM   19  C17 UNL     1      11.216  17.766  66.997  1.00  0.00     0.158 C
BRANCH  19  20
HETATM   20  C18 UNL     1      10.711  18.059  65.641  1.00  0.00     0.082 C
HETATM   21  N8  UNL     1      10.909  19.196  65.111  1.00  0.00    -0.346 N
ATOM     22  H8  UNL     1      10.538  19.346  64.173  1.00  0.00     0.167 HD
BRANCH  21  23
HETATM   23  C19 UNL     1      11.597  20.268  65.713  1.00  0.00     0.352 C
HETATM   24  O1  UNL     1      11.008  21.325  66.021  1.00  0.00    -0.283 OA
ENDBRANCH  21  23
ENDBRANCH  19  20
ENDBRANCH  17  19
ENDBRANCH  16  17
ENDBRANCH  15  16
ENDBRANCH  12  15
BRANCH   8  25
HETATM   25  N4  UNL     1       5.313  20.000  71.644  1.00  0.00    -0.234 N
ATOM     26  H42 UNL     1       4.465  20.459  71.976  1.00  0.00     0.174 HD
ATOM     27  H41 UNL     1       5.945  19.586  72.329  1.00  0.00     0.174 HD
ENDBRANCH   8  25
BRANCH   1  28
HETATM   28  C2  UNL     1       7.343  19.691  65.414  1.00  0.00     0.055 C
HETATM   29  C1  UNL     1       7.618  21.077  64.865  1.00  0.00     0.011 C
ENDBRANCH   1  28
BRANCH   4  30
HETATM   30  C4  UNL     1       2.672  19.473  67.108  1.00  0.00     0.155 C
BRANCH  30  31
HETATM   31  C5  UNL     1       2.070  20.835  67.172  1.00  0.00     0.060 C
BRANCH  31  32
HETATM   32  C6  UNL     1       0.637  20.856  66.837  1.00  0.00    -0.057 A
HETATM   33  C7  UNL     1      -0.076  19.787  66.347  1.00  0.00     0.007 A
HETATM   34  C8  UNL     1      -1.431  19.868  66.049  1.00  0.00     0.001 A
HETATM   35  C9  UNL     1      -2.113  21.070  66.246  1.00  0.00     0.000 A
HETATM   36  C10 UNL     1      -1.414  22.140  66.732  1.00  0.00     0.001 A
HETATM   37  C11 UNL     1      -0.057  22.034  67.023  1.00  0.00     0.007 A
ENDBRANCH  31  32
ENDBRANCH  30  31
ENDBRANCH   4  30
TORSDOF 11
ENDMDL