MODEL 1
REMARK VINA RESULT: -7.607667149      0.000      0.000
REMARK  13 active torsions:
REMARK  status: ('A' for Active; 'I' for Inactive)
REMARK       I    between atoms: C1_4  and  N3_6
REMARK    1  A    between atoms: N3_6  and  C2_8
REMARK    2  A    between atoms: C2_8  and  C3_9
REMARK    3  A    between atoms: C3_9  and  C4_10
REMARK    4  A    between atoms: C4_10  and  O2_12
REMARK    5  A    between atoms: O2_12  and  C5_13
REMARK    6  A    between atoms: C5_13  and  C6_14
REMARK    7  A    between atoms: C6_14  and  C7_15
REMARK    8  A    between atoms: C10_18  and  O3_19
REMARK    9  A    between atoms: O3_19  and  C11_20
REMARK   10  A    between atoms: C11_20  and  C12_21
REMARK   11  A    between atoms: C12_21  and  C13_22
REMARK   12  A    between atoms: C16_25  and  C17_26
REMARK   13  A    between atoms: C17_26  and  N4_27
ROOT
HETATM    1  C7  UNL     1      -0.742  21.873  66.789  1.00  0.00    -0.056 A
HETATM    2  C8  UNL     1      -1.243  22.085  68.057  1.00  0.00     0.010 A
HETATM    3  C9  UNL     1      -0.450  22.531  69.097  1.00  0.00     0.037 A
HETATM    4  C10 UNL     1       0.891  22.785  68.903  1.00  0.00     0.068 A
HETATM    5  C20 UNL     1       1.393  22.574  67.637  1.00  0.00     0.037 A
HETATM    6  C21 UNL     1       0.601  22.127  66.598  1.00  0.00     0.010 A
ENDROOT
BRANCH   1   7
HETATM    7  C6  UNL     1      -1.603  21.388  65.661  1.00  0.00     0.065 C
BRANCH   7   8
HETATM    8  C5  UNL     1      -1.800  19.890  65.756  1.00  0.00     0.183 C
BRANCH   8   9
HETATM    9  O2  UNL     1      -0.685  19.164  65.360  1.00  0.00    -0.321 OA
BRANCH   9  10
HETATM   10  C4  UNL     1      -0.008  18.269  66.135  1.00  0.00     0.260 C
HETATM   11  O1  UNL     1      -0.595  17.285  66.640  1.00  0.00    -0.265 OA
BRANCH  10  12
HETATM   12  C3  UNL     1       1.461  18.450  66.396  1.00  0.00     0.130 C
BRANCH  12  13
HETATM   13  C2  UNL     1       2.209  17.236  65.839  1.00  0.00     0.132 C
BRANCH  13  14
HETATM   14  N3  UNL     1       1.458  16.621  64.768  1.00  0.00    -0.364 N
HETATM   15  C1  UNL     1       2.162  16.219  63.614  1.00  0.00     0.181 C
HETATM   16  N1  UNL     1       2.405  14.978  63.408  1.00  0.00    -0.374 N
HETATM   17  N2  UNL     1       2.598  17.185  62.688  1.00  0.00    -0.064 NA
ATOM     18  H12 UNL     1       2.914  14.687  62.574  1.00  0.00     0.158 HD
ATOM     19  H11 UNL     1       2.089  14.277  64.079  1.00  0.00     0.158 HD
ATOM     20  H3  UNL     1       0.451  16.483  64.845  1.00  0.00     0.162 HD
ENDBRANCH  13  14
ENDBRANCH  12  13
ENDBRANCH  10  12
ENDBRANCH   9  10
ENDBRANCH   8   9
ENDBRANCH   7   8
ENDBRANCH   1   7
BRANCH   4  21
HETATM   21  O3  UNL     1       1.720  23.235  69.925  1.00  0.00    -0.351 OA
BRANCH  21  22
HETATM   22  C11 UNL     1       1.888  22.540  71.120  1.00  0.00     0.180 C
BRANCH  22  23
HETATM   23  C12 UNL     1       3.389  22.286  71.298  1.00  0.00     0.065 C
BRANCH  23  24
HETATM   24  C13 UNL     1       3.882  21.378  70.243  1.00  0.00    -0.056 A
HETATM   25  C14 UNL     1       3.327  20.115  70.165  1.00  0.00     0.007 A
HETATM   26  C15 UNL     1       3.779  19.244  69.178  1.00  0.00     0.009 A
HETATM   27  C16 UNL     1       4.761  19.604  68.276  1.00  0.00    -0.033 A
HETATM   28  C18 UNL     1       5.294  20.872  68.380  1.00  0.00     0.009 A
HETATM   29  C19 UNL     1       4.868  21.753  69.345  1.00  0.00     0.007 A
BRANCH  27  30
HETATM   30  C17 UNL     1       5.236  18.655  67.218  1.00  0.00     0.268 C
BRANCH  30  31
HETATM   31  N4  UNL     1       5.354  19.331  65.959  1.00  0.00    -0.075 N
ATOM     32  H43 UNL     1       4.959  18.783  65.195  1.00  0.00     0.274 HD
ATOM     33  H42 UNL     1       4.734  20.139  65.902  1.00  0.00     0.274 HD
ATOM     34  H41 UNL     1       6.327  19.585  65.783  1.00  0.00     0.274 HD
ENDBRANCH  30  31
ENDBRANCH  27  30
ENDBRANCH  23  24
ENDBRANCH  22  23
ENDBRANCH  21  22
ENDBRANCH   4  21
TORSDOF 13
ENDMDL