MODEL 5
REMARK VINA RESULT: -6.669210864      2.185      6.448
REMARK  3 active torsions:
REMARK  status: ('A' for Active; 'I' for Inactive)
REMARK       I    between atoms: N1_2  and  C3_4
REMARK    1  A    between atoms: C3_4  and  C4_6
REMARK    2  A    between atoms: C4_6  and  N2_7
REMARK    3  A    between atoms: N2_7  and  C5_10
ROOT
HETATM    1  C5  UNL     1      -4.084   4.140  12.885  1.00  0.00     0.210 C
HETATM    2  C6  UNL     1      -3.023   4.565  11.915  1.00  0.00     0.204 C
HETATM    3  O2  UNL     1      -3.122   5.943  11.593  1.00  0.00    -0.352 OA
HETATM    4  C7  UNL     1      -4.437   6.237  11.365  1.00  0.00     0.171 C
HETATM    5  O3  UNL     1      -5.070   5.364  10.510  1.00  0.00    -0.354 OA
HETATM    6  C8  UNL     1      -4.728   5.744   9.227  1.00  0.00     0.172 C
HETATM    7  C9  UNL     1      -4.890   7.247   9.240  1.00  0.00     0.036 C
HETATM    8  C10 UNL     1      -4.670   7.566  10.698  1.00  0.00     0.050 C
HETATM    9  C11 UNL     1      -5.890   8.240  11.229  1.00  0.00     0.010 C
HETATM   10  C12 UNL     1      -7.017   7.345  11.615  1.00  0.00     0.001 C
HETATM   11  C13 UNL     1      -6.582   6.158  12.466  1.00  0.00     0.010 C
HETATM   12  C14 UNL     1      -5.127   6.343  12.731  1.00  0.00     0.050 C
HETATM   13  C15 UNL     1      -4.495   5.376  13.665  1.00  0.00     0.045 C
ENDROOT
BRANCH   1  14
HETATM   14  N2  UNL     1      -3.718   3.098  13.798  1.00  0.00    -0.061 N
ATOM     15  H22 UNL     1      -2.791   2.723  13.594  1.00  0.00     0.278 HD
ATOM     16  H21 UNL     1      -4.263   2.250  13.642  1.00  0.00     0.278 HD
BRANCH  14  17
HETATM   17  C4  UNL     1      -3.820   3.555  15.153  1.00  0.00     0.335 C
BRANCH  17  18
HETATM   18  C3  UNL     1      -4.216   2.454  16.079  1.00  0.00     0.244 C
HETATM   19  N1  UNL     1      -5.467   2.437  16.748  1.00  0.00    -0.359 N
HETATM   20  C1  UNL     1      -6.369   3.550  16.498  1.00  0.00     0.152 C
HETATM   21  C2  UNL     1      -5.840   1.359  17.647  1.00  0.00     0.152 C
HETATM   22  O1  UNL     1      -3.396   1.516  16.259  1.00  0.00    -0.272 OA
ENDBRANCH  17  18
ENDBRANCH  14  17
ENDBRANCH   1  14
TORSDOF 3
ENDMDL