MODEL 1
REMARK VINA RESULT: -7.283419911      0.000      0.000
REMARK  2 active torsions:
REMARK  status: ('A' for Active; 'I' for Inactive)
REMARK    1  A    between atoms: C2_2  and  C3_3
REMARK    2  A    between atoms: C3_3  and  C4_4
ROOT
HETATM    1  C4  UNL     1      -4.703   4.094  12.748  1.00  0.00     0.006 A
HETATM    2  C5  UNL     1      -4.534   3.177  11.491  1.00  0.00     0.190 C
HETATM    3  C6  UNL     1      -3.243   2.625  11.282  1.00  0.00     0.307 C
HETATM    4  N1  UNL     1      -1.942   2.999  10.995  1.00  0.00     0.093 N
HETATM    5  C7  UNL     1      -1.221   1.723  11.100  1.00  0.00     0.272 C
HETATM    6  C8  UNL     1      -1.909   0.550  10.472  1.00  0.00     0.032 C
HETATM    7  C9  UNL     1      -2.817  -0.303  11.261  1.00  0.00     0.023 C
HETATM    8  C10 UNL     1      -4.323  -0.067  11.142  1.00  0.00     0.146 C
HETATM    9  N2  UNL     1      -4.858   0.929  12.012  1.00  0.00    -0.302 N
ATOM     10  H2  UNL     1      -4.837   0.752  13.016  1.00  0.00     0.187 HD
HETATM   11  O1  UNL     1      -5.374   2.052  11.597  1.00  0.00    -0.277 OA
HETATM   12  C11 UNL     1      -1.353   3.959  11.920  1.00  0.00     0.309 C
HETATM   13  C12 UNL     1      -2.418   4.964  12.074  1.00  0.00     0.261 C
HETATM   14  N3  UNL     1      -2.155   6.142  12.842  1.00  0.00     0.096 N
HETATM   15  C13 UNL     1      -1.542   5.524  14.030  1.00  0.00     0.274 C
HETATM   16  C14 UNL     1      -2.654   4.502  14.336  1.00  0.00     0.043 C
HETATM   17  C15 UNL     1      -3.408   4.389  13.073  1.00  0.00     0.011 A
HETATM   18  C16 UNL     1      -4.458   5.506  12.700  1.00  0.00     0.037 A
HETATM   19  C17 UNL     1      -3.519   6.480  13.317  1.00  0.00     0.279 C
ENDROOT
BRANCH   1  20
HETATM   20  C3  UNL     1      -5.689   3.538  13.695  1.00  0.00     0.013 C
BRANCH  20  21
HETATM   21  C2  UNL     1      -6.401   4.415  14.641  1.00  0.00    -0.004 C
HETATM   22  C1  UNL     1      -6.228   4.089  16.104  1.00  0.00     0.005 C
ENDBRANCH  20  21
ENDBRANCH   1  20
TORSDOF 2
ENDMDL