MODEL 1
REMARK VINA RESULT: -7.046018813      0.000      0.000
REMARK  4 active torsions:
REMARK  status: ('A' for Active; 'I' for Inactive)
REMARK    1  A    between atoms: O1_1  and  C1_3
REMARK    2  A    between atoms: C3_5  and  C4_6
REMARK    3  A    between atoms: C4_6  and  N1_7
REMARK    4  A    between atoms: C10_13  and  N2_14
ROOT
HETATM    1  N1  UNL     1      -6.078   3.229  14.772  1.00  0.00     0.089 N
HETATM    2  C5  UNL     1      -6.636   4.410  14.079  1.00  0.00     0.277 C
HETATM    3  C6  UNL     1      -5.387   5.146  13.598  1.00  0.00     0.022 C
HETATM    4  C7  UNL     1      -5.578   6.096  12.508  1.00  0.00     0.007 C
HETATM    5  C8  UNL     1      -4.275   6.431  11.849  1.00  0.00     0.002 C
HETATM    6  C9  UNL     1      -3.429   5.220  11.524  1.00  0.00     0.036 C
HETATM    7  C10 UNL     1      -3.295   4.268  12.689  1.00  0.00     0.229 C
HETATM    8  C15 UNL     1      -4.631   3.897  13.150  1.00  0.00     0.053 C
HETATM    9  C16 UNL     1      -4.670   3.193  14.512  1.00  0.00     0.279 C
ENDROOT
BRANCH   1  10
HETATM   10  C4  UNL     1      -6.475   3.268  16.157  1.00  0.00     0.279 C
BRANCH  10  11
HETATM   11  C3  UNL     1      -5.496   2.301  16.850  1.00  0.00     0.045 A
HETATM   12  C1  UNL     1      -5.988   0.894  17.158  1.00  0.00     0.124 A
HETATM   13  C2  UNL     1      -5.879   1.897  18.252  1.00  0.00     0.041 A
BRANCH  12  14
HETATM   14  O1  UNL     1      -7.209   0.527  16.605  1.00  0.00    -0.395 OA
ATOM     15  H1  UNL     1      -7.586  -0.335  16.732  1.00  0.00     0.210 HD
ENDBRANCH  12  14
ENDBRANCH  10  11
ENDBRANCH   1  10
BRANCH   7  16
HETATM   16  N2  UNL     1      -2.591   3.064  12.269  1.00  0.00     0.097 N
HETATM   17  C11 UNL     1      -1.335   3.485  11.670  1.00  0.00     0.299 C
HETATM   18  C12 UNL     1      -1.047   2.818  10.362  1.00  0.00     0.198 C
HETATM   19  O2  UNL     1      -1.230   1.441  10.405  1.00  0.00    -0.388 OA
HETATM   20  C13 UNL     1      -2.454   1.088  10.957  1.00  0.00     0.198 C
HETATM   21  C14 UNL     1      -3.314   2.325  11.256  1.00  0.00     0.299 C
ENDBRANCH   7  16
TORSDOF 4
ENDMDL