MODEL 5
REMARK VINA RESULT: -6.156494861      2.045      3.210
REMARK  5 active torsions:
REMARK  status: ('A' for Active; 'I' for Inactive)
REMARK    1  A    between atoms: C1_2  and  N1_3
REMARK    2  A    between atoms: C1_2  and  N3_12
REMARK    3  A    between atoms: N1_3  and  C2_5
REMARK    4  A    between atoms: C2_5  and  C3_6
REMARK    5  A    between atoms: C3_6  and  N2_7
ROOT
HETATM    1  S1  UNL     1      -4.519   1.765  11.096  1.00  0.00    -0.041 SA
HETATM    2  C1  UNL     1      -4.111   2.317  12.601  1.00  0.00     0.172 C
ENDROOT
BRANCH   2   3
HETATM    3  N1  UNL     1      -4.088   1.349  13.637  1.00  0.00    -0.365 N
ATOM      4  H1  UNL     1      -4.008   0.369  13.367  1.00  0.00     0.161 HD
BRANCH   3   5
HETATM    5  C2  UNL     1      -4.170   1.650  15.048  1.00  0.00     0.152 C
BRANCH   5   6
HETATM    6  C3  UNL     1      -4.866   0.575  15.815  1.00  0.00     0.292 C
BRANCH   6   7
HETATM    7  N2  UNL     1      -6.076   1.125  16.447  1.00  0.00     0.090 N
HETATM    8  C4  UNL     1      -5.914   1.104  17.893  1.00  0.00     0.272 C
HETATM    9  C5  UNL     1      -6.207   2.459  18.436  1.00  0.00     0.032 C
HETATM   10  C6  UNL     1      -6.730   3.222  17.245  1.00  0.00     0.032 C
HETATM   11  C7  UNL     1      -6.057   2.544  16.084  1.00  0.00     0.272 C
ENDBRANCH   6   7
ENDBRANCH   5   6
ENDBRANCH   3   5
ENDBRANCH   2   3
BRANCH   2  12
HETATM   12  N3  UNL     1      -3.798   3.669  12.777  1.00  0.00    -0.327 N
HETATM   13  C8  UNL     1      -4.893   4.610  13.035  1.00  0.00     0.091 C
HETATM   14  C9  UNL     1      -4.709   5.340  14.346  1.00  0.00     0.026 C
HETATM   15  C14 UNL     1      -4.791   5.653  11.929  1.00  0.00     0.051 C
HETATM   16  C10 UNL     1      -3.305   5.887  14.461  1.00  0.00     0.006 C
HETATM   17  C11 UNL     1      -2.244   4.851  14.183  1.00  0.00     0.054 C
HETATM   18  C12 UNL     1      -2.487   4.276  12.773  1.00  0.00     0.225 C
HETATM   19  O1  UNL     1      -2.398   5.371  11.911  1.00  0.00    -0.366 OA
HETATM   20  C13 UNL     1      -3.527   5.496  11.112  1.00  0.00     0.172 C
ENDBRANCH   2  12
TORSDOF 5
ENDMDL