MODEL 1
REMARK VINA RESULT: -7.051332820      0.000      0.000
REMARK  4 active torsions:
REMARK  status: ('A' for Active; 'I' for Inactive)
REMARK    1  A    between atoms: C2_2  and  N1_3
REMARK    2  A    between atoms: C2_2  and  C13_17
REMARK    3  A    between atoms: N1_3  and  C3_5
REMARK    4  A    between atoms: C3_5  and  C4_6
REMARK       I    between atoms: C13_17  and  N2_19
ROOT
HETATM    1  C4  UNL     1      -4.224   4.508  14.761  1.00  0.00     0.074 C
HETATM    2  C5  UNL     1      -4.341   5.899  15.330  1.00  0.00     0.047 C
HETATM    3  C6  UNL     1      -5.510   4.190  14.037  1.00  0.00     0.042 C
HETATM    4  C7  UNL     1      -5.927   2.853  14.609  1.00  0.00     0.041 C
HETATM    5  C8  UNL     1      -5.206   2.876  15.946  1.00  0.00     0.066 C
HETATM    6  C9  UNL     1      -4.970   1.433  16.344  1.00  0.00     0.064 C
HETATM    7  C10 UNL     1      -6.304   0.861  16.761  1.00  0.00     0.170 C
HETATM    8  O1  UNL     1      -6.659   1.390  17.974  1.00  0.00    -0.391 OA
HETATM    9  C11 UNL     1      -6.216   2.657  18.235  1.00  0.00     0.170 C
HETATM   10  C12 UNL     1      -6.018   3.518  17.025  1.00  0.00     0.064 C
HETATM   11  O2  UNL     1      -4.006   3.522  15.682  1.00  0.00    -0.368 OA
ENDROOT
BRANCH   1  12
HETATM   12  C3  UNL     1      -3.047   4.530  13.779  1.00  0.00     0.152 C
BRANCH  12  13
HETATM   13  N1  UNL     1      -2.911   3.227  13.236  1.00  0.00    -0.407 N
ATOM     14  H1  UNL     1      -2.864   2.399  13.830  1.00  0.00     0.154 HD
BRANCH  13  15
HETATM   15  C2  UNL     1      -2.844   3.140  11.809  1.00  0.00     0.165 C
HETATM   16  C1  UNL     1      -1.802   4.026  11.204  1.00  0.00     0.042 C
BRANCH  15  17
HETATM   17  C13 UNL     1      -2.524   1.733  11.447  1.00  0.00     0.241 C
HETATM   18  O3  UNL     1      -1.317   1.335  11.416  1.00  0.00    -0.271 OA
HETATM   19  N2  UNL     1      -3.554   0.808  11.128  1.00  0.00    -0.359 N
HETATM   20  C14 UNL     1      -3.197  -0.564  10.772  1.00  0.00     0.152 C
HETATM   21  C15 UNL     1      -4.943   1.169  11.144  1.00  0.00     0.152 C
ENDBRANCH  15  17
ENDBRANCH  13  15
ENDBRANCH  12  13
ENDBRANCH   1  12
TORSDOF 4
ENDMDL