MODEL 1
REMARK VINA RESULT: -6.911896283      0.000      0.000
REMARK  4 active torsions:
REMARK  status: ('A' for Active; 'I' for Inactive)
REMARK    1  A    between atoms: C2_2  and  N1_3
REMARK    2  A    between atoms: C4_5  and  O1_6
REMARK    3  A    between atoms: N2_13  and  C10_14
REMARK    4  A    between atoms: C10_14  and  C11_15
ROOT
HETATM    1  N1  UNL     1      -1.982   1.880  10.851  1.00  0.00    -0.365 N
HETATM    2  C3  UNL     1      -0.943   2.772  10.639  1.00  0.00     0.156 C
HETATM    3  C4  UNL     1      -1.688   4.005  10.098  1.00  0.00     0.144 C
HETATM    4  C5  UNL     1      -3.002   3.930  10.842  1.00  0.00     0.068 C
HETATM    5  C6  UNL     1      -2.850   4.716  12.125  1.00  0.00     0.050 C
HETATM    6  C7  UNL     1      -3.582   3.820  13.107  1.00  0.00     0.070 C
HETATM    7  C8  UNL     1      -5.063   4.079  12.904  1.00  0.00     0.058 C
HETATM    8  C9  UNL     1      -5.762   3.350  14.064  1.00  0.00     0.130 C
HETATM    9  N2  UNL     1      -5.487   4.090  15.229  1.00  0.00    -0.373 N
HETATM   10  C14 UNL     1      -4.203   4.629  15.411  1.00  0.00     0.066 C
HETATM   11  C15 UNL     1      -3.135   4.055  14.521  1.00  0.00     0.083 C
HETATM   12  O2  UNL     1      -3.201   2.561  12.710  1.00  0.00    -0.355 OA
HETATM   13  C16 UNL     1      -3.143   2.494  11.342  1.00  0.00     0.230 C
ENDROOT
BRANCH   3  14
HETATM   14  O1  UNL     1      -0.999   5.170  10.329  1.00  0.00    -0.393 OA
ATOM     15  H1  UNL     1      -0.110   5.134   9.997  1.00  0.00     0.210 HD
ENDBRANCH   3  14
BRANCH   9  16
HETATM   16  C10 UNL     1      -6.403   4.092  16.290  1.00  0.00     0.067 C
BRANCH  16  17
HETATM   17  C11 UNL     1      -6.716   2.759  16.910  1.00  0.00     0.024 A
HETATM   18  C12 UNL     1      -5.528   1.923  17.254  1.00  0.00     0.010 A
HETATM   19  C13 UNL     1      -6.343   2.541  18.379  1.00  0.00     0.010 A
ENDBRANCH  16  17
ENDBRANCH   9  16
BRANCH   1  20
HETATM   20  C2  UNL     1      -1.777   0.523  10.973  1.00  0.00     0.056 C
HETATM   21  C1  UNL     1      -2.994  -0.350  10.793  1.00  0.00     0.054 C
ENDBRANCH   1  20
TORSDOF 4
ENDMDL