MODEL 5
REMARK VINA RESULT: -6.273303330      2.239      3.267
REMARK  3 active torsions:
REMARK  status: ('A' for Active; 'I' for Inactive)
REMARK    1  A    between atoms: C1_2  and  C2_3
REMARK       I    between atoms: C1_2  and  N2_10
REMARK    2  A    between atoms: C2_3  and  N1_4
REMARK    3  A    between atoms: N2_10  and  C7_12
ROOT
HETATM    1  O1  UNL     1      -6.265   4.862  13.624  1.00  0.00    -0.272 OA
HETATM    2  C1  UNL     1      -5.649   4.682  14.717  1.00  0.00     0.246 C
HETATM    3  N2  UNL     1      -4.355   5.234  14.912  1.00  0.00    -0.353 N
ATOM      4  H2  UNL     1      -3.872   5.078  15.796  1.00  0.00     0.163 HD
ENDROOT
BRANCH   3   5
HETATM    5  C7  UNL     1      -3.709   6.013  13.877  1.00  0.00     0.117 C
HETATM    6  C8  UNL     1      -2.670   6.903  14.498  1.00  0.00     0.027 C
HETATM    7  C9  UNL     1      -2.295   8.051  13.621  1.00  0.00     0.004 C
HETATM    8  C10 UNL     1      -1.784   7.652  12.275  1.00  0.00     0.030 C
HETATM    9  C11 UNL     1      -2.871   7.065  11.437  1.00  0.00     0.273 C
HETATM   10  N3  UNL     1      -3.048   5.677  11.523  1.00  0.00     0.095 N
HETATM   11  C12 UNL     1      -2.158   4.860  10.774  1.00  0.00     0.273 C
HETATM   12  C15 UNL     1      -3.208   5.111  12.811  1.00  0.00     0.245 C
HETATM   13  C13 UNL     1      -1.461   3.950  11.741  1.00  0.00     0.032 C
HETATM   14  C14 UNL     1      -1.928   4.389  13.133  1.00  0.00     0.040 C
ENDBRANCH   3   5
BRANCH   2  15
HETATM   15  C2  UNL     1      -6.335   3.879  15.760  1.00  0.00     0.374 C
BRANCH  15  16
HETATM   16  N1  UNL     1      -5.424   2.981  16.419  1.00  0.00     0.101 N
HETATM   17  C3  UNL     1      -6.069   2.426  17.594  1.00  0.00     0.299 C
HETATM   18  C4  UNL     1      -7.055   1.348  17.181  1.00  0.00     0.198 C
HETATM   19  O2  UNL     1      -6.451   0.298  16.535  1.00  0.00    -0.388 OA
HETATM   20  C5  UNL     1      -5.145   0.547  16.171  1.00  0.00     0.198 C
HETATM   21  C6  UNL     1      -4.973   1.919  15.548  1.00  0.00     0.299 C
ENDBRANCH  15  16
ENDBRANCH   2  15
TORSDOF 3
ENDMDL