MODEL 4
REMARK VINA RESULT: -7.544828870      0.940      1.536
REMARK  5 active torsions:
REMARK  status: ('A' for Active; 'I' for Inactive)
REMARK       I    between atoms: C1_2  and  N1_3
REMARK    1  A    between atoms: C1_2  and  C6_12
REMARK    2  A    between atoms: N1_3  and  C2_5
REMARK       I    between atoms: C6_12  and  N3_14
REMARK    3  A    between atoms: N3_14  and  C7_16
REMARK    4  A    between atoms: C7_16  and  C8_17
REMARK    5  A    between atoms: C8_17  and  C9_18
ROOT
HETATM    1  C6  UNL     1      -3.057   4.393  14.052  1.00  0.00     0.309 C
HETATM    2  O2  UNL     1      -2.621   3.912  15.134  1.00  0.00    -0.262 OA
HETATM    3  N3  UNL     1      -4.270   5.138  14.084  1.00  0.00    -0.353 N
ATOM      4  H3  UNL     1      -4.637   5.534  13.219  1.00  0.00     0.162 HD
ENDROOT
BRANCH   1   5
HETATM    5  C1  UNL     1      -2.353   4.203  12.796  1.00  0.00     0.314 C
HETATM    6  O1  UNL     1      -1.131   4.448  12.700  1.00  0.00    -0.262 OA
HETATM    7  N1  UNL     1      -3.077   3.732  11.677  1.00  0.00    -0.312 N
ATOM      8  H1  UNL     1      -3.490   4.375  11.001  1.00  0.00     0.170 HD
BRANCH   7   9
HETATM    9  C2  UNL     1      -3.193   2.456  11.547  1.00  0.00     0.093 A
HETATM   10  C3  UNL     1      -4.357   1.769  11.813  1.00  0.00     0.040 A
HETATM   11  C4  UNL     1      -4.529   0.426  11.692  1.00  0.00     0.020 A
HETATM   12  C5  UNL     1      -3.600  -0.495  11.288  1.00  0.00     0.096 A
HETATM   13  N2  UNL     1      -2.337  -0.182  10.943  1.00  0.00    -0.335 N
HETATM   14  S1  UNL     1      -1.913   1.441  11.024  1.00  0.00     0.003 SA
ATOM     15  H2  UNL     1      -1.671  -0.895  10.647  1.00  0.00     0.173 HD
ENDBRANCH   7   9
ENDBRANCH   1   5
BRANCH   3  16
HETATM   16  C7  UNL     1      -4.994   5.344  15.324  1.00  0.00     0.128 C
BRANCH  16  17
HETATM   17  C8  UNL     1      -6.190   4.464  15.326  1.00  0.00     0.058 C
BRANCH  17  18
HETATM   18  C9  UNL     1      -6.052   3.226  16.092  1.00  0.00    -0.057 A
HETATM   19  C10 UNL     1      -5.534   2.077  15.531  1.00  0.00     0.007 A
HETATM   20  C11 UNL     1      -5.439   0.957  16.320  1.00  0.00     0.001 A
HETATM   21  C12 UNL     1      -5.835   0.927  17.639  1.00  0.00     0.000 A
HETATM   22  C13 UNL     1      -6.348   2.062  18.199  1.00  0.00     0.001 A
HETATM   23  C14 UNL     1      -6.451   3.207  17.413  1.00  0.00     0.007 A
ENDBRANCH  17  18
ENDBRANCH  16  17
ENDBRANCH   3  16
TORSDOF 5
ENDMDL