MODEL 1
REMARK VINA RESULT: -6.480854873      0.000      0.000
REMARK  3 active torsions:
REMARK  status: ('A' for Active; 'I' for Inactive)
REMARK    1  A    between atoms: C3_3  and  N1_4
REMARK    2  A    between atoms: N2_10  and  C8_11
REMARK    3  A    between atoms: C8_11  and  C9_12
ROOT
HETATM    1  N1  UNL     1      -2.461   4.197  12.972  1.00  0.00    -0.386 N
HETATM    2  C4  UNL     1      -1.992   4.922  14.114  1.00  0.00     0.148 C
HETATM    3  C5  UNL     1      -2.801   6.168  14.287  1.00  0.00     0.188 C
HETATM    4  O1  UNL     1      -3.925   6.146  13.530  1.00  0.00    -0.382 OA
HETATM    5  C6  UNL     1      -4.937   5.324  13.833  1.00  0.00     0.160 C
HETATM    6  C7  UNL     1      -5.277   5.191  15.314  1.00  0.00     0.305 C
HETATM    7  N2  UNL     1      -6.367   4.205  15.177  1.00  0.00     0.092 N
HETATM    8  C12 UNL     1      -5.640   3.174  14.456  1.00  0.00     0.285 C
HETATM    9  C13 UNL     1      -4.886   3.912  13.354  1.00  0.00     0.083 C
HETATM   10  C14 UNL     1      -3.526   3.329  13.200  1.00  0.00     0.067 C
ENDROOT
BRANCH   1  11
HETATM   11  C3  UNL     1      -2.113   4.656  11.718  1.00  0.00     0.086 C
HETATM   12  C2  UNL     1      -0.691   5.120  11.538  1.00  0.00     0.052 C
HETATM   13  C1  UNL     1      -0.241   4.926  10.102  1.00  0.00     0.234 C
HETATM   14  N3  UNL     1      -0.068   3.521   9.785  1.00  0.00    -0.075 N
HETATM   15  C16 UNL     1      -1.118   2.783  10.464  1.00  0.00     0.234 C
ATOM     16  H32 UNL     1      -0.043   3.342   8.781  1.00  0.00     0.277 HD
ATOM     17  H31 UNL     1       0.865   3.177  10.008  1.00  0.00     0.277 HD
HETATM   18  C15 UNL     1      -2.371   3.657  10.622  1.00  0.00     0.052 C
ENDBRANCH   1  11
BRANCH   7  19
HETATM   19  C8  UNL     1      -6.642   3.696  16.498  1.00  0.00     0.277 C
BRANCH  19  20
HETATM   20  C9  UNL     1      -6.206   2.261  16.684  1.00  0.00     0.014 A
HETATM   21  C10 UNL     1      -6.273   1.789  18.126  1.00  0.00     0.007 A
HETATM   22  C11 UNL     1      -7.180   1.231  17.122  1.00  0.00     0.007 A
ENDBRANCH  19  20
ENDBRANCH   7  19
TORSDOF 3
ENDMDL