MODEL 4
REMARK VINA RESULT: -7.638678349      1.261      1.423
REMARK  5 active torsions:
REMARK  status: ('A' for Active; 'I' for Inactive)
REMARK       I    between atoms: C1_2  and  N1_3
REMARK    1  A    between atoms: C1_2  and  C8_20
REMARK    2  A    between atoms: C2_5  and  C3_6
REMARK    3  A    between atoms: C2_5  and  N3_10
REMARK    4  A    between atoms: C3_6  and  N2_7
REMARK    5  A    between atoms: N3_10  and  C4_12
ROOT
HETATM    1  O1  UNL     1      -5.984   4.044  13.115  1.00  0.00    -0.267 OA
HETATM    2  C1  UNL     1      -5.150   3.404  13.804  1.00  0.00     0.257 C
HETATM    3  N1  UNL     1      -3.896   3.003  13.307  1.00  0.00    -0.310 N
ATOM      4  H1  UNL     1      -3.073   3.431  13.732  1.00  0.00     0.170 HD
HETATM    5  C2  UNL     1      -3.692   2.161  12.381  1.00  0.00     0.124 C
ENDROOT
BRANCH   5   6
HETATM    6  C3  UNL     1      -4.833   1.495  11.714  1.00  0.00     0.278 C
BRANCH   6   7
HETATM    7  N2  UNL     1      -4.481   0.206  11.183  1.00  0.00    -0.148 N
HETATM    8  O2  UNL     1      -4.471  -0.777  11.946  1.00  0.00    -0.536 OA
HETATM    9  O3  UNL     1      -4.168   0.113   9.851  1.00  0.00    -0.536 OA
ENDBRANCH   6   7
ENDBRANCH   5   6
BRANCH   5  10
HETATM   10  N3  UNL     1      -2.359   1.867  11.997  1.00  0.00    -0.178 N
ATOM     11  H3  UNL     1      -2.000   0.925  12.155  1.00  0.00     0.185 HD
BRANCH  10  12
HETATM   12  C4  UNL     1      -1.585   2.742  11.457  1.00  0.00     0.683 A
HETATM   13  N4  UNL     1      -0.377   3.079  11.945  1.00  0.00    -0.202 N
HETATM   14  C5  UNL     1       0.378   4.005  11.325  1.00  0.00     0.107 A
ATOM     15  H4  UNL     1      -0.031   2.629  12.792  1.00  0.00     0.183 HD
HETATM   16  C6  UNL     1      -0.039   4.645  10.177  1.00  0.00     0.035 A
HETATM   17  C7  UNL     1      -1.282   4.289   9.687  1.00  0.00     0.107 A
HETATM   18  N5  UNL     1      -2.002   3.360  10.338  1.00  0.00    -0.202 N
ATOM     19  H5  UNL     1      -2.916   3.110   9.963  1.00  0.00     0.183 HD
ENDBRANCH  10  12
ENDBRANCH   5  10
BRANCH   2  20
HETATM   20  C8  UNL     1      -5.513   3.072  15.173  1.00  0.00     0.032 A
HETATM   21  C9  UNL     1      -5.069   1.915  15.794  1.00  0.00     0.017 A
HETATM   22  C10 UNL     1      -5.392   1.578  17.077  1.00  0.00     0.001 A
HETATM   23  C11 UNL     1      -6.204   2.431  17.796  1.00  0.00     0.000 A
HETATM   24  C12 UNL     1      -6.668   3.593  17.215  1.00  0.00     0.001 A
HETATM   25  C13 UNL     1      -6.322   3.905  15.913  1.00  0.00     0.017 A
ENDBRANCH   2  20
TORSDOF 5
ENDMDL