MODEL 5
REMARK VINA RESULT: -8.022622897      1.550      2.287
REMARK  11 active torsions:
REMARK  status: ('A' for Active; 'I' for Inactive)
REMARK    1  A    between atoms: C2_2  and  O1_3
REMARK    2  A    between atoms: O1_3  and  C3_4
REMARK    3  A    between atoms: C3_4  and  C4_6
REMARK    4  A    between atoms: C8_12  and  C9_13
REMARK    5  A    between atoms: C9_13  and  S2_14
REMARK    6  A    between atoms: S2_14  and  C10_15
REMARK    7  A    between atoms: C11_20  and  N4_21
REMARK    8  A    between atoms: N4_21  and  C12_22
REMARK    9  A    between atoms: C12_22  and  S3_23
REMARK   10  A    between atoms: C12_22  and  C14_25
REMARK   11  A    between atoms: C12_22  and  C15_28
ROOT
HETATM    1  C10 UNL     1      16.675  14.905  27.241  1.00  0.00     0.131 A
HETATM    2  N2  UNL     1      15.904  16.052  27.235  1.00  0.00    -0.285 N
ATOM      3  H2  UNL     1      15.062  16.080  27.808  1.00  0.00     0.188 HD
HETATM    4  N3  UNL     1      16.190  17.016  26.579  1.00  0.00    -0.267 N
ATOM      5  H3  UNL     1      15.600  17.848  26.604  1.00  0.00     0.190 HD
HETATM    6  C11 UNL     1      17.347  16.988  25.774  1.00  0.00     0.235 A
HETATM    7  S4  UNL     1      17.898  15.438  26.141  1.00  0.00    -0.012 SA
ENDROOT
BRANCH   1   8
HETATM    8  S2  UNL     1      16.249  13.476  28.064  1.00  0.00    -0.099 SA
BRANCH   8   9
HETATM    9  C9  UNL     1      15.826  11.915  27.795  1.00  0.00     0.122 C
BRANCH   9  10
HETATM   10  C8  UNL     1      15.135  11.095  28.925  1.00  0.00    -0.017 A
HETATM   11  C4  UNL     1      13.741  11.140  28.973  1.00  0.00     0.078 A
HETATM   12  C5  UNL     1      13.135  10.324  29.845  1.00  0.00     0.104 A
HETATM   13  N1  UNL     1      11.742  10.171  30.164  1.00  0.00    -0.093 NA
HETATM   14  S1  UNL     1      14.433   9.486  30.599  1.00  0.00    -0.079 SA
HETATM   15  C6  UNL     1      15.732  10.231  29.742  1.00  0.00    -0.011 A
HETATM   16  C7  UNL     1      17.218   9.838  29.808  1.00  0.00     0.057 C
BRANCH  11  17
HETATM   17  C3  UNL     1      12.911  12.025  28.082  1.00  0.00     0.296 C
HETATM   18  O2  UNL     1      12.578  11.572  26.936  1.00  0.00    -0.259 OA
BRANCH  17  19
HETATM   19  O1  UNL     1      12.481  13.236  28.354  1.00  0.00    -0.318 OA
BRANCH  19  20
HETATM   20  C2  UNL     1      12.648  14.543  28.018  1.00  0.00     0.174 C
HETATM   21  C1  UNL     1      13.124  15.393  29.214  1.00  0.00     0.034 C
ENDBRANCH  19  20
ENDBRANCH  17  19
ENDBRANCH  11  17
ENDBRANCH   9  10
ENDBRANCH   8   9
ENDBRANCH   1   8
BRANCH   6  22
HETATM   22  N4  UNL     1      17.594  17.955  25.069  1.00  0.00    -0.388 NA
BRANCH  22  23
HETATM   23  C12 UNL     1      18.226  19.041  24.572  1.00  0.00     0.260 C
BRANCH  23  24
HETATM   24  S3  UNL     1      19.170  19.930  25.858  1.00  0.00    -0.117 SA
HETATM   25  C13 UNL     1      19.403  21.645  25.456  1.00  0.00     0.094 C
ENDBRANCH  23  24
BRANCH  23  26
HETATM   26  C14 UNL     1      17.197  20.076  24.016  1.00  0.00     0.410 C
HETATM   27  F1  UNL     1      16.088  19.495  23.536  1.00  0.00    -0.209 F
HETATM   28  F2  UNL     1      17.854  20.742  23.007  1.00  0.00    -0.209 F
ENDBRANCH  23  26
BRANCH  23  29
HETATM   29  C15 UNL     1      19.088  18.653  23.384  1.00  0.00     0.410 C
HETATM   30  F3  UNL     1      20.392  19.152  23.601  1.00  0.00    -0.209 F
HETATM   31  F4  UNL     1      19.135  17.309  23.241  1.00  0.00    -0.209 F
ENDBRANCH  23  29
ENDBRANCH  22  23
ENDBRANCH   6  22
TORSDOF 11
ENDMDL