MODEL 2
REMARK VINA RESULT: -9.037394569      2.075      2.666
REMARK  11 active torsions:
REMARK  status: ('A' for Active; 'I' for Inactive)
REMARK    1  A    between atoms: C2_2  and  C3_7
REMARK    2  A    between atoms: N1_3  and  O1_5
REMARK    3  A    between atoms: C3_7  and  N2_8
REMARK    4  A    between atoms: C3_7  and  C16_32
REMARK    5  A    between atoms: N2_8  and  C4_10
REMARK    6  A    between atoms: C4_10  and  C5_11
REMARK    7  A    between atoms: C8_14  and  C9_15
REMARK    8  A    between atoms: C10_19  and  C11_20
REMARK    9  A    between atoms: C11_20  and  O3_21
REMARK   10  A    between atoms: O3_21  and  C12_22
REMARK   11  A    between atoms: C12_22  and  C13_24
ROOT
HETATM    1  C5  UNL     1      14.599  14.836  28.268  1.00  0.00    -0.021 A
HETATM    2  C6  UNL     1      14.141  15.840  27.456  1.00  0.00     0.014 A
HETATM    3  C7  UNL     1      14.938  16.458  26.518  1.00  0.00     0.016 A
HETATM    4  C8  UNL     1      16.240  16.061  26.380  1.00  0.00     0.010 A
HETATM    5  C14 UNL     1      16.724  15.053  27.184  1.00  0.00     0.016 A
HETATM    6  C15 UNL     1      15.901  14.432  28.136  1.00  0.00     0.014 A
ENDROOT
BRANCH   4   7
HETATM    7  C9  UNL     1      17.079  16.726  25.378  1.00  0.00     0.137 A
HETATM    8  N3  UNL     1      17.748  16.116  24.391  1.00  0.00    -0.242 N
HETATM    9  O2  UNL     1      18.370  17.000  23.714  1.00  0.00    -0.220 OA
ATOM     10  H3  UNL     1      17.758  15.112  24.210  1.00  0.00     0.196 HD
HETATM   11  C10 UNL     1      18.155  18.180  24.196  1.00  0.00     0.172 A
HETATM   12  N4  UNL     1      17.331  18.049  25.265  1.00  0.00    -0.321 N
ATOM     13  H4  UNL     1      16.976  18.795  25.862  1.00  0.00     0.169 HD
BRANCH  11  14
HETATM   14  C11 UNL     1      18.731  19.431  23.642  1.00  0.00     0.265 C
BRANCH  14  15
HETATM   15  O3  UNL     1      17.867  20.524  23.668  1.00  0.00    -0.310 OA
BRANCH  15  16
HETATM   16  C12 UNL     1      18.236  21.808  24.017  1.00  0.00     0.314 C
HETATM   17  O4  UNL     1      19.164  21.988  24.844  1.00  0.00    -0.260 OA
BRANCH  16  18
HETATM   18  C13 UNL     1      17.507  22.952  23.389  1.00  0.00     0.276 C
HETATM   19 CL1  UNL     1      15.809  22.421  23.154  1.00  0.00    -0.073 Cl
HETATM   20 CL2  UNL     1      17.524  24.338  24.475  1.00  0.00    -0.073 Cl
HETATM   21 CL3  UNL     1      18.211  23.352  21.818  1.00  0.00    -0.073 Cl
ENDBRANCH  16  18
ENDBRANCH  15  16
ENDBRANCH  14  15
ENDBRANCH  11  14
ENDBRANCH   4   7
BRANCH   1  22
HETATM   22  C4  UNL     1      13.656  14.229  29.259  1.00  0.00     0.099 C
BRANCH  22  23
HETATM   23  N2  UNL     1      13.136  12.997  28.841  1.00  0.00    -0.365 N
ATOM     24  H2  UNL     1      12.540  12.964  28.014  1.00  0.00     0.165 HD
BRANCH  23  25
HETATM   25  C3  UNL     1      13.415  11.805  29.532  1.00  0.00     0.056 C
BRANCH  25  26
HETATM   26  C2  UNL     1      14.660  11.102  29.251  1.00  0.00     0.052 C
HETATM   27  C1  UNL     1      15.699  10.653  30.186  1.00  0.00     0.072 C
HETATM   28  N1  UNL     1      14.913  10.815  27.985  1.00  0.00    -0.272 N
ATOM     29  H1  UNL     1      15.777  10.322  27.760  1.00  0.00     0.194 HD
BRANCH  28  30
HETATM   30  O1  UNL     1      14.078  11.147  26.976  1.00  0.00    -0.290 OA
ATOM     31  H1  UNL     1      14.164  11.952  26.477  1.00  0.00     0.244 HD
ENDBRANCH  28  30
ENDBRANCH  25  26
BRANCH  25  32
HETATM   32  C16 UNL     1      12.188  10.979  29.742  1.00  0.00     0.074 C
HETATM   33  C17 UNL     1      12.478   9.760  30.621  1.00  0.00     0.039 C
HETATM   34  C18 UNL     1      11.407  10.612  28.533  1.00  0.00     0.039 C
HETATM   35 CL4  UNL     1      11.085  12.006  30.743  1.00  0.00    -0.113 Cl
ENDBRANCH  25  32
ENDBRANCH  23  25
ENDBRANCH  22  23
ENDBRANCH   1  22
TORSDOF 11
ENDMDL