MODEL 4
REMARK VINA RESULT: -8.638260175      2.862      8.754
REMARK  9 active torsions:
REMARK  status: ('A' for Active; 'I' for Inactive)
REMARK    1  A    between atoms: O1_2  and  C2_3
REMARK    2  A    between atoms: C7_8  and  N1_9
REMARK       I    between atoms: N1_9  and  C8_11
REMARK    3  A    between atoms: C8_11  and  C9_13
REMARK    4  A    between atoms: C9_13  and  C10_15
REMARK    5  A    between atoms: C10_15  and  C11_17
REMARK    6  A    between atoms: C11_17  and  C16_30
REMARK    7  A    between atoms: N2_18  and  N3_20
REMARK    8  A    between atoms: N3_20  and  C12_22
REMARK    9  A    between atoms: C15_26  and  N4_27
ROOT
HETATM    1  C11 UNL     1      16.867  14.392  27.913  1.00  0.00     0.121 C
HETATM    2  N2  UNL     1      15.725  14.633  28.439  1.00  0.00    -0.295 N
ATOM      3  H2  UNL     1      15.448  15.592  28.227  1.00  0.00     0.187 HD
ENDROOT
BRANCH   1   4
HETATM    4  C10 UNL     1      17.419  15.545  27.182  1.00  0.00     0.206 C
HETATM    5  O3  UNL     1      18.322  16.244  27.606  1.00  0.00    -0.288 OA
BRANCH   4   6
HETATM    6  C9  UNL     1      16.839  15.893  25.825  1.00  0.00     0.250 C
HETATM    7 CL1  UNL     1      15.124  16.277  26.037  1.00  0.00    -0.106 Cl
BRANCH   6   8
HETATM    8  C8  UNL     1      17.566  17.069  25.263  1.00  0.00     0.248 C
HETATM    9  N1  UNL     1      17.527  18.316  25.906  1.00  0.00    -0.323 N
ATOM     10  H1  UNL     1      16.975  18.350  26.763  1.00  0.00     0.169 HD
HETATM   11  O2  UNL     1      18.202  16.896  24.210  1.00  0.00    -0.271 OA
BRANCH   9  12
HETATM   12  C7  UNL     1      18.142  19.527  25.536  1.00  0.00     0.068 A
HETATM   13  C2  UNL     1      17.430  20.383  24.673  1.00  0.00     0.095 A
HETATM   14  C3  UNL     1      17.949  21.590  24.262  1.00  0.00     0.039 A
HETATM   15  C4  UNL     1      19.184  22.024  24.671  1.00  0.00     0.003 A
HETATM   16  C5  UNL     1      19.896  21.204  25.513  1.00  0.00     0.002 A
HETATM   17  C6  UNL     1      19.374  19.968  25.938  1.00  0.00     0.032 A
BRANCH  13  18
HETATM   18  O1  UNL     1      16.174  19.968  24.241  1.00  0.00    -0.354 OA
HETATM   19  C1  UNL     1      16.058  19.408  22.962  1.00  0.00     0.210 C
ENDBRANCH  13  18
ENDBRANCH   9  12
ENDBRANCH   6   8
ENDBRANCH   4   6
ENDBRANCH   1   4
BRANCH   1  20
HETATM   20  C16 UNL     1      17.515  13.123  28.035  1.00  0.00     0.116 C
HETATM   21 CL2  UNL     1      16.327  11.741  27.727  1.00  0.00    -0.077 Cl
HETATM   22  C17 UNL     1      18.713  12.716  28.302  1.00  0.00     0.210 C
HETATM   23  F1  UNL     1      18.830  11.297  28.297  1.00  0.00    -0.191 F
HETATM   24 CL3  UNL     1      20.146  13.595  28.655  1.00  0.00    -0.050 Cl
ENDBRANCH   1  20
BRANCH   2  25
HETATM   25  N3  UNL     1      14.780  14.050  29.169  1.00  0.00    -0.296 N
ATOM     26  H3  UNL     1      15.068  13.420  29.918  1.00  0.00     0.187 HD
BRANCH  25  27
HETATM   27  C12 UNL     1      13.363  14.263  28.957  1.00  0.00     0.107 A
HETATM   28  C13 UNL     1      12.701  15.336  28.430  1.00  0.00     0.060 A
HETATM   29  C14 UNL     1      11.359  15.025  28.449  1.00  0.00     0.147 A
HETATM   30  O4  UNL     1      11.244  13.827  28.964  1.00  0.00    -0.299 OA
HETATM   31  C15 UNL     1      12.398  13.323  29.285  1.00  0.00     0.243 A
BRANCH  31  32
HETATM   32  N4  UNL     1      12.651  12.050  29.864  1.00  0.00    -0.088 N
HETATM   33  O5  UNL     1      13.787  11.572  29.981  1.00  0.00    -0.530 OA
HETATM   34  O6  UNL     1      11.605  11.287  30.324  1.00  0.00    -0.530 OA
ENDBRANCH  31  32
ENDBRANCH  25  27
ENDBRANCH   2  25
TORSDOF 9
ENDMDL