MODEL 2
REMARK VINA RESULT: -8.127850733      0.741      1.214
REMARK  12 active torsions:
REMARK  status: ('A' for Active; 'I' for Inactive)
REMARK    1  A    between atoms: O1_2  and  C2_3
REMARK    2  A    between atoms: C3_4  and  C4_5
REMARK    3  A    between atoms: N1_8  and  O3_10
REMARK    4  A    between atoms: C7_13  and  C8_14
REMARK    5  A    between atoms: C8_14  and  C9_15
REMARK    6  A    between atoms: C9_15  and  C10_16
REMARK    7  A    between atoms: C10_16  and  C11_17
REMARK    8  A    between atoms: N2_20  and  O4_22
REMARK    9  A    between atoms: C16_27  and  O5_28
REMARK   10  A    between atoms: O5_28  and  C17_29
REMARK   11  A    between atoms: C17_29  and  C20_32
REMARK   12  A    between atoms: C21_36  and  O6_37
ROOT
HETATM    1  C2  UNL     1      13.346  10.290  29.599  1.00  0.00     0.113 A
HETATM    2  C3  UNL     1      13.721  11.563  29.125  1.00  0.00     0.011 A
HETATM    3  C14 UNL     1      12.769  12.530  29.182  1.00  0.00     0.058 A
HETATM    4  C15 UNL     1      11.517  12.299  29.664  1.00  0.00     0.153 A
HETATM    5  F1  UNL     1      10.647  13.347  29.673  1.00  0.00    -0.203 F
HETATM    6  C16 UNL     1      11.089  11.032  30.150  1.00  0.00     0.144 A
HETATM    7  C21 UNL     1      12.068  10.064  30.088  1.00  0.00     0.139 A
ENDROOT
BRANCH   2   8
HETATM    8  C4  UNL     1      15.069  11.692  28.636  1.00  0.00     0.176 C
HETATM    9  O2  UNL     1      16.053  11.768  29.669  1.00  0.00    -0.327 OA
HETATM   10  C5  UNL     1      17.261  11.890  29.015  1.00  0.00     0.139 C
HETATM   11  N1  UNL     1      18.464  11.697  29.453  1.00  0.00    -0.251 N
HETATM   12  C6  UNL     1      17.011  12.307  27.612  1.00  0.00     0.099 C
ATOM     13  H1  UNL     1      19.233  11.844  28.799  1.00  0.00     0.196 HD
HETATM   14  C7  UNL     1      15.487  12.684  27.672  1.00  0.00     0.075 C
BRANCH  11  15
HETATM   15  O3  UNL     1      18.782  11.314  30.719  1.00  0.00    -0.288 OA
ATOM     16  H3  UNL     1      19.559  11.587  31.191  1.00  0.00     0.244 HD
ENDBRANCH  11  15
BRANCH  14  17
HETATM   17  C8  UNL     1      15.315  14.091  27.681  1.00  0.00     0.017 C
HETATM   18  N2  UNL     1      14.062  14.498  27.398  1.00  0.00    -0.277 N
ATOM     19  H2  UNL     1      13.358  13.786  27.206  1.00  0.00     0.193 HD
BRANCH  17  20
HETATM   20  C9  UNL     1      16.237  15.172  27.893  1.00  0.00     0.055 C
BRANCH  20  21
HETATM   21  C10 UNL     1      17.349  15.434  26.942  1.00  0.00     0.009 C
BRANCH  21  22
HETATM   22  C11 UNL     1      16.782  15.823  25.570  1.00  0.00    -0.023 C
HETATM   23  C12 UNL     1      17.789  15.607  24.469  1.00  0.00     0.009 C
HETATM   24  C13 UNL     1      16.329  17.247  25.531  1.00  0.00     0.009 C
ENDBRANCH  21  22
ENDBRANCH  20  21
ENDBRANCH  17  20
BRANCH  18  25
HETATM   25  O4  UNL     1      13.686  15.786  27.354  1.00  0.00    -0.290 OA
ATOM     26  H4  UNL     1      13.163  16.208  28.025  1.00  0.00     0.244 HD
ENDBRANCH  18  25
ENDBRANCH  14  17
ENDBRANCH   2   8
BRANCH   1  27
HETATM   27  O1  UNL     1      14.274   9.255  29.567  1.00  0.00    -0.352 OA
HETATM   28  C1  UNL     1      14.923   8.666  30.640  1.00  0.00     0.210 C
ENDBRANCH   1  27
BRANCH   7  29
HETATM   29  O6  UNL     1      11.738   8.781  30.543  1.00  0.00    -0.351 OA
HETATM   30  C22 UNL     1      11.076   7.804  29.770  1.00  0.00     0.210 C
ENDBRANCH   7  29
BRANCH   6  31
HETATM   31  O5  UNL     1       9.867  10.928  30.580  1.00  0.00    -0.326 OA
BRANCH  31  32
HETATM   32  C17 UNL     1       8.668  10.864  31.011  1.00  0.00     0.158 C
HETATM   33  C18 UNL     1       8.110   9.424  30.731  1.00  0.00     0.056 C
HETATM   34  C19 UNL     1       8.536  10.878  32.580  1.00  0.00     0.056 C
BRANCH  32  35
HETATM   35  C20 UNL     1       7.542  11.750  30.547  1.00  0.00     0.418 C
HETATM   36  F2  UNL     1       6.716  11.096  29.661  1.00  0.00    -0.168 F
HETATM   37  F3  UNL     1       7.870  12.959  30.071  1.00  0.00    -0.168 F
HETATM   38  F4  UNL     1       6.700  11.996  31.667  1.00  0.00    -0.168 F
ENDBRANCH  32  35
ENDBRANCH  31  32
ENDBRANCH   6  31
TORSDOF 12
ENDMDL