MODEL 5
REMARK VINA RESULT: -8.215054999      1.716      2.589
REMARK  13 active torsions:
REMARK  status: ('A' for Active; 'I' for Inactive)
REMARK    1  A    between atoms: C2_2  and  O1_3
REMARK    2  A    between atoms: O1_3  and  C3_4
REMARK    3  A    between atoms: C3_4  and  C4_6
REMARK    4  A    between atoms: C4_6  and  C5_7
REMARK    5  A    between atoms: C5_7  and  C7_9
REMARK    6  A    between atoms: C5_7  and  O3_13
REMARK    7  A    between atoms: C7_9  and  C8_10
REMARK    8  A    between atoms: C8_10  and  C9_11
REMARK    9  A    between atoms: O3_13  and  C10_14
REMARK       I    between atoms: C10_14  and  N1_16
REMARK   10  A    between atoms: N2_18  and  C11_20
REMARK   11  A    between atoms: C12_21  and  O5_22
REMARK   12  A    between atoms: C13_24  and  C14_25
REMARK   13  A    between atoms: N3_30  and  O8_31
ROOT
HETATM    1  C10 UNL     1      17.474  17.133  26.706  1.00  0.00     0.380 C
HETATM    2  O4  UNL     1      18.696  17.231  26.868  1.00  0.00    -0.237 OA
HETATM    3  N1  UNL     1      16.709  16.146  27.429  1.00  0.00    -0.245 N
ATOM      4  H1  UNL     1      16.444  16.308  28.401  1.00  0.00     0.192 HD
HETATM    5  N2  UNL     1      16.366  15.062  26.834  1.00  0.00    -0.291 N
ATOM      6  H2  UNL     1      16.628  14.896  25.862  1.00  0.00     0.187 HD
ENDROOT
BRANCH   1   7
HETATM    7  O3  UNL     1      16.803  17.937  25.855  1.00  0.00    -0.291 OA
BRANCH   7   8
HETATM    8  C5  UNL     1      17.358  18.990  25.045  1.00  0.00     0.077 C
HETATM    9  C6  UNL     1      16.204  19.351  24.126  1.00  0.00     0.047 C
BRANCH   8  10
HETATM   10  C4  UNL     1      17.644  20.194  25.917  1.00  0.00     0.149 C
BRANCH  10  11
HETATM   11  C3  UNL     1      18.962  20.778  25.652  1.00  0.00     0.261 C
HETATM   12  O2  UNL     1      19.969  20.346  26.260  1.00  0.00    -0.265 OA
BRANCH  11  13
HETATM   13  O1  UNL     1      19.174  21.809  24.745  1.00  0.00    -0.322 OA
BRANCH  13  14
HETATM   14  C2  UNL     1      18.129  22.657  24.321  1.00  0.00     0.174 C
HETATM   15  C1  UNL     1      18.492  23.447  23.096  1.00  0.00     0.034 C
ENDBRANCH  13  14
ENDBRANCH  11  13
ENDBRANCH  10  11
ENDBRANCH   8  10
BRANCH   8  16
HETATM   16  C7  UNL     1      18.585  18.527  24.372  1.00  0.00     0.040 C
BRANCH  16  17
HETATM   17  C8  UNL     1      18.488  17.640  23.196  1.00  0.00     0.018 C
BRANCH  17  18
HETATM   18  C9  UNL     1      19.101  16.279  23.293  1.00  0.00     0.115 C
HETATM   19 CL1  UNL     1      17.925  15.112  23.996  1.00  0.00    -0.130 Cl
ENDBRANCH  17  18
ENDBRANCH  16  17
ENDBRANCH   8  16
ENDBRANCH   7   8
ENDBRANCH   1   7
BRANCH   5  20
HETATM   20  C11 UNL     1      15.603  14.085  27.565  1.00  0.00     0.123 A
HETATM   21  C12 UNL     1      16.345  13.002  28.087  1.00  0.00     0.117 A
HETATM   22  C13 UNL     1      15.597  12.062  28.794  1.00  0.00     0.117 A
HETATM   23  C15 UNL     1      14.208  12.207  28.957  1.00  0.00     0.153 A
HETATM   24 CL2  UNL     1      13.336  10.979  29.861  1.00  0.00    -0.061 Cl
HETATM   25  N3  UNL     1      13.589  13.263  28.430  1.00  0.00    -0.198 N
HETATM   26  C16 UNL     1      14.259  14.193  27.743  1.00  0.00     0.164 A
HETATM   27 CL3  UNL     1      13.423  15.582  27.053  1.00  0.00    -0.059 Cl
BRANCH  21  28
HETATM   28  O5  UNL     1      17.689  12.952  27.873  1.00  0.00    -0.357 OA
ATOM     29  H5  UNL     1      18.046  13.335  27.080  1.00  0.00     0.217 HD
ENDBRANCH  21  28
BRANCH  22  30
HETATM   30  C14 UNL     1      16.194  10.903  29.388  1.00  0.00     0.215 C
HETATM   31  O6  UNL     1      17.173  11.012  30.199  1.00  0.00    -0.644 OA
HETATM   32  O7  UNL     1      15.790   9.617  29.154  1.00  0.00    -0.644 OA
ENDBRANCH  22  30
BRANCH  25  33
HETATM   33  O8  UNL     1      12.225  13.376  28.609  1.00  0.00    -0.280 OA
ATOM     34  H8  UNL     1      11.654  12.932  27.993  1.00  0.00     0.245 HD
ENDBRANCH  25  33
ENDBRANCH   5  20
TORSDOF 13
ENDMDL