MODEL 4
REMARK VINA RESULT: -7.693493423      1.517      3.542
REMARK  11 active torsions:
REMARK  status: ('A' for Active; 'I' for Inactive)
REMARK    1  A    between atoms: C2_2  and  O1_3
REMARK    2  A    between atoms: O1_3  and  C3_4
REMARK    3  A    between atoms: C3_4  and  C4_6
REMARK    4  A    between atoms: C5_7  and  N1_8
REMARK    5  A    between atoms: N1_8  and  C6_10
REMARK    6  A    between atoms: C6_10  and  C7_11
REMARK    7  A    between atoms: C6_10  and  C13_23
REMARK    8  A    between atoms: C7_11  and  S1_12
REMARK    9  A    between atoms: S1_12  and  C8_13
REMARK   10  A    between atoms: C11_18  and  C12_19
REMARK   11  A    between atoms: C14_27  and  C15_28
ROOT
HETATM    1  N1  UNL     1      16.342  16.391  26.995  1.00  0.00    -0.368 N
ATOM      2  H1  UNL     1      16.146  17.143  27.655  1.00  0.00     0.161 HD
ENDROOT
BRANCH   1   3
HETATM    3  C5  UNL     1      16.681  15.089  27.500  1.00  0.00     0.088 A
HETATM    4  C4  UNL     1      15.905  13.998  27.787  1.00  0.00     0.080 A
HETATM    5  C17 UNL     1      16.557  12.894  28.238  1.00  0.00    -0.022 A
HETATM    6  C14 UNL     1      17.916  12.944  28.379  1.00  0.00     0.059 A
HETATM    7  C18 UNL     1      15.851  11.571  28.531  1.00  0.00     0.051 C
HETATM    8  S3  UNL     1      18.259  14.565  27.861  1.00  0.00    -0.068 SA
BRANCH   4   9
HETATM    9  C3  UNL     1      14.428  14.071  27.646  1.00  0.00     0.296 C
HETATM   10  O2  UNL     1      13.885  15.196  27.596  1.00  0.00    -0.259 OA
BRANCH   9  11
HETATM   11  O1  UNL     1      13.573  12.993  27.567  1.00  0.00    -0.318 OA
BRANCH  11  12
HETATM   12  C2  UNL     1      12.395  12.919  28.310  1.00  0.00     0.174 C
HETATM   13  C1  UNL     1      12.595  12.543  29.755  1.00  0.00     0.034 C
ENDBRANCH  11  12
ENDBRANCH   9  11
ENDBRANCH   4   9
BRANCH   6  14
HETATM   14  C15 UNL     1      18.920  11.993  28.845  1.00  0.00     0.163 C
HETATM   15  C16 UNL     1      18.685  10.811  29.639  1.00  0.00     0.097 C
HETATM   16  O5  UNL     1      20.133  12.242  28.515  1.00  0.00    -0.292 OA
ENDBRANCH   6  14
ENDBRANCH   1   3
BRANCH   1  17
HETATM   17  C6  UNL     1      16.270  16.666  25.578  1.00  0.00     0.193 C
BRANCH  17  18
HETATM   18  C7  UNL     1      16.011  18.097  25.221  1.00  0.00     0.115 C
BRANCH  18  19
HETATM   19  S1  UNL     1      16.907  18.635  23.769  1.00  0.00    -0.126 SA
BRANCH  19  20
HETATM   20  C8  UNL     1      17.251  20.424  23.876  1.00  0.00     0.025 A
HETATM   21  C9  UNL     1      16.347  21.362  23.469  1.00  0.00     0.072 A
HETATM   22  S2  UNL     1      17.147  22.837  23.747  1.00  0.00    -0.070 SA
HETATM   23  C10 UNL     1      18.607  22.238  24.373  1.00  0.00     0.173 A
HETATM   24  F1  UNL     1      19.704  22.952  24.800  1.00  0.00    -0.197 F
HETATM   25  C11 UNL     1      18.438  20.886  24.351  1.00  0.00     0.110 A
BRANCH  25  26
HETATM   26  C12 UNL     1      19.548  19.964  24.844  1.00  0.00     0.422 C
HETATM   27  F2  UNL     1      20.634  20.705  25.225  1.00  0.00    -0.166 F
HETATM   28  F3  UNL     1      19.939  19.097  23.870  1.00  0.00    -0.166 F
HETATM   29  F4  UNL     1      19.088  19.308  25.994  1.00  0.00    -0.166 F
ENDBRANCH  25  26
ENDBRANCH  19  20
ENDBRANCH  18  19
ENDBRANCH  17  18
BRANCH  17  30
HETATM   30  C13 UNL     1      17.449  16.154  24.825  1.00  0.00     0.197 C
HETATM   31  O3  UNL     1      18.564  16.676  25.057  1.00  0.00    -0.646 OA
HETATM   32  O4  UNL     1      17.366  15.148  23.899  1.00  0.00    -0.646 OA
ENDBRANCH  17  30
ENDBRANCH   1  17
TORSDOF 11
ENDMDL