MODEL 1
REMARK VINA RESULT: -9.179234986      0.000      0.000
REMARK  12 active torsions:
REMARK  status: ('A' for Active; 'I' for Inactive)
REMARK    1  A    between atoms: C2_2  and  O1_5
REMARK    2  A    between atoms: O1_5  and  C5_6
REMARK       I    between atoms: C5_6  and  N1_8
REMARK    3  A    between atoms: C8_12  and  N2_13
REMARK    4  A    between atoms: N2_13  and  C9_15
REMARK    5  A    between atoms: C9_15  and  C10_16
REMARK    6  A    between atoms: C10_16  and  C11_17
REMARK    7  A    between atoms: C11_17  and  C12_18
REMARK    8  A    between atoms: C12_18  and  C13_19
REMARK    9  A    between atoms: C13_19  and  C14_20
REMARK   10  A    between atoms: C14_20  and  C15_21
REMARK   11  A    between atoms: C16_26  and  C17_27
REMARK   12  A    between atoms: N6_33  and  C19_34
ROOT
HETATM    1  N2  UNL     1      15.594  16.178  27.375  1.00  0.00    -0.375 N
ATOM      2  H2  UNL     1      15.677  16.919  28.071  1.00  0.00     0.161 HD
ENDROOT
BRANCH   1   3
HETATM    3  C8  UNL     1      15.692  14.798  27.788  1.00  0.00     0.129 A
HETATM    4  C7  UNL     1      16.832  14.017  27.762  1.00  0.00     0.126 A
HETATM    5  C6  UNL     1      16.559  12.830  28.386  1.00  0.00     0.275 A
HETATM    6  N1  UNL     1      15.248  12.881  28.800  1.00  0.00    -0.153 N
HETATM    7  O3  UNL     1      17.366  11.872  28.547  1.00  0.00    -0.266 OA
HETATM    8  C5  UNL     1      14.649  11.822  29.569  1.00  0.00     0.390 C
HETATM    9  N6  UNL     1      14.762  14.043  28.431  1.00  0.00    -0.202 N
HETATM   10  O2  UNL     1      15.341  10.779  29.795  1.00  0.00    -0.236 OA
BRANCH   8  11
HETATM   11  O1  UNL     1      13.404  11.888  30.081  1.00  0.00    -0.292 OA
BRANCH  11  12
HETATM   12  C2  UNL     1      12.288  11.251  29.587  1.00  0.00     0.061 C
HETATM   13  C1  UNL     1      12.030   9.893  30.262  1.00  0.00     0.046 C
HETATM   14  C3  UNL     1      11.071  12.109  29.988  1.00  0.00     0.046 C
HETATM   15  C4  UNL     1      12.308  11.018  28.114  1.00  0.00     0.046 C
ENDBRANCH  11  12
ENDBRANCH   8  11
BRANCH   9  16
HETATM   16  C19 UNL     1      13.395  14.549  28.627  1.00  0.00     0.481 C
HETATM   17  F1  UNL     1      13.388  15.747  29.333  1.00  0.00    -0.189 F
HETATM   18  F2  UNL     1      12.816  14.735  27.336  1.00  0.00    -0.189 F
ENDBRANCH   9  16
ENDBRANCH   1   3
BRANCH   1  19
HETATM   19  C9  UNL     1      15.379  16.522  25.998  1.00  0.00     0.121 C
BRANCH  19  20
HETATM   20  C10 UNL     1      16.533  16.896  25.181  1.00  0.00     0.020 C
BRANCH  20  21
HETATM   21  C11 UNL     1      17.512  15.846  24.794  1.00  0.00     0.002 C
BRANCH  21  22
HETATM   22  C12 UNL     1      18.401  16.377  23.679  1.00  0.00     0.000 C
BRANCH  22  23
HETATM   23  C13 UNL     1      18.230  17.827  23.376  1.00  0.00     0.007 C
BRANCH  23  24
HETATM   24  C14 UNL     1      19.470  18.616  23.681  1.00  0.00     0.078 C
BRANCH  24  25
HETATM   25  C15 UNL     1      19.047  20.033  23.967  1.00  0.00     0.097 A
HETATM   26  N3  UNL     1      19.429  20.767  25.047  1.00  0.00    -0.287 N
HETATM   27  N4  UNL     1      18.870  21.943  24.959  1.00  0.00    -0.285 N
ATOM     28  H3  UNL     1      20.045  20.452  25.796  1.00  0.00     0.188 HD
HETATM   29  C16 UNL     1      18.101  22.027  23.831  1.00  0.00     0.136 A
ATOM     30  H4  UNL     1      18.990  22.695  25.638  1.00  0.00     0.188 HD
HETATM   31  N5  UNL     1      18.247  20.817  23.252  1.00  0.00    -0.331 N
ATOM     32  H5  UNL     1      17.800  20.539  22.378  1.00  0.00     0.168 HD
BRANCH  29  33
HETATM   33  C17 UNL     1      17.317  23.224  23.413  1.00  0.00     0.168 C
HETATM   34  C18 UNL     1      17.932  23.680  22.078  1.00  0.00     0.059 C
HETATM   35 CL1  UNL     1      15.626  22.845  23.070  1.00  0.00    -0.093 Cl
HETATM   36 CL2  UNL     1      17.375  24.537  24.593  1.00  0.00    -0.093 Cl
ENDBRANCH  29  33
ENDBRANCH  24  25
ENDBRANCH  23  24
ENDBRANCH  22  23
ENDBRANCH  21  22
ENDBRANCH  20  21
ENDBRANCH  19  20
ENDBRANCH   1  19
TORSDOF 12
ENDMDL