MODEL 1
REMARK VINA RESULT: -9.545272236      0.000      0.000
REMARK  12 active torsions:
REMARK  status: ('A' for Active; 'I' for Inactive)
REMARK    1  A    between atoms: C2_2  and  C3_3
REMARK    2  A    between atoms: C3_3  and  C4_4
REMARK    3  A    between atoms: C5_6  and  N1_7
REMARK    4  A    between atoms: N1_7  and  N2_9
REMARK    5  A    between atoms: C6_11  and  C7_12
REMARK    6  A    between atoms: C9_14  and  N3_15
REMARK    7  A    between atoms: C10_18  and  O3_19
REMARK    8  A    between atoms: O3_19  and  C11_20
REMARK    9  A    between atoms: N5_26  and  C12_27
REMARK   10  A    between atoms: C12_27  and  C13_28
REMARK   11  A    between atoms: C12_27  and  C15_30
REMARK   12  A    between atoms: C17_33  and  O4_34
ROOT
HETATM    1  N1  UNL     1      15.518  15.835  26.915  1.00  0.00    -0.280 N
ATOM      2  H1  UNL     1      14.508  15.886  26.785  1.00  0.00     0.189 HD
ENDROOT
BRANCH   1   3
HETATM    3  C5  UNL     1      16.045  14.738  27.403  1.00  0.00     0.168 A
HETATM    4  S1  UNL     1      17.686  14.304  27.300  1.00  0.00    -0.053 SA
HETATM    5  C4  UNL     1      17.592  12.816  28.131  1.00  0.00     0.037 A
HETATM    6  C17 UNL     1      16.264  12.742  28.445  1.00  0.00     0.158 A
HETATM    7  N5  UNL     1      15.475  13.730  28.071  1.00  0.00    -0.300 N
BRANCH   5   8
HETATM    8  C3  UNL     1      18.698  11.850  28.428  1.00  0.00     0.050 C
BRANCH   8   9
HETATM    9  C2  UNL     1      18.810  11.518  29.875  1.00  0.00     0.001 C
HETATM   10  C1  UNL     1      18.713   9.996  29.991  1.00  0.00     0.005 C
ENDBRANCH   8   9
ENDBRANCH   5   8
BRANCH   6  11
HETATM   11  O4  UNL     1      15.840  11.581  29.165  1.00  0.00    -0.345 OA
ATOM     12  H4  UNL     1      15.037  11.661  29.666  1.00  0.00     0.219 HD
ENDBRANCH   6  11
BRANCH   7  13
HETATM   13  C12 UNL     1      14.018  13.820  28.322  1.00  0.00     0.112 C
BRANCH  13  14
HETATM   14  C13 UNL     1      13.655  14.714  29.455  1.00  0.00     0.023 C
HETATM   15  C14 UNL     1      12.808  15.901  29.013  1.00  0.00     0.007 C
ENDBRANCH  13  14
BRANCH  13  16
HETATM   16  C15 UNL     1      13.413  12.468  28.536  1.00  0.00     0.101 C
HETATM   17  C16 UNL     1      12.224  12.467  29.442  1.00  0.00     0.029 C
HETATM   18 CL2  UNL     1      12.884  11.872  26.944  1.00  0.00    -0.123 Cl
ENDBRANCH  13  16
ENDBRANCH   7  13
ENDBRANCH   1   3
BRANCH   1  19
HETATM   19  N2  UNL     1      16.297  16.923  26.571  1.00  0.00    -0.308 N
HETATM   20  C6  UNL     1      16.131  17.582  25.487  1.00  0.00     0.136 C
ATOM     21  H2  UNL     1      17.038  17.214  27.209  1.00  0.00     0.186 HD
BRANCH  20  22
HETATM   22  C7  UNL     1      16.973  18.722  25.162  1.00  0.00     0.053 A
HETATM   23  C8  UNL     1      18.129  19.115  25.833  1.00  0.00     0.071 A
HETATM   24  C9  UNL     1      18.609  20.241  25.197  1.00  0.00     0.156 A
HETATM   25  C10 UNL     1      17.774  20.538  24.162  1.00  0.00     0.183 A
HETATM   26  N4  UNL     1      16.807  19.617  24.164  1.00  0.00    -0.334 N
ATOM     27  H4  UNL     1      16.038  19.592  23.494  1.00  0.00     0.168 HD
BRANCH  24  28
HETATM   28  N3  UNL     1      19.772  20.955  25.574  1.00  0.00    -0.111 N
HETATM   29  O1  UNL     1      20.594  20.411  26.316  1.00  0.00    -0.532 OA
HETATM   30  O2  UNL     1      19.980  22.219  25.127  1.00  0.00    -0.532 OA
ENDBRANCH  24  28
BRANCH  25  31
HETATM   31  O3  UNL     1      17.829  21.566  23.235  1.00  0.00    -0.251 OA
BRANCH  31  32
HETATM   32  C11 UNL     1      17.056  22.741  23.346  1.00  0.00     0.448 C
HETATM   33  F1  UNL     1      15.715  22.556  23.203  1.00  0.00    -0.159 F
HETATM   34  F2  UNL     1      17.336  23.402  24.548  1.00  0.00    -0.159 F
HETATM   35 CL1  UNL     1      17.588  23.833  22.041  1.00  0.00    -0.014 Cl
ENDBRANCH  31  32
ENDBRANCH  25  31
ENDBRANCH  20  22
ENDBRANCH   1  19
TORSDOF 12
ENDMDL