MODEL 1
REMARK VINA RESULT: -9.403868669      0.000      0.000
REMARK  8 active torsions:
REMARK  status: ('A' for Active; 'I' for Inactive)
REMARK    1  A    between atoms: C2_2  and  C3_3
REMARK    2  A    between atoms: C3_3  and  C4_4
REMARK    3  A    between atoms: C5_8  and  C6_9
REMARK    4  A    between atoms: C9_13  and  O2_14
REMARK    5  A    between atoms: C11_16  and  N2_17
REMARK       I    between atoms: N2_17  and  C12_19
REMARK       I    between atoms: C12_19  and  N3_21
REMARK    6  A    between atoms: N3_21  and  N4_23
REMARK    7  A    between atoms: C13_25  and  C14_26
REMARK    8  A    between atoms: C16_31  and  N5_32
ROOT
HETATM    1  C6  UNL     1      14.783  13.052  28.286  1.00  0.00     0.074 A
HETATM    2  C7  UNL     1      15.898  12.245  28.349  1.00  0.00     0.053 A
HETATM    3 CL1  UNL     1      15.678  10.556  28.742  1.00  0.00    -0.083 Cl
HETATM    4  C8  UNL     1      17.183  12.716  28.114  1.00  0.00     0.064 A
HETATM    5  C9  UNL     1      17.345  14.056  27.804  1.00  0.00     0.099 A
HETATM    6  C11 UNL     1      16.249  14.897  27.730  1.00  0.00     0.104 A
HETATM    7  C16 UNL     1      14.986  14.376  27.974  1.00  0.00     0.148 A
ENDROOT
BRANCH   6   8
HETATM    8  N2  UNL     1      16.425  16.276  27.409  1.00  0.00    -0.303 N
HETATM    9  C12 UNL     1      16.508  16.652  26.043  1.00  0.00     0.339 C
HETATM   10  O3  UNL     1      16.429  15.785  25.131  1.00  0.00    -0.245 OA
HETATM   11  N3  UNL     1      16.683  18.023  25.649  1.00  0.00    -0.252 N
ATOM     12  H3  UNL     1      16.750  18.745  26.367  1.00  0.00     0.191 HD
ATOM     13  H2  UNL     1      16.490  16.977  28.146  1.00  0.00     0.171 HD
BRANCH  11  14
HETATM   14  N4  UNL     1      16.763  18.383  24.325  1.00  0.00    -0.306 N
HETATM   15  C13 UNL     1      17.379  19.360  23.824  1.00  0.00     0.135 C
ATOM     16  H4  UNL     1      16.262  17.785  23.667  1.00  0.00     0.186 HD
BRANCH  15  17
HETATM   17  C14 UNL     1      18.137  20.305  24.607  1.00  0.00     0.101 C
HETATM   18 CL2  UNL     1      19.392  19.716  25.688  1.00  0.00    -0.079 Cl
HETATM   19  C15 UNL     1      17.904  21.624  24.527  1.00  0.00     0.208 C
HETATM   20  F1  UNL     1      18.641  22.478  25.282  1.00  0.00    -0.191 F
HETATM   21 CL3  UNL     1      16.654  22.157  23.441  1.00  0.00    -0.050 Cl
ENDBRANCH  15  17
ENDBRANCH  11  14
ENDBRANCH   6   8
BRANCH   5  22
HETATM   22  O2  UNL     1      18.625  14.548  27.566  1.00  0.00    -0.354 OA
HETATM   23  C10 UNL     1      19.739  14.048  28.259  1.00  0.00     0.210 C
ENDBRANCH   5  22
BRANCH   7  24
HETATM   24  N5  UNL     1      13.914  15.305  27.881  1.00  0.00    -0.112 N
HETATM   25  O4  UNL     1      13.380  15.860  28.859  1.00  0.00    -0.532 OA
HETATM   26  O5  UNL     1      13.429  15.606  26.633  1.00  0.00    -0.532 OA
ENDBRANCH   7  24
BRANCH   1  27
HETATM   27  C5  UNL     1      13.448  12.527  28.539  1.00  0.00     0.186 A
HETATM   28  O1  UNL     1      12.688  11.797  27.779  1.00  0.00    -0.217 OA
HETATM   29  N1  UNL     1      11.557  11.512  28.332  1.00  0.00    -0.247 N
HETATM   30  C4  UNL     1      11.529  12.082  29.557  1.00  0.00     0.104 A
ATOM     31  H1  UNL     1      10.812  10.954  27.917  1.00  0.00     0.196 HD
HETATM   32  N6  UNL     1      12.715  12.710  29.669  1.00  0.00    -0.323 N
ATOM     33  H6  UNL     1      13.019  13.245  30.482  1.00  0.00     0.169 HD
BRANCH  30  34
HETATM   34  C3  UNL     1      10.418  12.017  30.544  1.00  0.00     0.078 C
BRANCH  34  35
HETATM   35  C2  UNL     1       9.157  11.434  29.940  1.00  0.00     0.003 C
HETATM   36  C1  UNL     1       8.041  12.430  29.840  1.00  0.00     0.005 C
ENDBRANCH  34  35
ENDBRANCH  30  34
ENDBRANCH   1  27
TORSDOF 8
ENDMDL