MODEL 1
REMARK VINA RESULT: -7.507251009      0.000      0.000
REMARK  13 active torsions:
REMARK  status: ('A' for Active; 'I' for Inactive)
REMARK    1  A    between atoms: C2_2  and  S1_3
REMARK    2  A    between atoms: S1_3  and  C3_4
REMARK    3  A    between atoms: C3_4  and  N1_5
REMARK    4  A    between atoms: C3_4  and  N6_29
REMARK    5  A    between atoms: N1_5  and  N2_7
REMARK    6  A    between atoms: C4_9  and  S2_10
REMARK    7  A    between atoms: C4_9  and  S3_24
REMARK    8  A    between atoms: S2_10  and  N3_11
REMARK    9  A    between atoms: N4_13  and  N5_15
REMARK   10  A    between atoms: C5_17  and  C6_18
REMARK   11  A    between atoms: C5_17  and  C8_20
REMARK   12  A    between atoms: S3_24  and  C9_27
REMARK   13  A    between atoms: N6_29  and  C11_31
ROOT
HETATM    1  N2  UNL     1      15.005  10.678  28.903  1.00  0.00    -0.285 N
ATOM      2  H2  UNL     1      15.645  10.131  29.480  1.00  0.00     0.188 HD
HETATM    3  C4  UNL     1      13.783  10.669  29.228  1.00  0.00     0.202 C
ENDROOT
BRANCH   3   4
HETATM    4  S2  UNL     1      13.312   9.687  30.673  1.00  0.00     0.035 SA
BRANCH   4   5
HETATM    5  N3  UNL     1      12.349   8.333  30.118  1.00  0.00    -0.253 N
HETATM    6  N4  UNL     1      11.108   8.326  30.328  1.00  0.00    -0.236 N
ATOM      7  H4  UNL     1      10.536   7.544  30.010  1.00  0.00     0.209 HD
ATOM      8  H3  UNL     1      12.791   7.556  29.627  1.00  0.00     0.197 HD
BRANCH   6   9
HETATM    9  N5  UNL     1      10.526   9.397  31.000  1.00  0.00    -0.285 N
HETATM   10  C5  UNL     1       9.261   9.529  31.219  1.00  0.00     0.110 C
ATOM     11  H5  UNL     1      11.144  10.131  31.345  1.00  0.00     0.188 HD
BRANCH  10  12
HETATM   12  C6  UNL     1       8.374   8.474  30.721  1.00  0.00     0.059 C
HETATM   13  C7  UNL     1       7.798   7.602  31.800  1.00  0.00     0.011 C
ENDBRANCH  10  12
BRANCH  10  14
HETATM   14  C8  UNL     1       8.820  10.731  31.949  1.00  0.00     0.430 C
HETATM   15  F1  UNL     1       8.926  10.502  33.302  1.00  0.00    -0.165 F
HETATM   16  F2  UNL     1       7.510  11.063  31.700  1.00  0.00    -0.165 F
HETATM   17  F3  UNL     1       9.680  11.764  31.629  1.00  0.00    -0.165 F
ENDBRANCH  10  14
ENDBRANCH   6   9
ENDBRANCH   4   5
ENDBRANCH   3   4
BRANCH   3  18
HETATM   18  S3  UNL     1      12.482  11.495  28.416  1.00  0.00     0.200 S
HETATM   19  O1  UNL     1      12.798  11.769  26.967  1.00  0.00    -0.221 OA
HETATM   20  O2  UNL     1      11.270  10.587  28.437  1.00  0.00    -0.221 OA
BRANCH  18  21
HETATM   21  C9  UNL     1      12.038  12.979  29.234  1.00  0.00     0.143 C
HETATM   22  C10 UNL     1      13.080  13.551  30.132  1.00  0.00     0.021 C
ENDBRANCH  18  21
ENDBRANCH   3  18
BRANCH   1  23
HETATM   23  N1  UNL     1      15.545  11.361  27.839  1.00  0.00    -0.303 N
ATOM     24  H1  UNL     1      15.213  11.164  26.895  1.00  0.00     0.183 HD
BRANCH  23  25
HETATM   25  C3  UNL     1      16.586  12.362  28.040  1.00  0.00     0.261 C
BRANCH  25  26
HETATM   26  S1  UNL     1      17.713  11.778  29.314  1.00  0.00    -0.122 SA
BRANCH  26  27
HETATM   27  C2  UNL     1      19.436  11.826  28.763  1.00  0.00     0.073 C
HETATM   28  C1  UNL     1      19.879  13.274  28.690  1.00  0.00     0.016 C
ENDBRANCH  26  27
ENDBRANCH  25  26
BRANCH  25  29
HETATM   29  N6  UNL     1      16.040  13.659  28.272  1.00  0.00    -0.357 N
ATOM     30  H6  UNL     1      15.544  13.849  29.143  1.00  0.00     0.162 HD
BRANCH  29  31
HETATM   31  C11 UNL     1      16.180  14.688  27.304  1.00  0.00     0.069 A
HETATM   32  C12 UNL     1      17.350  14.877  26.600  1.00  0.00     0.032 A
HETATM   33  C13 UNL     1      17.446  15.887  25.658  1.00  0.00     0.002 A
HETATM   34  C14 UNL     1      16.351  16.695  25.440  1.00  0.00     0.003 A
HETATM   35  C15 UNL     1      15.164  16.534  26.126  1.00  0.00     0.044 A
HETATM   36  C16 UNL     1      15.088  15.529  27.055  1.00  0.00     0.142 A
HETATM   37  F4  UNL     1      13.946  15.343  27.742  1.00  0.00    -0.204 F
ENDBRANCH  29  31
ENDBRANCH  25  29
ENDBRANCH  23  25
ENDBRANCH   1  23
TORSDOF 13
ENDMDL