MODEL 3
REMARK VINA RESULT: -7.088238908      1.957      5.520
REMARK  9 active torsions:
REMARK  status: ('A' for Active; 'I' for Inactive)
REMARK    1  A    between atoms: O1_2  and  C2_3
REMARK    2  A    between atoms: C4_5  and  O2_6
REMARK    3  A    between atoms: C6_8  and  C7_9
REMARK    4  A    between atoms: C7_9  and  C8_10
REMARK    5  A    between atoms: C7_9  and  S1_14
REMARK    6  A    between atoms: C8_10  and  C9_11
REMARK    7  A    between atoms: S1_14  and  C12_15
REMARK    8  A    between atoms: C12_15  and  C13_16
REMARK    9  A    between atoms: C17_21  and  O3_22
ROOT
HETATM    1  C13 UNL     1      34.118 -40.373   8.012  1.00  0.00    -0.006 C
HETATM    2  C14 UNL     1      34.807 -39.510   7.312  1.00  0.00     0.090 C
HETATM    3  C15 UNL     1      36.188 -39.722   7.004  1.00  0.00     0.087 C
HETATM    4  N1  UNL     1      37.325 -39.871   6.757  1.00  0.00    -0.192 NA
ENDROOT
BRANCH   1   5
HETATM    5  C12 UNL     1      32.694 -40.123   8.314  1.00  0.00     0.102 C
BRANCH   5   6
HETATM    6  S1  UNL     1      31.717 -41.410   8.953  1.00  0.00    -0.156 SA
BRANCH   6   7
HETATM    7  C7  UNL     1      31.983 -41.974  10.633  1.00  0.00     0.083 C
BRANCH   7   8
HETATM    8  C6  UNL     1      32.950 -43.091  10.719  1.00  0.00    -0.008 A
HETATM    9  C4  UNL     1      33.580 -43.230  11.978  1.00  0.00     0.078 A
HETATM   10  C3  UNL     1      34.515 -44.235  12.074  1.00  0.00     0.077 A
HETATM   11  C2  UNL     1      34.823 -45.061  10.995  1.00  0.00     0.104 A
HETATM   12  C17 UNL     1      34.190 -44.896   9.765  1.00  0.00     0.102 A
HETATM   13  C16 UNL     1      33.253 -43.897   9.661  1.00  0.00     0.050 A
BRANCH   9  14
HETATM   14  O2  UNL     1      33.217 -42.372  13.003  1.00  0.00    -0.355 OA
HETATM   15  C5  UNL     1      33.661 -42.498  14.321  1.00  0.00     0.210 C
ENDBRANCH   9  14
BRANCH  11  16
HETATM   16  O1  UNL     1      35.760 -46.059  11.157  1.00  0.00    -0.353 OA
HETATM   17  C1  UNL     1      36.114 -46.463  12.489  1.00  0.00     0.210 C
ENDBRANCH  11  16
BRANCH  12  18
HETATM   18  O3  UNL     1      34.571 -45.739   8.762  1.00  0.00    -0.353 OA
HETATM   19  C18 UNL     1      35.128 -45.474   7.528  1.00  0.00     0.210 C
ENDBRANCH  12  18
ENDBRANCH   7   8
BRANCH   7  20
HETATM   20  C8  UNL     1      30.577 -42.650  10.974  1.00  0.00     0.024 C
BRANCH  20  21
HETATM   21  C9  UNL     1      29.994 -41.744  12.018  1.00  0.00    -0.021 C
HETATM   22  C10 UNL     1      29.630 -42.580  13.256  1.00  0.00     0.009 C
HETATM   23  C11 UNL     1      28.667 -41.157  11.528  1.00  0.00     0.009 C
ENDBRANCH  20  21
ENDBRANCH   7  20
ENDBRANCH   6   7
ENDBRANCH   5   6
ENDBRANCH   1   5
TORSDOF 9
ENDMDL