MODEL 2
REMARK VINA RESULT: -8.319225988      0.999      2.053
REMARK  9 active torsions:
REMARK  status: ('A' for Active; 'I' for Inactive)
REMARK    1  A    between atoms: N2_5  and  C3_6
REMARK    2  A    between atoms: C3_6  and  C4_7
REMARK    3  A    between atoms: C5_8  and  C6_9
REMARK    4  A    between atoms: C6_9  and  S1_10
REMARK    5  A    between atoms: S1_10  and  C7_11
REMARK    6  A    between atoms: C7_11  and  O1_12
REMARK    7  A    between atoms: O1_12  and  C8_13
REMARK    8  A    between atoms: C8_13  and  C11_16
REMARK    9  A    between atoms: C11_16  and  C12_17
ROOT
HETATM    1  C1  UNL     1      47.794 -49.199   7.454  1.00  0.00     0.070 C
HETATM    2  C2  UNL     1      47.279 -49.128   6.057  1.00  0.00     0.031 A
HETATM    3  N1  UNL     1      46.316 -48.356   5.551  1.00  0.00    -0.301 N
ATOM      4  H1  UNL     1      45.780 -47.676   6.090  1.00  0.00     0.187 HD
HETATM    5  N2  UNL     1      46.143 -48.585   4.249  1.00  0.00    -0.278 N
HETATM    6  C15 UNL     1      47.032 -49.540   3.922  1.00  0.00     0.139 A
HETATM    7  C16 UNL     1      47.226 -50.124   2.615  1.00  0.00     0.120 C
HETATM    8  N3  UNL     1      47.364 -50.588   1.566  1.00  0.00    -0.190 NA
HETATM    9  C17 UNL     1      47.755 -49.895   5.038  1.00  0.00     0.001 A
HETATM   10  C18 UNL     1      48.817 -50.905   5.080  1.00  0.00     0.053 C
ENDROOT
BRANCH   5  11
HETATM   11  C3  UNL     1      45.194 -47.945   3.354  1.00  0.00     0.177 C
BRANCH  11  12
HETATM   12  C4  UNL     1      44.281 -47.032   4.082  1.00  0.00    -0.008 C
HETATM   13  C5  UNL     1      43.607 -46.026   3.582  1.00  0.00    -0.019 C
BRANCH  13  14
HETATM   14  C6  UNL     1      43.606 -45.569   2.172  1.00  0.00     0.103 C
BRANCH  14  15
HETATM   15  S1  UNL     1      44.380 -43.925   2.145  1.00  0.00    -0.139 SA
BRANCH  15  16
HETATM   16  C7  UNL     1      44.718 -43.359   3.850  1.00  0.00     0.242 C
BRANCH  16  17
HETATM   17  O1  UNL     1      43.669 -42.606   4.298  1.00  0.00    -0.371 OA
BRANCH  17  18
HETATM   18  C8  UNL     1      43.588 -42.434   5.667  1.00  0.00     0.055 C
HETATM   19  C9  UNL     1      43.634 -40.926   5.893  1.00  0.00     0.045 C
HETATM   20  C10 UNL     1      42.211 -42.977   6.051  1.00  0.00     0.045 C
BRANCH  18  21
HETATM   21  C11 UNL     1      44.702 -43.135   6.339  1.00  0.00     0.041 C
BRANCH  21  22
HETATM   22  C12 UNL     1      44.343 -44.124   7.406  1.00  0.00    -0.020 C
HETATM   23  C13 UNL     1      44.892 -43.501   8.711  1.00  0.00     0.009 C
HETATM   24  C14 UNL     1      44.999 -45.459   7.317  1.00  0.00     0.009 C
ENDBRANCH  21  22
ENDBRANCH  18  21
ENDBRANCH  17  18
ENDBRANCH  16  17
ENDBRANCH  15  16
ENDBRANCH  14  15
ENDBRANCH  13  14
ENDBRANCH  11  12
ENDBRANCH   5  11
TORSDOF 9
ENDMDL