MODEL 4
REMARK VINA RESULT: -8.679233789      5.207      7.341
REMARK  12 active torsions:
REMARK  status: ('A' for Active; 'I' for Inactive)
REMARK    1  A    between atoms: C4_4  and  C5_5
REMARK    2  A    between atoms: C5_5  and  C6_6
REMARK    3  A    between atoms: C6_6  and  C7_8
REMARK    4  A    between atoms: C7_8  and  C8_9
REMARK    5  A    between atoms: C8_9  and  O3_11
REMARK    6  A    between atoms: O3_11  and  C9_12
REMARK    7  A    between atoms: C9_12  and  O4_13
REMARK    8  A    between atoms: C10_15  and  C11_16
REMARK    9  A    between atoms: C12_17  and  C13_18
REMARK   10  A    between atoms: C13_18  and  C14_19
REMARK   11  A    between atoms: C14_19  and  C15_20
REMARK   12  A    between atoms: C15_20  and  C16_21
ROOT
HETATM    1  C9  UNL     1      43.540 -42.242   8.560  1.00  0.00     0.186 C
HETATM    2  C10 UNL     1      44.457 -43.163   8.483  1.00  0.00     0.064 C
ENDROOT
BRANCH   1   3
HETATM    3  O3  UNL     1      43.714 -41.028   7.920  1.00  0.00    -0.255 OA
BRANCH   3   4
HETATM    4  C8  UNL     1      42.817 -40.632   6.945  1.00  0.00     0.272 C
HETATM    5  O2  UNL     1      41.719 -40.127   7.292  1.00  0.00    -0.264 OA
BRANCH   4   6
HETATM    6  C7  UNL     1      43.136 -40.797   5.508  1.00  0.00     0.190 C
BRANCH   6   7
HETATM    7  C6  UNL     1      43.067 -42.269   5.227  1.00  0.00     0.139 C
HETATM    8  O1  UNL     1      42.106 -42.921   5.583  1.00  0.00    -0.297 OA
BRANCH   7   9
HETATM    9  C5  UNL     1      44.173 -42.956   4.512  1.00  0.00     0.106 C
BRANCH   9  10
HETATM   10  C4  UNL     1      43.706 -44.257   3.968  1.00  0.00    -0.017 C
HETATM   11  C2  UNL     1      44.188 -45.381   4.466  1.00  0.00    -0.091 C
HETATM   12  C1  UNL     1      45.181 -45.336   5.554  1.00  0.00     0.042 C
HETATM   13  C3  UNL     1      43.730 -46.685   3.934  1.00  0.00     0.042 C
ENDBRANCH   9  10
ENDBRANCH   7   9
ENDBRANCH   6   7
ENDBRANCH   4   6
ENDBRANCH   3   4
ENDBRANCH   1   3
BRANCH   1  14
HETATM   14  O4  UNL     1      42.361 -42.424   9.274  1.00  0.00    -0.341 OA
ATOM     15  H4  UNL     1      42.432 -42.524  10.216  1.00  0.00     0.220 HD
ENDBRANCH   1  14
BRANCH   2  16
HETATM   16  C11 UNL     1      44.319 -44.487   9.153  1.00  0.00     0.005 C
HETATM   17  C12 UNL     1      45.312 -45.308   9.187  1.00  0.00     0.000 C
BRANCH  17  18
HETATM   18  C13 UNL     1      45.554 -46.621   9.717  1.00  0.00    -0.000 C
BRANCH  18  19
HETATM   19  C14 UNL     1      45.542 -47.845   8.989  1.00  0.00    -0.004 C
BRANCH  19  20
HETATM   20  C15 UNL     1      45.360 -48.131   7.754  1.00  0.00    -0.022 C
BRANCH  20  21
HETATM   21  C16 UNL     1      46.214 -49.144   7.012  1.00  0.00     0.008 C
HETATM   22  C17 UNL     1      47.656 -49.082   7.420  1.00  0.00     0.008 C
HETATM   23  C18 UNL     1      48.315 -49.924   6.342  1.00  0.00     0.001 C
HETATM   24  C19 UNL     1      47.399 -49.839   5.125  1.00  0.00     0.001 C
HETATM   25  C20 UNL     1      46.291 -48.862   5.543  1.00  0.00     0.008 C
ENDBRANCH  20  21
ENDBRANCH  19  20
ENDBRANCH  18  19
ENDBRANCH  17  18
ENDBRANCH   2  16
TORSDOF 12
ENDMDL