MODEL 1
REMARK VINA RESULT: -8.541348863      0.000      0.000
REMARK  9 active torsions:
REMARK  status: ('A' for Active; 'I' for Inactive)
REMARK    1  A    between atoms: C2_2  and  C3_3
REMARK    2  A    between atoms: C3_3  and  C4_4
REMARK    3  A    between atoms: C4_4  and  C5_5
REMARK    4  A    between atoms: C5_5  and  O1_7
REMARK    5  A    between atoms: O1_7  and  C7_8
REMARK    6  A    between atoms: C8_11  and  S1_12
REMARK    7  A    between atoms: S1_12  and  C9_13
REMARK    8  A    between atoms: C9_13  and  C11_15
REMARK    9  A    between atoms: C13_19  and  C14_20
ROOT
HETATM    1  C7  UNL     1      44.649 -43.820   5.049  1.00  0.00     0.167 A
HETATM    2  N1  UNL     1      44.822 -44.553   6.191  1.00  0.00    -0.316 N
ATOM      3  H1  UNL     1      44.821 -44.082   7.096  1.00  0.00     0.170 HD
HETATM    4  C8  UNL     1      44.995 -45.882   6.137  1.00  0.00     0.146 A
HETATM    5  N2  UNL     1      45.005 -46.546   4.973  1.00  0.00    -0.338 N
ATOM      6  H2  UNL     1      45.140 -47.556   4.975  1.00  0.00     0.168 HD
HETATM    7  C13 UNL     1      44.838 -45.895   3.782  1.00  0.00     0.040 A
HETATM    8  C17 UNL     1      44.662 -44.526   3.865  1.00  0.00     0.118 A
HETATM    9  C18 UNL     1      44.487 -43.825   2.624  1.00  0.00     0.106 C
HETATM   10  N3  UNL     1      44.358 -43.248   1.636  1.00  0.00    -0.191 NA
ENDROOT
BRANCH   1  11
HETATM   11  O1  UNL     1      44.469 -42.458   5.041  1.00  0.00    -0.329 OA
BRANCH  11  12
HETATM   12  C5  UNL     1      43.234 -41.809   5.199  1.00  0.00     0.127 C
HETATM   13  C6  UNL     1      43.356 -40.429   5.795  1.00  0.00     0.040 C
BRANCH  12  14
HETATM   14  C4  UNL     1      42.417 -42.637   6.204  1.00  0.00     0.036 C
BRANCH  14  15
HETATM   15  C3  UNL     1      41.325 -41.779   6.812  1.00  0.00     0.029 C
BRANCH  15  16
HETATM   16  C2  UNL     1      41.356 -41.956   8.301  1.00  0.00    -0.037 C
HETATM   17  C1  UNL     1      42.441 -42.352   8.929  1.00  0.00     0.007 C
ENDBRANCH  15  16
ENDBRANCH  14  15
ENDBRANCH  12  14
ENDBRANCH  11  12
ENDBRANCH   1  11
BRANCH   7  18
HETATM   18  C14 UNL     1      44.845 -46.621   2.485  1.00  0.00     0.029 C
HETATM   19  C15 UNL     1      45.486 -47.989   2.755  1.00  0.00     0.016 C
HETATM   20  C16 UNL     1      43.456 -46.832   1.942  1.00  0.00     0.016 C
ENDBRANCH   7  18
BRANCH   4  21
HETATM   21  S1  UNL     1      45.216 -46.783   7.648  1.00  0.00    -0.089 SA
BRANCH  21  22
HETATM   22  C9  UNL     1      44.981 -45.797   9.117  1.00  0.00     0.051 C
HETATM   23  C10 UNL     1      45.989 -44.682   9.267  1.00  0.00     0.022 C
BRANCH  22  24
HETATM   24  C11 UNL     1      44.982 -46.654  10.372  1.00  0.00     0.011 C
HETATM   25  C12 UNL     1      45.512 -48.036  10.069  1.00  0.00     0.006 C
ENDBRANCH  22  24
ENDBRANCH  21  22
ENDBRANCH   4  21
TORSDOF 9
ENDMDL