MODEL 4
REMARK VINA RESULT: -7.887806476      1.511      1.919
REMARK  9 active torsions:
REMARK  status: ('A' for Active; 'I' for Inactive)
REMARK    1  A    between atoms: C2_2  and  C3_3
REMARK    2  A    between atoms: C3_3  and  C4_4
REMARK    3  A    between atoms: C5_5  and  C6_6
REMARK    4  A    between atoms: C7_7  and  C8_8
REMARK    5  A    between atoms: C8_8  and  C9_10
REMARK    6  A    between atoms: C10_11  and  C11_12
REMARK    7  A    between atoms: C13_14  and  O2_15
REMARK    8  A    between atoms: C15_17  and  O3_18
REMARK    9  A    between atoms: C17_20  and  O4_21
ROOT
HETATM    1  C11 UNL     1      32.553 -42.651  10.923  1.00  0.00    -0.010 A
HETATM    2  C12 UNL     1      31.399 -42.082  10.335  1.00  0.00     0.052 A
HETATM    3  C13 UNL     1      30.325 -41.693  11.087  1.00  0.00     0.105 A
HETATM    4  C15 UNL     1      30.293 -41.826  12.453  1.00  0.00     0.136 A
HETATM    5  C17 UNL     1      31.393 -42.375  13.055  1.00  0.00     0.126 A
HETATM    6  C19 UNL     1      32.504 -42.779  12.275  1.00  0.00     0.091 A
HETATM    7  C20 UNL     1      33.566 -43.430  13.011  1.00  0.00     0.103 C
HETATM    8  N1  UNL     1      34.383 -43.969  13.621  1.00  0.00    -0.191 NA
ENDROOT
BRANCH   1   9
HETATM    9  C10 UNL     1      33.625 -43.076  10.052  1.00  0.00     0.017 C
HETATM   10  C9  UNL     1      34.205 -42.536   9.041  1.00  0.00     0.055 C
BRANCH  10  11
HETATM   11  C8  UNL     1      35.289 -43.191   8.332  1.00  0.00     0.172 C
HETATM   12  O1  UNL     1      36.454 -42.712   8.572  1.00  0.00    -0.289 OA
BRANCH  11  13
HETATM   13  C7  UNL     1      35.146 -44.293   7.418  1.00  0.00     0.054 C
HETATM   14  C6  UNL     1      35.263 -45.571   7.668  1.00  0.00     0.004 C
BRANCH  14  15
HETATM   15  C5  UNL     1      35.566 -46.183   8.934  1.00  0.00    -0.004 C
HETATM   16  C4  UNL     1      36.722 -46.881   9.055  1.00  0.00    -0.027 C
BRANCH  16  17
HETATM   17  C3  UNL     1      37.050 -47.514  10.343  1.00  0.00     0.027 C
BRANCH  17  18
HETATM   18  C2  UNL     1      37.095 -46.422  11.390  1.00  0.00    -0.001 C
HETATM   19  C1  UNL     1      36.167 -46.718  12.544  1.00  0.00     0.005 C
ENDBRANCH  17  18
ENDBRANCH  16  17
ENDBRANCH  14  15
ENDBRANCH  11  13
ENDBRANCH  10  11
ENDBRANCH   1   9
BRANCH   5  20
HETATM   20  O4  UNL     1      31.421 -42.537  14.440  1.00  0.00    -0.352 OA
HETATM   21  C18 UNL     1      30.732 -43.589  15.063  1.00  0.00     0.210 C
ENDBRANCH   5  20
BRANCH   4  22
HETATM   22  O3  UNL     1      29.229 -41.445  13.247  1.00  0.00    -0.351 OA
HETATM   23  C16 UNL     1      29.175 -40.111  13.721  1.00  0.00     0.210 C
ENDBRANCH   4  22
BRANCH   3  24
HETATM   24  O2  UNL     1      29.177 -41.127  10.508  1.00  0.00    -0.353 OA
HETATM   25  C14 UNL     1      29.368 -40.102   9.550  1.00  0.00     0.210 C
ENDBRANCH   3  24
TORSDOF 9
ENDMDL