MODEL 3
REMARK VINA RESULT: -7.904668151      5.417      8.029
REMARK  9 active torsions:
REMARK  status: ('A' for Active; 'I' for Inactive)
REMARK    1  A    between atoms: C2_2  and  C3_3
REMARK    2  A    between atoms: C3_3  and  C6_6
REMARK    3  A    between atoms: C6_6  and  C7_7
REMARK    4  A    between atoms: C6_6  and  O4_22
REMARK    5  A    between atoms: C8_8  and  C9_9
REMARK    6  A    between atoms: C10_10  and  C11_11
REMARK    7  A    between atoms: C15_16  and  C16_17
REMARK    8  A    between atoms: C16_17  and  O1_18
REMARK    9  A    between atoms: O1_18  and  N1_19
ROOT
HETATM    1  C9  UNL     1      32.594 -41.899  11.180  1.00  0.00     0.001 C
HETATM    2  C10 UNL     1      31.872 -42.377  12.070  1.00  0.00     0.019 C
ENDROOT
BRANCH   2   3
HETATM    3  C11 UNL     1      30.615 -41.679  12.451  1.00  0.00     0.013 A
HETATM    4  S1  UNL     1      29.249 -41.472  11.438  1.00  0.00    -0.101 SA
HETATM    5  C12 UNL     1      28.201 -40.756  12.561  1.00  0.00     0.057 A
HETATM    6  C13 UNL     1      28.947 -40.693  13.702  1.00  0.00    -0.046 A
HETATM    7  C14 UNL     1      28.351 -40.141  14.998  1.00  0.00     0.049 C
HETATM    8  C15 UNL     1      30.212 -41.174  13.642  1.00  0.00    -0.008 A
BRANCH   8   9
HETATM    9  C16 UNL     1      31.224 -41.118  14.792  1.00  0.00     0.248 C
BRANCH   9  10
HETATM   10  O1  UNL     1      30.956 -42.095  15.732  1.00  0.00    -0.217 OA
BRANCH  10  11
HETATM   11  N1  UNL     1      30.489 -43.351  15.530  1.00  0.00     0.005 N
HETATM   12  O2  UNL     1      29.286 -43.607  15.812  1.00  0.00    -0.511 OA
HETATM   13  O3  UNL     1      31.283 -44.330  15.015  1.00  0.00    -0.511 OA
ENDBRANCH  10  11
ENDBRANCH   9  10
ENDBRANCH   8   9
ENDBRANCH   2   3
BRANCH   1  14
HETATM   14  C8  UNL     1      33.803 -42.142  10.469  1.00  0.00     0.002 C
HETATM   15  C7  UNL     1      34.037 -43.441  10.115  1.00  0.00     0.033 C
BRANCH  15  16
HETATM   16  C6  UNL     1      35.210 -43.936   9.375  1.00  0.00     0.053 C
BRANCH  16  17
HETATM   17  C3  UNL     1      35.939 -45.005  10.172  1.00  0.00     0.001 C
HETATM   18  C4  UNL     1      37.289 -44.663  10.634  1.00  0.00     0.022 C
HETATM   19  C5  UNL     1      35.113 -45.380  11.407  1.00  0.00     0.022 C
BRANCH  17  20
HETATM   20  C2  UNL     1      36.005 -46.271   9.324  1.00  0.00     0.011 C
HETATM   21  C1  UNL     1      36.997 -47.233   9.926  1.00  0.00     0.006 C
ENDBRANCH  17  20
ENDBRANCH  16  17
BRANCH  16  22
HETATM   22  O4  UNL     1      35.971 -43.079   8.680  1.00  0.00    -0.359 OA
HETATM   23  C17 UNL     1      35.833 -43.156   7.303  1.00  0.00     0.209 C
ENDBRANCH  16  22
ENDBRANCH  15  16
ENDBRANCH   1  14
TORSDOF 9
ENDMDL