MODEL 2
REMARK VINA RESULT: -8.813794659      2.377      4.495
REMARK  9 active torsions:
REMARK  status: ('A' for Active; 'I' for Inactive)
REMARK    1  A    between atoms: C4_4  and  C5_5
REMARK    2  A    between atoms: C5_5  and  C6_6
REMARK    3  A    between atoms: C6_6  and  C7_7
REMARK    4  A    between atoms: C9_9  and  C10_10
REMARK    5  A    between atoms: C10_10  and  C11_11
REMARK    6  A    between atoms: C11_11  and  O1_13
REMARK    7  A    between atoms: O1_13  and  C13_14
REMARK    8  A    between atoms: C13_14  and  C14_15
REMARK    9  A    between atoms: N4_22  and  C15_23
ROOT
HETATM    1  C13 UNL     1      45.044 -47.270   5.302  1.00  0.00     0.247 C
ENDROOT
BRANCH   1   2
HETATM    2  O1  UNL     1      45.611 -46.925   4.096  1.00  0.00    -0.379 OA
BRANCH   2   3
HETATM    3  C11 UNL     1      44.766 -46.383   3.161  1.00  0.00     0.121 C
HETATM    4  C12 UNL     1      43.352 -46.334   3.611  1.00  0.00     0.040 C
BRANCH   3   5
HETATM    5  C10 UNL     1      45.270 -44.979   2.779  1.00  0.00     0.059 C
BRANCH   5   6
HETATM    6  C9  UNL     1      44.368 -43.989   3.401  1.00  0.00    -0.022 C
HETATM    7  C7  UNL     1      44.651 -43.294   4.510  1.00  0.00    -0.087 C
HETATM    8  C8  UNL     1      45.930 -43.501   5.234  1.00  0.00     0.043 C
BRANCH   7   9
HETATM    9  C6  UNL     1      43.656 -42.341   5.016  1.00  0.00     0.037 C
BRANCH   9  10
HETATM   10  C5  UNL     1      42.598 -42.957   5.850  1.00  0.00     0.031 C
BRANCH  10  11
HETATM   11  C4  UNL     1      42.675 -42.794   7.299  1.00  0.00    -0.024 C
HETATM   12  C2  UNL     1      41.676 -42.204   7.978  1.00  0.00    -0.091 C
HETATM   13  C1  UNL     1      40.500 -41.729   7.200  1.00  0.00     0.042 C
HETATM   14  C3  UNL     1      41.759 -42.043   9.434  1.00  0.00     0.042 C
ENDBRANCH  10  11
ENDBRANCH   9  10
ENDBRANCH   7   9
ENDBRANCH   5   6
ENDBRANCH   3   5
ENDBRANCH   2   3
ENDBRANCH   1   2
BRANCH   1  15
HETATM   15  C14 UNL     1      45.971 -47.998   6.171  1.00  0.00     0.139 A
HETATM   16  N1  UNL     1      46.973 -48.829   5.887  1.00  0.00    -0.270 N
HETATM   17  N2  UNL     1      47.511 -49.231   7.020  1.00  0.00    -0.227 N
ATOM     18  H1  UNL     1      47.273 -49.105   4.952  1.00  0.00     0.190 HD
HETATM   19  N3  UNL     1      46.851 -48.657   8.010  1.00  0.00    -0.224 N
ATOM     20  H2  UNL     1      48.298 -49.873   7.116  1.00  0.00     0.210 HD
HETATM   21  N4  UNL     1      45.890 -47.887   7.538  1.00  0.00    -0.257 N
ATOM     22  H3  UNL     1      47.055 -48.792   9.000  1.00  0.00     0.210 HD
BRANCH  21  23
HETATM   23  C15 UNL     1      44.960 -47.099   8.303  1.00  0.00     0.111 C
HETATM   24  C16 UNL     1      45.141 -47.243   9.788  1.00  0.00     0.027 C
HETATM   25  C17 UNL     1      44.872 -45.866  10.373  1.00  0.00     0.002 C
HETATM   26  C18 UNL     1      45.236 -44.893   9.281  1.00  0.00     0.002 C
HETATM   27  C19 UNL     1      45.139 -45.642   7.987  1.00  0.00     0.027 C
ENDBRANCH  21  23
ENDBRANCH   1  15
TORSDOF 9
ENDMDL