MODEL 2
REMARK VINA RESULT: -8.126353640      1.554      2.436
REMARK  8 active torsions:
REMARK  status: ('A' for Active; 'I' for Inactive)
REMARK    1  A    between atoms: C2_2  and  C3_3
REMARK    2  A    between atoms: C3_3  and  C4_4
REMARK    3  A    between atoms: C4_4  and  C5_5
REMARK    4  A    between atoms: C6_6  and  C7_7
REMARK    5  A    between atoms: C10_10  and  O1_11
REMARK    6  A    between atoms: C12_15  and  O2_16
REMARK    7  A    between atoms: C16_20  and  O3_21
REMARK    8  A    between atoms: C18_23  and  O4_24
ROOT
HETATM    1  C7  UNL     1      44.147 -44.214   5.914  1.00  0.00     0.001 A
HETATM    2  C8  UNL     1      44.100 -44.537   4.551  1.00  0.00     0.031 A
HETATM    3  C9  UNL     1      44.585 -45.763   4.119  1.00  0.00     0.029 A
HETATM    4  C10 UNL     1      44.553 -46.113   2.779  1.00  0.00     0.155 A
HETATM    5  N1  UNL     1      45.026 -47.306   2.375  1.00  0.00    -0.317 N
ATOM      6  H1  UNL     1      44.987 -47.530   1.381  1.00  0.00     0.170 HD
HETATM    7  C12 UNL     1      45.548 -48.218   3.214  1.00  0.00     0.144 A
HETATM    8  C14 UNL     1      45.592 -47.894   4.554  1.00  0.00     0.071 A
HETATM    9  C15 UNL     1      45.109 -46.664   5.012  1.00  0.00     0.019 A
HETATM   10  C16 UNL     1      45.146 -46.328   6.348  1.00  0.00     0.113 A
HETATM   11  C18 UNL     1      44.679 -45.127   6.818  1.00  0.00     0.112 A
ENDROOT
BRANCH   1  12
HETATM   12  C6  UNL     1      43.669 -42.967   6.450  1.00  0.00     0.010 C
HETATM   13  C5  UNL     1      43.668 -41.867   5.754  1.00  0.00    -0.025 C
BRANCH  13  14
HETATM   14  C4  UNL     1      43.173 -40.557   6.297  1.00  0.00     0.031 C
BRANCH  14  15
HETATM   15  C3  UNL     1      41.782 -40.263   5.826  1.00  0.00     0.030 C
BRANCH  15  16
HETATM   16  C2  UNL     1      40.793 -40.627   6.891  1.00  0.00    -0.037 C
HETATM   17  C1  UNL     1      40.080 -41.737   6.806  1.00  0.00     0.007 C
ENDBRANCH  15  16
ENDBRANCH  14  15
ENDBRANCH  13  14
ENDBRANCH   1  12
BRANCH  11  18
HETATM   18  O4  UNL     1      44.734 -44.837   8.142  1.00  0.00    -0.352 OA
HETATM   19  C19 UNL     1      45.848 -44.346   8.843  1.00  0.00     0.210 C
ENDBRANCH  11  18
BRANCH  10  20
HETATM   20  O3  UNL     1      45.695 -47.299   7.195  1.00  0.00    -0.352 OA
HETATM   21  C17 UNL     1      44.913 -48.169   7.960  1.00  0.00     0.210 C
ENDBRANCH  10  20
BRANCH   4  22
HETATM   22  O1  UNL     1      44.016 -45.176   1.907  1.00  0.00    -0.340 OA
HETATM   23  C11 UNL     1      43.030 -45.584   0.954  1.00  0.00     0.211 C
ENDBRANCH   4  22
BRANCH   7  24
HETATM   24  O2  UNL     1      46.035 -49.459   2.755  1.00  0.00    -0.341 OA
HETATM   25  C13 UNL     1      46.853 -50.262   3.571  1.00  0.00     0.211 C
ENDBRANCH   7  24
TORSDOF 8
ENDMDL