MODEL 5
REMARK VINA RESULT: -6.081595983      1.522      2.161
REMARK  9 active torsions:
REMARK  status: ('A' for Active; 'I' for Inactive)
REMARK    1  A    between atoms: C2_2  and  C4_4
REMARK    2  A    between atoms: C4_4  and  C5_5
REMARK    3  A    between atoms: C7_8  and  C8_9
REMARK    4  A    between atoms: C8_9  and  S2_10
REMARK    5  A    between atoms: S2_10  and  S3_11
REMARK    6  A    between atoms: S3_11  and  C9_12
REMARK    7  A    between atoms: C9_12  and  C10_13
REMARK    8  A    between atoms: C10_13  and  N1_14
REMARK    9  A    between atoms: N1_14  and  C12_16
ROOT
HETATM    1  C8  UNL     1      32.251 -43.574   9.971  1.00  0.00     0.102 C
ENDROOT
BRANCH   1   2
HETATM    2  C7  UNL     1      33.217 -42.975   8.977  1.00  0.00     0.068 C
HETATM    3  C6  UNL     1      33.564 -43.925   7.866  1.00  0.00     0.091 C
HETATM    4  S1  UNL     1      34.369 -45.322   8.685  1.00  0.00    -0.152 SA
HETATM    5  C5  UNL     1      35.153 -44.612  10.137  1.00  0.00     0.109 C
HETATM    6  S4  UNL     1      34.809 -42.823   9.845  1.00  0.00    -0.147 SA
BRANCH   5   7
HETATM    7  C4  UNL     1      36.595 -44.884  10.202  1.00  0.00     0.029 C
BRANCH   7   8
HETATM    8  C2  UNL     1      36.953 -45.963  11.170  1.00  0.00    -0.021 C
HETATM    9  C1  UNL     1      37.162 -47.233  10.323  1.00  0.00     0.009 C
HETATM   10  C3  UNL     1      35.961 -46.254  12.250  1.00  0.00     0.009 C
ENDBRANCH   7   8
ENDBRANCH   5   7
ENDBRANCH   1   2
BRANCH   1  11
HETATM   11  S2  UNL     1      31.282 -42.374  10.872  1.00  0.00    -0.096 SA
BRANCH  11  12
HETATM   12  S3  UNL     1      32.115 -42.052  12.779  1.00  0.00    -0.092 SA
BRANCH  12  13
HETATM   13  C9  UNL     1      30.882 -42.474  14.036  1.00  0.00     0.130 C
BRANCH  13  14
HETATM   14  C10 UNL     1      29.559 -42.797  13.383  1.00  0.00     0.069 C
BRANCH  14  15
HETATM   15  N1  UNL     1      28.498 -41.934  13.707  1.00  0.00    -0.393 N
HETATM   16  C11 UNL     1      28.340 -41.503  15.041  1.00  0.00     0.149 C
BRANCH  15  17
HETATM   17  C12 UNL     1      27.884 -41.186  12.680  1.00  0.00     0.074 C
HETATM   18  C13 UNL     1      26.435 -40.943  13.078  1.00  0.00     0.032 C
HETATM   19  C14 UNL     1      28.577 -39.836  12.572  1.00  0.00     0.032 C
ENDBRANCH  15  17
ENDBRANCH  14  15
ENDBRANCH  13  14
ENDBRANCH  12  13
ENDBRANCH  11  12
ENDBRANCH   1  11
TORSDOF 9
ENDMDL