MODEL 2
REMARK VINA RESULT: -8.274399131      3.443      5.404
REMARK  9 active torsions:
REMARK  status: ('A' for Active; 'I' for Inactive)
REMARK    1  A    between atoms: C2_2  and  C3_4
REMARK    2  A    between atoms: C3_4  and  C16_21
REMARK    3  A    between atoms: N1_5  and  O2_7
REMARK    4  A    between atoms: O2_7  and  C4_8
REMARK    5  A    between atoms: C4_8  and  C5_9
REMARK    6  A    between atoms: C4_8  and  C10_15
REMARK    7  A    between atoms: C5_9  and  O3_10
REMARK    8  A    between atoms: O3_10  and  C6_11
REMARK    9  A    between atoms: C6_11  and  C7_12
ROOT
HETATM    1  C4  UNL     1      45.702 -47.703   6.253  1.00  0.00     0.180 C
ENDROOT
BRANCH   1   2
HETATM    2  O2  UNL     1      46.448 -48.664   5.507  1.00  0.00    -0.272 OA
BRANCH   2   3
HETATM    3  N1  UNL     1      47.312 -49.537   6.030  1.00  0.00    -0.262 N
HETATM    4  C3  UNL     1      48.185 -50.124   5.210  1.00  0.00     0.111 C
ATOM      5  H1  UNL     1      47.305 -49.748   7.028  1.00  0.00     0.194 HD
BRANCH   4   6
HETATM    6  C2  UNL     1      48.177 -49.815   3.828  1.00  0.00     0.174 C
HETATM    7  C1  UNL     1      47.286 -50.359   2.815  1.00  0.00     0.098 C
HETATM    8  O1  UNL     1      49.044 -48.959   3.383  1.00  0.00    -0.291 OA
ENDBRANCH   4   6
BRANCH   4   9
HETATM    9  C16 UNL     1      49.072 -51.053   5.896  1.00  0.00     0.020 A
HETATM   10  C17 UNL     1      48.994 -51.337   7.285  1.00  0.00     0.040 A
HETATM   11  C18 UNL     1      49.989 -52.250   7.541  1.00  0.00     0.142 A
HETATM   12  O4  UNL     1      50.611 -52.502   6.437  1.00  0.00    -0.334 OA
HETATM   13  C19 UNL     1      50.090 -51.805   5.435  1.00  0.00     0.155 A
ENDBRANCH   4   9
ENDBRANCH   2   3
ENDBRANCH   1   2
BRANCH   1  14
HETATM   14  C5  UNL     1      44.917 -48.402   7.316  1.00  0.00     0.202 C
BRANCH  14  15
HETATM   15  O3  UNL     1      45.571 -48.410   8.543  1.00  0.00    -0.388 OA
BRANCH  15  16
HETATM   16  C6  UNL     1      45.937 -47.103   8.823  1.00  0.00     0.171 C
BRANCH  16  17
HETATM   17  C7  UNL     1      44.793 -46.274   9.363  1.00  0.00     0.001 C
HETATM   18  C8  UNL     1      45.000 -44.804   9.059  1.00  0.00     0.011 C
HETATM   19  C9  UNL     1      44.596 -46.470  10.835  1.00  0.00     0.011 C
ENDBRANCH  16  17
ENDBRANCH  15  16
ENDBRANCH  14  15
ENDBRANCH   1  14
BRANCH   1  20
HETATM   20  C10 UNL     1      44.882 -46.945   5.263  1.00  0.00     0.019 C
HETATM   21  C11 UNL     1      45.003 -45.471   5.469  1.00  0.00     0.007 C
HETATM   22  C12 UNL     1      44.793 -44.797   4.129  1.00  0.00     0.000 C
HETATM   23  C13 UNL     1      43.567 -45.420   3.476  1.00  0.00     0.000 C
HETATM   24  C14 UNL     1      43.861 -46.869   3.064  1.00  0.00     0.000 C
HETATM   25  C15 UNL     1      45.102 -47.357   3.827  1.00  0.00     0.007 C
ENDBRANCH   1  20
TORSDOF 9
ENDMDL