MODEL 1
REMARK VINA RESULT: -5.320140402      0.000      0.000
REMARK  2 active torsions:
REMARK  status: ('A' for Active; 'I' for Inactive)
REMARK    1  A    between atoms: N2_4  and  C2_5
REMARK    2  A    between atoms: C2_5  and  C3_6
ROOT
HETATM    1  C1  UNL     1     -30.941 -34.798   8.134  1.00  0.00     0.198 A
HETATM    2  N1  UNL     1     -31.039 -33.472   7.877  1.00  0.00    -0.293 N
ATOM      3  H1  UNL     1     -31.756 -33.044   7.291  1.00  0.00     0.188 HD
HETATM    4  N2  UNL     1     -30.071 -32.811   8.494  1.00  0.00    -0.286 N
HETATM    5  C6  UNL     1     -29.360 -33.749   9.145  1.00  0.00     0.201 A
HETATM    6  N3  UNL     1     -29.884 -34.971   8.932  1.00  0.00    -0.346 N
ATOM      7  H3  UNL     1     -29.541 -35.855   9.306  1.00  0.00     0.167 HD
ENDROOT
BRANCH   4   8
HETATM    8  C2  UNL     1     -29.829 -31.370   8.468  1.00  0.00     0.154 C
BRANCH   8   9
HETATM    9  C3  UNL     1     -29.753 -30.782   9.834  1.00  0.00     0.005 A
HETATM   10  C4  UNL     1     -29.014 -29.517  10.097  1.00  0.00     0.007 A
HETATM   11  C5  UNL     1     -30.492 -29.483  10.034  1.00  0.00     0.007 A
ENDBRANCH   8   9
ENDBRANCH   4   8
TORSDOF 2
ENDMDL