MODEL 4
REMARK VINA RESULT: -4.637159754      1.810      2.465
REMARK  2 active torsions:
REMARK  status: ('A' for Active; 'I' for Inactive)
REMARK    1  A    between atoms: C2_2  and  O1_3
REMARK    2  A    between atoms: O1_3  and  C3_4
ROOT
HETATM    1  C3  UNL     1     -28.289 -31.725   9.432  1.00  0.00     0.176 C
HETATM    2  C4  UNL     1     -28.163 -30.619   8.439  1.00  0.00     0.004 C
HETATM    3  C5  UNL     1     -28.533 -29.409   8.848  1.00  0.00    -0.001 C
HETATM    4  C6  UNL     1     -29.027 -29.358  10.273  1.00  0.00     0.259 C
HETATM    5  N1  UNL     1     -30.085 -30.329  10.373  1.00  0.00    -0.069 N
ATOM      6  H11 UNL     1     -30.903 -30.019   9.850  1.00  0.00     0.277 HD
ATOM      7  H12 UNL     1     -30.474 -30.336  11.316  1.00  0.00     0.277 HD
HETATM    8  C7  UNL     1     -29.710 -31.644   9.980  1.00  0.00     0.268 C
ENDROOT
BRANCH   1   9
HETATM    9  O1  UNL     1     -28.189 -32.971   8.771  1.00  0.00    -0.353 OA
BRANCH   9  10
HETATM   10  C2  UNL     1     -28.883 -34.102   9.144  1.00  0.00     0.125 C
HETATM   11  C1  UNL     1     -28.315 -35.032   9.882  1.00  0.00     0.037 C
ENDBRANCH   9  10
ENDBRANCH   1   9
TORSDOF 2
ENDMDL