MODEL 2
REMARK VINA RESULT: -5.374250885      1.161      1.161
REMARK  2 active torsions:
REMARK  status: ('A' for Active; 'I' for Inactive)
REMARK    1  A    between atoms: N1_1  and  N2_4
REMARK    2  A    between atoms: N2_4  and  N3_6
ROOT
HETATM    1  N3  UNL     1     -29.834 -32.593   8.121  1.00  0.00    -0.275 N
ATOM      2  H3  UNL     1     -29.476 -32.702   7.172  1.00  0.00     0.189 HD
HETATM    3  C1  UNL     1     -29.522 -31.535   8.789  1.00  0.00     0.093 C
HETATM    4  C2  UNL     1     -28.661 -30.449   8.258  1.00  0.00     0.079 C
HETATM    5  C3  UNL     1     -28.871 -29.276   9.179  1.00  0.00     0.027 C
HETATM    6  C4  UNL     1     -29.825 -29.722  10.257  1.00  0.00     0.121 C
HETATM    7  N4  UNL     1     -29.886 -31.152  10.111  1.00  0.00    -0.379 N
ATOM      8  H4  UNL     1     -30.153 -31.801  10.851  1.00  0.00     0.160 HD
ENDROOT
BRANCH   1   9
HETATM    9  N2  UNL     1     -30.650 -33.597   8.658  1.00  0.00    -0.248 N
ATOM     10  H2  UNL     1     -30.572 -33.863   9.640  1.00  0.00     0.207 HD
BRANCH   9  11
HETATM   11  N1  UNL     1     -31.500 -34.178   7.884  1.00  0.00    -0.331 N
ATOM     12  H12 UNL     1     -32.496 -33.980   7.984  1.00  0.00     0.178 HD
ATOM     13  H11 UNL     1     -31.152 -34.830   7.181  1.00  0.00     0.178 HD
ENDBRANCH   9  11
ENDBRANCH   1   9
TORSDOF 2
ENDMDL