MODEL 1
REMARK VINA RESULT: -5.483142383      0.000      0.000
REMARK  1 active torsions:
REMARK  status: ('A' for Active; 'I' for Inactive)
REMARK    1  A    between atoms: N2_4  and  N3_6
ROOT
HETATM    1  N3  UNL     1     -30.968 -33.272   7.934  1.00  0.00    -0.269 N
ATOM      2  H3  UNL     1     -31.468 -32.667   7.283  1.00  0.00     0.190 HD
HETATM    3  C1  UNL     1     -29.954 -32.774   8.557  1.00  0.00     0.133 C
HETATM    4  C2  UNL     1     -29.509 -31.367   8.348  1.00  0.00     0.087 C
HETATM    5  C3  UNL     1     -28.234 -31.257   9.184  1.00  0.00     0.035 C
HETATM    6  C4  UNL     1     -27.973 -32.643   9.724  1.00  0.00     0.177 C
HETATM    7  O1  UNL     1     -29.136 -33.405   9.476  1.00  0.00    -0.338 OA
ENDROOT
BRANCH   1   8
HETATM    8  N2  UNL     1     -31.425 -34.565   8.086  1.00  0.00    -0.248 N
HETATM    9  N1  UNL     1     -32.611 -34.762   8.482  1.00  0.00    -0.331 N
ATOM     10  H12 UNL     1     -33.210 -33.962   8.683  1.00  0.00     0.178 HD
ATOM     11  H11 UNL     1     -32.949 -35.718   8.594  1.00  0.00     0.178 HD
ATOM     12  H2  UNL     1     -30.812 -35.354   7.881  1.00  0.00     0.207 HD
ENDBRANCH   1   8
TORSDOF 1
ENDMDL