MODEL 1
REMARK VINA RESULT: -5.536613282      0.000      0.000
REMARK  3 active torsions:
REMARK  status: ('A' for Active; 'I' for Inactive)
REMARK    1  A    between atoms: C3_3  and  C4_4
REMARK    2  A    between atoms: C3_3  and  N1_6
REMARK    3  A    between atoms: C7_8  and  N2_9
ROOT
HETATM    1  C1  UNL     1     -31.117 -28.818  10.020  1.00  0.00     0.014 C
HETATM    2  C2  UNL     1     -30.205 -29.609   9.932  1.00  0.00    -0.077 C
HETATM    3  C3  UNL     1     -29.093 -30.574   9.798  1.00  0.00     0.325 C
ENDROOT
BRANCH   3   4
HETATM    4  C4  UNL     1     -28.342 -30.214   8.582  1.00  0.00     0.011 C
HETATM    5  C5  UNL     1     -28.223 -28.958   8.227  1.00  0.00     0.010 C
ENDBRANCH   3   4
BRANCH   3   6
HETATM    6  N1  UNL     1     -29.733 -31.886   9.637  1.00  0.00     0.144 N
HETATM    7  C6  UNL     1     -28.730 -32.945   9.478  1.00  0.00     0.342 A
HETATM    8  C7  UNL     1     -29.688 -32.552   8.379  1.00  0.00     0.447 A
BRANCH   8   9
HETATM    9  N2  UNL     1     -30.767 -33.525   8.178  1.00  0.00    -0.046 N
ATOM     10  H23 UNL     1     -31.064 -33.920   9.071  1.00  0.00     0.277 HD
ATOM     11  H22 UNL     1     -31.629 -33.053   7.903  1.00  0.00     0.277 HD
ATOM     12  H21 UNL     1     -30.540 -34.268   7.517  1.00  0.00     0.277 HD
ENDBRANCH   8   9
ENDBRANCH   3   6
TORSDOF 3
ENDMDL