MODEL 4
REMARK VINA RESULT: -5.740945204      1.481      1.792
REMARK  1 active torsions:
REMARK  status: ('A' for Active; 'I' for Inactive)
REMARK    1  A    between atoms: N2_4  and  N3_6
ROOT
HETATM    1  N3  UNL     1     -30.761 -34.510   8.689  1.00  0.00    -0.269 N
ATOM      2  H3  UNL     1     -30.452 -35.393   9.097  1.00  0.00     0.190 HD
HETATM    3  C1  UNL     1     -29.975 -33.500   8.805  1.00  0.00     0.133 C
HETATM    4  C2  UNL     1     -28.689 -33.741   9.531  1.00  0.00     0.086 C
HETATM    5  C3  UNL     1     -28.230 -32.375  10.030  1.00  0.00     0.010 C
HETATM    6  C4  UNL     1     -27.933 -31.557   8.775  1.00  0.00     0.027 C
HETATM    7  C5  UNL     1     -29.262 -31.235   8.137  1.00  0.00     0.177 C
HETATM    8  O1  UNL     1     -30.220 -32.245   8.324  1.00  0.00    -0.338 OA
ENDROOT
BRANCH   1   9
HETATM    9  N2  UNL     1     -31.982 -34.501   8.061  1.00  0.00    -0.248 N
HETATM   10  N1  UNL     1     -33.022 -34.895   8.673  1.00  0.00    -0.331 N
ATOM     11  H12 UNL     1     -32.933 -35.218   9.636  1.00  0.00     0.178 HD
ATOM     12  H11 UNL     1     -33.929 -34.888   8.207  1.00  0.00     0.178 HD
ATOM     13  H2  UNL     1     -32.053 -34.176   7.098  1.00  0.00     0.207 HD
ENDBRANCH   1   9
TORSDOF 1
ENDMDL