MODEL 3
REMARK VINA RESULT: -4.575578350      1.793      4.253
REMARK  2 active torsions:
REMARK  status: ('A' for Active; 'I' for Inactive)
REMARK    1  A    between atoms: C2_2  and  C3_3
REMARK    2  A    between atoms: N1_5  and  C5_6
ROOT
HETATM    1  C5  UNL     1     -28.970 -29.988   9.332  1.00  0.00     0.274 C
HETATM    2  C6  UNL     1     -28.448 -28.890   8.452  1.00  0.00     0.269 C
HETATM    3  N2  UNL     1     -29.796 -28.537   8.012  1.00  0.00    -0.071 N
ATOM      4  H21 UNL     1     -29.993 -28.401   7.020  1.00  0.00     0.277 HD
ATOM      5  H22 UNL     1     -30.176 -27.611   8.209  1.00  0.00     0.277 HD
HETATM    6  C7  UNL     1     -30.309 -29.693   8.701  1.00  0.00     0.269 C
ENDROOT
BRANCH   1   7
HETATM    7  N1  UNL     1     -28.554 -31.315   9.067  1.00  0.00     0.108 N
HETATM    8  C3  UNL     1     -29.015 -32.463   9.788  1.00  0.00     0.274 A
HETATM    9  C4  UNL     1     -29.544 -32.205   8.372  1.00  0.00     0.313 A
BRANCH   8  10
HETATM   10  C2  UNL     1     -27.965 -33.507   9.952  1.00  0.00     0.000 C
HETATM   11  C1  UNL     1     -26.772 -33.204  10.446  1.00  0.00     0.009 C
ENDBRANCH   8  10
ENDBRANCH   1   7
TORSDOF 2
ENDMDL