MODEL 1
REMARK VINA RESULT: -5.816998794      0.000      0.000
REMARK  2 active torsions:
REMARK  status: ('A' for Active; 'I' for Inactive)
REMARK    1  A    between atoms: N2_4  and  N3_6
REMARK    2  A    between atoms: C1_8  and  C2_9
ROOT
HETATM    1  N3  UNL     1     -29.645 -33.023   8.916  1.00  0.00    -0.295 N
ATOM      2  H3  UNL     1     -29.127 -33.891   9.048  1.00  0.00     0.187 HD
HETATM    3  C1  UNL     1     -29.233 -31.969   9.514  1.00  0.00     0.145 C
ENDROOT
BRANCH   1   4
HETATM    4  N2  UNL     1     -30.771 -33.039   8.091  1.00  0.00    -0.250 N
HETATM    5  N1  UNL     1     -31.481 -34.069   7.973  1.00  0.00    -0.331 N
ATOM      6  H12 UNL     1     -31.216 -34.902   8.497  1.00  0.00     0.178 HD
ATOM      7  H11 UNL     1     -32.303 -34.081   7.370  1.00  0.00     0.178 HD
ATOM      8  H2  UNL     1     -31.021 -32.197   7.572  1.00  0.00     0.207 HD
ENDBRANCH   1   4
BRANCH   3   9
HETATM    9  C2  UNL     1     -29.952 -30.691   9.351  1.00  0.00     0.091 A
HETATM   10  C3  UNL     1     -30.323 -29.870  10.407  1.00  0.00     0.040 A
HETATM   11  C4  UNL     1     -30.975 -28.763   9.890  1.00  0.00     0.027 A
HETATM   12  C5  UNL     1     -30.966 -28.972   8.524  1.00  0.00     0.142 A
HETATM   13  O1  UNL     1     -30.352 -30.121   8.259  1.00  0.00    -0.321 OA
ENDBRANCH   3   9
TORSDOF 2
ENDMDL