MODEL 1
REMARK VINA RESULT: -5.979474806      0.000      0.000
REMARK  1 active torsions:
REMARK  status: ('A' for Active; 'I' for Inactive)
REMARK    1  A    between atoms: N2_4  and  N3_6
ROOT
HETATM    1  N3  UNL     1     -29.433 -32.340   7.643  1.00  0.00    -0.269 N
ATOM      2  H3  UNL     1     -29.023 -32.280   6.710  1.00  0.00     0.190 HD
HETATM    3  C1  UNL     1     -29.440 -31.324   8.428  1.00  0.00     0.137 C
HETATM    4  C2  UNL     1     -28.823 -30.046   7.922  1.00  0.00     0.112 C
HETATM    5  C3  UNL     1     -28.425 -29.249   9.142  1.00  0.00    -0.021 C
HETATM    6  C4  UNL     1     -29.134 -29.270  10.262  1.00  0.00    -0.004 C
HETATM    7  C5  UNL     1     -30.353 -30.121  10.265  1.00  0.00     0.204 C
HETATM    8  O1  UNL     1     -29.990 -31.370   9.704  1.00  0.00    -0.334 OA
ENDROOT
BRANCH   1   9
HETATM    9  N2  UNL     1     -29.999 -33.522   8.100  1.00  0.00    -0.248 N
HETATM   10  N1  UNL     1     -31.233 -33.727   7.957  1.00  0.00    -0.331 N
ATOM     11  H12 UNL     1     -31.803 -33.013   7.502  1.00  0.00     0.178 HD
ATOM     12  H11 UNL     1     -31.649 -34.596   8.293  1.00  0.00     0.178 HD
ATOM     13  H2  UNL     1     -29.415 -34.225   8.553  1.00  0.00     0.207 HD
ENDBRANCH   1   9
TORSDOF 1
ENDMDL