MODEL 5
REMARK VINA RESULT: -5.045698672      1.967      2.443
REMARK  1 active torsions:
REMARK  status: ('A' for Active; 'I' for Inactive)
REMARK    1  A    between atoms: C2_2  and  C3_3
REMARK       I    between atoms: N1_5  and  C5_6
ROOT
HETATM    1  C3  UNL     1      28.575  29.905   8.997  1.00  0.00     0.129 A
HETATM    2  C4  UNL     1      29.897  30.036   9.557  1.00  0.00     0.157 A
HETATM    3  N1  UNL     1      29.469  31.003   8.531  1.00  0.00    -0.325 N
HETATM    4  C5  UNL     1      29.745  32.129   7.726  1.00  0.00     0.331 C
HETATM    5  N2  UNL     1      28.754  32.605   6.826  1.00  0.00    -0.040 NA
HETATM    6  O1  UNL     1      30.844  32.693   7.811  1.00  0.00    -0.251 OA
ENDROOT
BRANCH   1   7
HETATM    7  C2  UNL     1      28.234  28.860   8.010  1.00  0.00    -0.010 C
HETATM    8  C1  UNL     1      29.106  27.969   7.557  1.00  0.00     0.009 C
ENDBRANCH   1   7
TORSDOF 1
ENDMDL