MODEL 1
REMARK VINA RESULT: -3.869654772      0.000      0.000
REMARK  1 active torsions:
REMARK  status: ('A' for Active; 'I' for Inactive)
REMARK    1  A    between atoms: C2_2  and  S1_3
ROOT
HETATM    1  S1  UNL     1      29.298  29.962   9.525  1.00  0.00    -0.109 SA
HETATM    2  C3  UNL     1      29.563  31.087   8.171  1.00  0.00     0.102 C
HETATM    3  C4  UNL     1      29.011  32.103   9.181  1.00  0.00     0.133 C
HETATM    4  N1  UNL     1      29.937  31.471  10.134  1.00  0.00    -0.185 NA
ENDROOT
BRANCH   1   5
HETATM    5  C2  UNL     1      30.441  28.648   9.603  1.00  0.00     0.041 C
HETATM    6  C1  UNL     1      31.062  28.162   8.546  1.00  0.00     0.019 C
ENDBRANCH   1   5
TORSDOF 1
ENDMDL