MODEL 1
REMARK VINA RESULT: -5.522202102      0.000      0.000
REMARK  2 active torsions:
REMARK  status: ('A' for Active; 'I' for Inactive)
REMARK    1  A    between atoms: C1_2  and  N1_3
REMARK    2  A    between atoms: N1_3  and  C2_5
ROOT
HETATM    1  C2  UNL     1      29.494  29.787   8.764  1.00  0.00     0.090 A
HETATM    2  C3  UNL     1      28.132  28.933   7.884  1.00  0.00     0.052 A
HETATM    3  C4  UNL     1      29.038  28.109   7.635  1.00  0.00    -0.029 A
HETATM    4  C5  UNL     1      29.786  27.995   7.774  1.00  0.00    -0.029 A
HETATM    5  C6  UNL     1      30.748  28.530   8.367  1.00  0.00     0.052 A
ENDROOT
BRANCH   1   6
HETATM    6  N1  UNL     1      29.774  30.723   7.858  1.00  0.00    -0.363 N
ATOM      7  H1  UNL     1      29.923  30.403   6.900  1.00  0.00     0.162 HD
BRANCH   6   8
HETATM    8  C1  UNL     1      29.890  32.146   8.091  1.00  0.00     0.348 C
HETATM    9  O1  UNL     1      30.894  32.735   7.684  1.00  0.00    -0.284 OA
ENDBRANCH   6   8
ENDBRANCH   1   6
TORSDOF 2
ENDMDL