MODEL 4
REMARK VINA RESULT: -4.882744528      2.667      3.717
REMARK  2 active torsions:
REMARK  status: ('A' for Active; 'I' for Inactive)
REMARK    1  A    between atoms: C1_2  and  C2_3
REMARK    2  A    between atoms: C3_4  and  C4_5
ROOT
HETATM    1  C4  UNL     1      29.007  29.609   7.759  1.00  0.00     0.031 C
HETATM    2  C5  UNL     1      29.001  30.946   7.778  1.00  0.00     0.047 A
HETATM    3  C6  UNL     1      28.650  32.189   8.442  1.00  0.00     0.117 A
HETATM    4  N1  UNL     1      29.273  32.238   7.275  1.00  0.00    -0.363 N
ATOM      5  H1  UNL     1      29.672  32.811   6.531  1.00  0.00     0.165 HD
ENDROOT
BRANCH   1   6
HETATM    6  C3  UNL     1      28.421  28.865   8.854  1.00  0.00     0.005 C
HETATM    7  C2  UNL     1      29.149  28.435   9.839  1.00  0.00     0.041 C
BRANCH   7   8
HETATM    8  C1  UNL     1      30.567  28.677   9.886  1.00  0.00     0.258 C
HETATM    9  O1  UNL     1      31.403  27.748   9.639  1.00  0.00    -0.302 OA
ENDBRANCH   7   8
ENDBRANCH   1   6
TORSDOF 2
ENDMDL