MODEL 3
REMARK VINA RESULT: -4.932806600      1.151      1.151
REMARK  1 active torsions:
REMARK  status: ('A' for Active; 'I' for Inactive)
REMARK    1  A    between atoms: C1_4  and  C2_5
ROOT
HETATM    1  C2  UNL     1      28.684  30.033   9.286  1.00  0.00     0.122 C
HETATM    2  C3  UNL     1      29.234  29.822   7.889  1.00  0.00     0.040 C
HETATM    3  C4  UNL     1      29.832  28.434   8.030  1.00  0.00     0.105 C
HETATM    4  C5  UNL     1      30.439  28.516   9.389  1.00  0.00     0.218 C
HETATM    5  O1  UNL     1      31.405  27.842   9.829  1.00  0.00    -0.274 OA
HETATM    6  N2  UNL     1      29.731  29.505  10.123  1.00  0.00    -0.352 N
ATOM      7  H2  UNL     1      29.931  29.793  11.081  1.00  0.00     0.163 HD
ENDROOT
BRANCH   1   8
HETATM    8  C1  UNL     1      28.365  31.438   9.573  1.00  0.00     0.078 C
HETATM    9  N1  UNL     1      27.191  31.933   9.611  1.00  0.00    -0.409 N
ATOM     10  H12 UNL     1      26.423  31.288   9.425  1.00  0.00     0.155 HD
ATOM     11  H11 UNL     1      26.969  32.908   9.810  1.00  0.00     0.155 HD
ENDBRANCH   1   8
TORSDOF 1
ENDMDL