MODEL 1
REMARK VINA RESULT: -4.859851953      0.000      0.000
REMARK  1 active torsions:
REMARK  status: ('A' for Active; 'I' for Inactive)
REMARK    1  A    between atoms: C1_2  and  C2_3
ROOT
HETATM    1  C2  UNL     1      29.903  29.159   8.327  1.00  0.00     0.157 C
HETATM    2  C3  UNL     1      29.023  29.769   9.428  1.00  0.00     0.143 C
HETATM    3  N1  UNL     1      30.240  29.812  10.188  1.00  0.00    -0.359 N
ATOM      4  H1  UNL     1      30.630  30.418  10.909  1.00  0.00     0.162 HD
HETATM    5  C4  UNL     1      30.661  28.657   9.506  1.00  0.00     0.230 C
HETATM    6  O2  UNL     1      31.371  27.706   9.874  1.00  0.00    -0.273 OA
ENDROOT
BRANCH   1   7
HETATM    7  C1  UNL     1      29.174  28.158   7.552  1.00  0.00     0.246 C
HETATM    8  O1  UNL     1      28.059  27.821   7.887  1.00  0.00    -0.306 OA
ENDBRANCH   1   7
TORSDOF 1
ENDMDL