MODEL 1
REMARK VINA RESULT: -5.242275740      0.000      0.000
REMARK  2 active torsions:
REMARK  status: ('A' for Active; 'I' for Inactive)
REMARK    1  A    between atoms: C1_2  and  C2_4
REMARK    2  A    between atoms: C4_6  and  C5_7
ROOT
HETATM    1  C2  UNL     1      29.139  30.184   7.896  1.00  0.00     0.086 A
HETATM    2  C3  UNL     1      28.438  29.197   8.742  1.00  0.00     0.026 A
HETATM    3  C4  UNL     1      29.671  28.817   7.888  1.00  0.00     0.060 A
ENDROOT
BRANCH   1   4
HETATM    4  C1  UNL     1      29.809  31.340   8.505  1.00  0.00     0.236 C
HETATM    5  N1  UNL     1      29.752  31.682   9.889  1.00  0.00    -0.062 NA
HETATM    6  O1  UNL     1      30.521  32.158   7.821  1.00  0.00    -0.276 OA
ENDBRANCH   1   4
BRANCH   3   7
HETATM    7  C5  UNL     1      30.784  28.335   8.699  1.00  0.00     0.236 C
HETATM    8  O2  UNL     1      31.601  27.577   8.202  1.00  0.00    -0.306 OA
ENDBRANCH   3   7
TORSDOF 2
ENDMDL