MODEL 1
REMARK VINA RESULT: -5.328343262      0.000      0.000
REMARK  1 active torsions:
REMARK  status: ('A' for Active; 'I' for Inactive)
REMARK    1  A    between atoms: N1_2  and  C2_4
ROOT
HETATM    1  C2  UNL     1      28.757  29.936   9.342  1.00  0.00     0.183 C
HETATM    2  C3  UNL     1      29.850  30.286   8.347  1.00  0.00     0.056 C
HETATM    3  C4  UNL     1      30.412  28.882   8.119  1.00  0.00     0.106 C
HETATM    4  C5  UNL     1      30.574  28.447   9.531  1.00  0.00     0.219 C
HETATM    5  O1  UNL     1      31.480  27.681   9.936  1.00  0.00    -0.274 OA
HETATM    6  N2  UNL     1      29.521  29.071  10.252  1.00  0.00    -0.340 N
ATOM      7  H2  UNL     1      29.326  28.940  11.244  1.00  0.00     0.164 HD
ENDROOT
BRANCH   1   8
HETATM    8  N1  UNL     1      28.209  31.059   9.990  1.00  0.00    -0.387 N
HETATM    9  C1  UNL     1      27.367  31.841   9.433  1.00  0.00     0.114 C
ATOM     10  H1  UNL     1      28.497  31.257  10.948  1.00  0.00     0.160 HD
ENDBRANCH   1   8
TORSDOF 1
ENDMDL