MODEL 3
REMARK VINA RESULT: -4.945706693      1.493      2.163
REMARK  1 active torsions:
REMARK  status: ('A' for Active; 'I' for Inactive)
REMARK    1  A    between atoms: C1_2  and  C2_3
ROOT
HETATM    1  C2  UNL     1      29.356  29.091   9.802  1.00  0.00     0.074 C
HETATM    2  C3  UNL     1      28.563  28.331   8.764  1.00  0.00     0.041 C
HETATM    3  C4  UNL     1      29.605  28.224   7.650  1.00  0.00     0.233 C
HETATM    4  N1  UNL     1      30.767  27.787   8.400  1.00  0.00    -0.074 N
ATOM      5  H11 UNL     1      31.644  27.965   7.910  1.00  0.00     0.277 HD
ATOM      6  H12 UNL     1      30.844  26.771   8.451  1.00  0.00     0.277 HD
HETATM    7  C5  UNL     1      30.719  28.403   9.686  1.00  0.00     0.243 C
ENDROOT
BRANCH   1   8
HETATM    8  C1  UNL     1      29.526  30.518   9.429  1.00  0.00     0.237 C
HETATM    9  O1  UNL     1      30.060  31.252  10.234  1.00  0.00    -0.306 OA
ENDBRANCH   1   8
TORSDOF 1
ENDMDL