MODEL 4
REMARK VINA RESULT: -4.902417013      1.454      1.675
REMARK  2 active torsions:
REMARK  status: ('A' for Active; 'I' for Inactive)
REMARK    1  A    between atoms: C1_4  and  C2_5
REMARK       I    between atoms: C2_5  and  N2_7
REMARK    2  A    between atoms: N2_7  and  C3_9
ROOT
HETATM    1  C2  UNL     1      29.699  31.654   8.699  1.00  0.00     0.256 C
HETATM    2  O1  UNL     1      29.820  31.489   9.933  1.00  0.00    -0.267 OA
HETATM    3  N2  UNL     1      29.237  30.592   7.902  1.00  0.00    -0.352 N
ATOM      4  H2  UNL     1      29.147  30.749   6.898  1.00  0.00     0.163 HD
ENDROOT
BRANCH   1   5
HETATM    5  C1  UNL     1      30.031  32.924   8.085  1.00  0.00     0.155 C
HETATM    6  N1  UNL     1      31.123  33.123   7.429  1.00  0.00    -0.404 N
ATOM      7  H12 UNL     1      31.772  32.340   7.349  1.00  0.00     0.155 HD
ATOM      8  H11 UNL     1      31.356  34.017   6.997  1.00  0.00     0.155 HD
ENDBRANCH   1   5
BRANCH   3   9
HETATM    9  C3  UNL     1      28.880  29.287   8.422  1.00  0.00     0.084 A
HETATM   10  C4  UNL     1      28.111  28.317   7.640  1.00  0.00     0.027 A
HETATM   11  C5  UNL     1      29.625  28.151   7.748  1.00  0.00     0.027 A
ENDBRANCH   3   9
TORSDOF 2
ENDMDL