MODEL 3
REMARK VINA RESULT: -5.443199500      1.578      2.080
REMARK  1 active torsions:
REMARK  status: ('A' for Active; 'I' for Inactive)
REMARK    1  A    between atoms: C6_9  and  C7_10
ROOT
HETATM    1  C1  UNL     1      32.615  10.662  10.071  1.00  0.00     0.177 C
HETATM    2  N1  UNL     1      32.374  12.072   9.786  1.00  0.00    -0.306 N
HETATM    3  C2  UNL     1      33.241  12.987   9.348  1.00  0.00     0.124 A
HETATM    4  C3  UNL     1      32.603  14.204   9.208  1.00  0.00     0.021 A
HETATM    5  C4  UNL     1      31.295  13.977   9.589  1.00  0.00     0.061 A
HETATM    6  N2  UNL     1      31.210  12.682   9.927  1.00  0.00    -0.298 N
ATOM      7  H2  UNL     1      30.356  12.227  10.251  1.00  0.00     0.187 HD
HETATM    8  C5  UNL     1      31.029  15.261   9.341  1.00  0.00     0.045 A
HETATM    9  C6  UNL     1      32.409  15.502   8.939  1.00  0.00    -0.005 A
ENDROOT
BRANCH   9  10
HETATM   10  C7  UNL     1      33.221  16.609   8.467  1.00  0.00     0.092 C
HETATM   11  N3  UNL     1      33.318  17.729   9.083  1.00  0.00    -0.407 N
ATOM     12  H32 UNL     1      32.790  17.831   9.949  1.00  0.00     0.155 HD
ATOM     13  H31 UNL     1      33.889  18.507   8.751  1.00  0.00     0.155 HD
ENDBRANCH   9  10
TORSDOF 1
ENDMDL