MODEL 2
REMARK VINA RESULT: -5.551753654      0.923      4.232
REMARK  2 active torsions:
REMARK  status: ('A' for Active; 'I' for Inactive)
REMARK    1  A    between atoms: C2_7  and  C3_8
REMARK    2  A    between atoms: C3_8  and  N4_9
ROOT
HETATM    1  C1  UNL     1      32.442  10.914   8.903  1.00  0.00     0.181 C
HETATM    2  N1  UNL     1      31.734  12.200   8.921  1.00  0.00    -0.267 N
HETATM    3  N2  UNL     1      30.504  12.567   8.599  1.00  0.00    -0.238 N
ATOM      4  H2  UNL     1      29.668  12.103   8.245  1.00  0.00     0.208 HD
HETATM    5  N3  UNL     1      30.835  13.798   8.939  1.00  0.00    -0.272 N
ATOM      6  H3  UNL     1      30.328  14.683   8.946  1.00  0.00     0.190 HD
HETATM    7  C2  UNL     1      32.076  13.457   9.271  1.00  0.00     0.135 A
ENDROOT
BRANCH   7   8
HETATM    8  C3  UNL     1      33.322  14.095   9.790  1.00  0.00     0.230 C
BRANCH   8   9
HETATM    9  N4  UNL     1      33.159  15.523   9.760  1.00  0.00    -0.265 N
HETATM   10  C4  UNL     1      33.488  16.462   8.861  1.00  0.00     0.220 A
HETATM   11  N5  UNL     1      32.969  17.387   9.674  1.00  0.00    -0.280 N
HETATM   12  N6  UNL     1      32.650  16.444  10.551  1.00  0.00    -0.238 N
ATOM     13  H5  UNL     1      32.862  18.400   9.635  1.00  0.00     0.189 HD
ATOM     14  H6  UNL     1      32.197  16.437  11.465  1.00  0.00     0.208 HD
ENDBRANCH   8   9
ENDBRANCH   7   8
TORSDOF 2
ENDMDL