MODEL 5
REMARK VINA RESULT: -6.267132310      2.073      2.309
REMARK  2 active torsions:
REMARK  status: ('A' for Active; 'I' for Inactive)
REMARK    1  A    between atoms: C1_4  and  O1_5
REMARK    2  A    between atoms: C1_4  and  C2_7
ROOT
HETATM    1  C2  UNL     1      32.014  13.794   9.327  1.00  0.00     0.027 A
HETATM    2  C3  UNL     1      31.759  15.051   9.686  1.00  0.00     0.006 A
HETATM    3  C4  UNL     1      30.792  15.899  10.206  1.00  0.00     0.031 A
HETATM    4  C5  UNL     1      31.302  17.180  10.305  1.00  0.00     0.089 A
HETATM    5  N2  UNL     1      32.567  17.115   9.849  1.00  0.00    -0.365 N
ATOM      6  H2  UNL     1      33.210  17.905   9.794  1.00  0.00     0.165 HD
HETATM    7  C6  UNL     1      32.858  15.855   9.476  1.00  0.00     0.043 A
HETATM    8  C7  UNL     1      33.780  15.049   8.980  1.00  0.00     0.031 A
HETATM    9  C8  UNL     1      33.390  13.803   8.847  1.00  0.00     0.019 A
ENDROOT
BRANCH   1  10
HETATM   10  C1  UNL     1      31.090  12.665   9.405  1.00  0.00     0.144 C
HETATM   11  N1  UNL     1      31.121  11.832  10.374  1.00  0.00    -0.379 N
ATOM     12  H12 UNL     1      30.476  11.044  10.429  1.00  0.00     0.158 HD
ATOM     13  H11 UNL     1      31.810  11.960  11.115  1.00  0.00     0.158 HD
BRANCH  10  14
HETATM   14  O1  UNL     1      30.155  12.492   8.402  1.00  0.00    -0.346 OA
ATOM     15  H1  UNL     1      30.362  11.919   7.673  1.00  0.00     0.219 HD
ENDBRANCH  10  14
ENDBRANCH   1  10
TORSDOF 2
ENDMDL