MODEL 2
REMARK VINA RESULT: -4.553631764      1.393      3.046
REMARK  2 active torsions:
REMARK  status: ('A' for Active; 'I' for Inactive)
REMARK    1  A    between atoms: N1_1  and  S1_4
REMARK    2  A    between atoms: S1_4  and  N2_6
ROOT
HETATM    1  N2  UNL     1      32.162  16.701   9.178  1.00  0.00    -0.164 N
HETATM    2  C1  UNL     1      33.417  16.187   9.177  1.00  0.00     0.231 A
HETATM    3  N3  UNL     1      33.760  16.969   8.142  1.00  0.00    -0.277 N
ATOM      4  H3  UNL     1      34.600  17.121   7.585  1.00  0.00     0.185 HD
HETATM    5  N4  UNL     1      32.523  17.461   8.159  1.00  0.00    -0.004 NA
ENDROOT
BRANCH   1   6
HETATM    6  S1  UNL     1      30.908  16.431  10.059  1.00  0.00     0.235 S
HETATM    7  O1  UNL     1      30.006  17.415  10.319  1.00  0.00    -0.210 OA
BRANCH   6   8
HETATM    8  N1  UNL     1      30.896  15.166  10.937  1.00  0.00    -0.331 N
ATOM      9  H12 UNL     1      30.177  14.465  10.759  1.00  0.00     0.168 HD
ATOM     10  H11 UNL     1      31.726  14.944  11.488  1.00  0.00     0.168 HD
ENDBRANCH   6   8
ENDBRANCH   1   6
TORSDOF 2
ENDMDL