MODEL 2
REMARK VINA RESULT: -5.283878932      1.133      1.133
REMARK  1 active torsions:
REMARK  status: ('A' for Active; 'I' for Inactive)
REMARK       I    between atoms: N3_4  and  C2_6
REMARK    1  A    between atoms: N5_8  and  C3_10
ROOT
HETATM    1  N1  UNL     1      33.252  11.443   9.394  1.00  0.00    -0.066 NA
HETATM    2  C1  UNL     1      32.609  12.203   8.373  1.00  0.00     0.203 C
HETATM    3  N2  UNL     1      32.610  11.733   7.035  1.00  0.00    -0.066 NA
HETATM    4  N3  UNL     1      32.026  13.309   8.623  1.00  0.00    -0.307 N
ATOM      5  H3  UNL     1      31.587  13.800   7.844  1.00  0.00     0.170 HD
HETATM    6  C2  UNL     1      31.944  13.906   9.910  1.00  0.00     0.194 C
HETATM    7  N4  UNL     1      31.092  13.372  10.908  1.00  0.00    -0.063 NA
HETATM    8  N5  UNL     1      32.663  14.957  10.172  1.00  0.00    -0.331 N
ATOM      9  H5  UNL     1      32.610  15.392  11.093  1.00  0.00     0.168 HD
ENDROOT
BRANCH   8  10
HETATM   10  C3  UNL     1      33.520  15.502   9.182  1.00  0.00     0.172 C
HETATM   11  S1  UNL     1      33.290  16.945   8.499  1.00  0.00    -0.074 SA
ENDBRANCH   8  10
TORSDOF 1
ENDMDL