MODEL 5
REMARK VINA RESULT: -5.528013970      1.542      2.149
REMARK  2 active torsions:
REMARK  status: ('A' for Active; 'I' for Inactive)
REMARK    1  A    between atoms: N3_4  and  N4_6
REMARK    2  A    between atoms: C2_8  and  N5_9
ROOT
HETATM    1  N4  UNL     1      32.810  14.030  10.014  1.00  0.00    -0.292 N
ATOM      2  H4  UNL     1      32.085  14.036  10.732  1.00  0.00     0.187 HD
HETATM    3  C2  UNL     1      32.848  15.018   9.189  1.00  0.00     0.222 C
ENDROOT
BRANCH   1   4
HETATM    4  N3  UNL     1      33.688  12.957   9.989  1.00  0.00    -0.275 N
HETATM    5  C1  UNL     1      33.196  11.769   9.891  1.00  0.00     0.215 C
HETATM    6  N1  UNL     1      31.782  11.550   9.807  1.00  0.00    -0.065 NA
HETATM    7  N2  UNL     1      34.058  10.638   9.862  1.00  0.00    -0.065 NA
ATOM      8  H3  UNL     1      34.696  13.103  10.048  1.00  0.00     0.189 HD
ENDBRANCH   1   4
BRANCH   3   9
HETATM    9  N5  UNL     1      31.884  16.049   9.334  1.00  0.00    -0.262 N
HETATM   10  C3  UNL     1      30.936  16.110  10.308  1.00  0.00     0.118 A
HETATM   11  C4  UNL     1      30.207  17.256  10.097  1.00  0.00     0.038 A
HETATM   12  C5  UNL     1      30.752  17.861   8.976  1.00  0.00     0.109 A
HETATM   13  N6  UNL     1      31.761  17.099   8.547  1.00  0.00    -0.305 N
ATOM     14  H6  UNL     1      32.346  17.300   7.736  1.00  0.00     0.186 HD
ENDBRANCH   3   9
TORSDOF 2
ENDMDL