MODEL 3
REMARK VINA RESULT: -5.768823628      1.455      1.735
REMARK  0 active torsions:
REMARK  status: ('A' for Active; 'I' for Inactive)
ROOT
HETATM    1  C1  UNL     1      33.038  17.254   9.532  1.00  0.00     0.038 A
HETATM    2  C2  UNL     1      32.429  16.230  10.147  1.00  0.00     0.121 A
HETATM    3  N1  UNL     1      32.423  15.095   9.289  1.00  0.00    -0.236 N
HETATM    4  C3  UNL     1      31.930  13.919   9.522  1.00  0.00     0.221 A
HETATM    5  N2  UNL     1      31.917  12.777   8.676  1.00  0.00    -0.320 N
ATOM      6  H2  UNL     1      32.315  12.749   7.737  1.00  0.00     0.169 HD
HETATM    7  C4  UNL     1      31.336  11.784   9.253  1.00  0.00     0.200 A
HETATM    8  N3  UNL     1      30.903  12.174  10.549  1.00  0.00    -0.293 N
ATOM      9  H3  UNL     1      30.412  11.591  11.228  1.00  0.00     0.187 HD
HETATM   10  N4  UNL     1      31.277  13.510  10.713  1.00  0.00    -0.269 N
ATOM     11  H4  UNL     1      31.111  14.086  11.538  1.00  0.00     0.190 HD
HETATM   12  N5  UNL     1      33.071  15.517   8.124  1.00  0.00    -0.303 N
ATOM     13  H5  UNL     1      33.231  14.930   7.305  1.00  0.00     0.186 HD
HETATM   14  C5  UNL     1      33.438  16.750   8.224  1.00  0.00     0.109 A
ENDROOT
TORSDOF 0
ENDMDL