MODEL 1
REMARK VINA RESULT: -5.729516234      0.000      0.000
REMARK  0 active torsions:
REMARK  status: ('A' for Active; 'I' for Inactive)
ROOT
HETATM    1  C1  UNL     1      30.767  16.642  10.272  1.00  0.00     0.066 C
HETATM    2  C2  UNL     1      31.093  15.397   9.993  1.00  0.00     0.129 A
HETATM    3  N1  UNL     1      31.406  14.700   8.869  1.00  0.00    -0.249 N
ATOM      4  H1  UNL     1      31.488  14.925   7.878  1.00  0.00     0.191 HD
HETATM    5  N2  UNL     1      31.561  13.610   9.599  1.00  0.00    -0.017 N
HETATM    6  C3  UNL     1      31.881  12.378   9.345  1.00  0.00     0.718 A
HETATM    7  N3  UNL     1      32.163  11.875   8.124  1.00  0.00    -0.197 N
ATOM      8  H3  UNL     1      32.157  12.406   7.253  1.00  0.00     0.183 HD
HETATM    9  C4  UNL     1      32.453  10.561   8.234  1.00  0.00     0.123 A
HETATM   10  C5  UNL     1      32.353  10.221   9.558  1.00  0.00     0.123 A
HETATM   11  N4  UNL     1      32.004  11.352  10.197  1.00  0.00    -0.197 N
ATOM     12  H4  UNL     1      31.852  11.419  11.203  1.00  0.00     0.183 HD
HETATM   13  N5  UNL     1      31.259  14.267  10.705  1.00  0.00    -0.249 N
ATOM     14  H5  UNL     1      31.183  14.019  11.692  1.00  0.00     0.191 HD
ENDROOT
TORSDOF 0
ENDMDL