MODEL 4
REMARK VINA RESULT: -5.412514682      3.349      3.899
REMARK  1 active torsions:
REMARK  status: ('A' for Active; 'I' for Inactive)
REMARK    1  A    between atoms: N2_4  and  N3_6
ROOT
HETATM    1  N3  UNL     1      33.593  15.141   9.556  1.00  0.00    -0.267 N
ATOM      2  H3  UNL     1      34.321  15.330   8.867  1.00  0.00     0.190 HD
HETATM    3  C1  UNL     1      32.541  15.886   9.580  1.00  0.00     0.191 A
HETATM    4  N4  UNL     1      31.437  15.759  10.471  1.00  0.00    -0.333 N
ATOM      5  H4  UNL     1      31.340  15.058  11.205  1.00  0.00     0.168 HD
HETATM    6  C2  UNL     1      30.494  16.778  10.160  1.00  0.00     0.185 A
HETATM    7  N5  UNL     1      30.926  17.490   9.181  1.00  0.00    -0.316 N
ATOM      8  H5  UNL     1      30.427  18.283   8.777  1.00  0.00     0.170 HD
HETATM    9  C3  UNL     1      32.195  17.024   8.740  1.00  0.00     0.291 A
HETATM   10  O1  UNL     1      32.928  17.456   7.818  1.00  0.00    -0.264 OA
ENDROOT
BRANCH   1  11
HETATM   11  N2  UNL     1      33.759  14.085  10.443  1.00  0.00    -0.248 N
HETATM   12  N1  UNL     1      34.740  13.288  10.438  1.00  0.00    -0.331 N
ATOM     13  H12 UNL     1      35.452  13.445   9.724  1.00  0.00     0.178 HD
ATOM     14  H11 UNL     1      34.862  12.513  11.089  1.00  0.00     0.178 HD
ATOM     15  H2  UNL     1      33.037  13.943  11.149  1.00  0.00     0.207 HD
ENDBRANCH   1  11
TORSDOF 1
ENDMDL