MODEL 2
REMARK VINA RESULT: -5.833546271      1.778      2.413
REMARK  2 active torsions:
REMARK  status: ('A' for Active; 'I' for Inactive)
REMARK    1  A    between atoms: C3_4  and  N2_5
REMARK    2  A    between atoms: C4_14  and  N6_15
ROOT
HETATM    1  C1  UNL     1      30.817  16.050   9.339  1.00  0.00     0.125 C
HETATM    2  C2  UNL     1      31.314  14.934   9.411  1.00  0.00    -0.032 C
HETATM    3  N1  UNL     1      31.873  13.658   9.482  1.00  0.00     0.060 N
HETATM    4  C3  UNL     1      31.309  12.506   9.090  1.00  0.00     0.739 A
HETATM    5  N4  UNL     1      32.193  11.535   9.340  1.00  0.00    -0.115 N
ATOM      6  H4  UNL     1      32.032  10.547   9.142  1.00  0.00     0.206 HD
HETATM    7  N5  UNL     1      33.284  12.008   9.867  1.00  0.00    -0.116 N
ATOM      8  H5  UNL     1      34.111  11.481  10.150  1.00  0.00     0.206 HD
HETATM    9  C4  UNL     1      33.090  13.356   9.961  1.00  0.00     0.719 A
ENDROOT
BRANCH   4  10
HETATM   10  N2  UNL     1      30.001  12.401   8.518  1.00  0.00    -0.136 N
HETATM   11  N3  UNL     1      29.410  11.274   8.583  1.00  0.00    -0.331 N
ATOM     12  H32 UNL     1      29.868  10.482   9.032  1.00  0.00     0.177 HD
ATOM     13  H31 UNL     1      28.477  11.200   8.175  1.00  0.00     0.177 HD
ATOM     14  H2  UNL     1      29.557  13.204   8.071  1.00  0.00     0.205 HD
ENDBRANCH   4  10
BRANCH   9  15
HETATM   15  N6  UNL     1      33.950  14.199  10.440  1.00  0.00    -0.232 N
ATOM     16  H62 UNL     1      34.111  14.371  11.433  1.00  0.00     0.174 HD
ATOM     17  H61 UNL     1      34.572  14.795   9.894  1.00  0.00     0.174 HD
ENDBRANCH   9  15
TORSDOF 2
ENDMDL