MODEL 2
REMARK VINA RESULT: -7.653402468      1.426      2.024
REMARK  5 active torsions:
REMARK  status: ('A' for Active; 'I' for Inactive)
REMARK    1  A    between atoms: C4_4  and  N1_5
REMARK       I    between atoms: N1_5  and  C5_7
REMARK    2  A    between atoms: C5_7  and  C6_9
REMARK    3  A    between atoms: C9_13  and  O3_14
REMARK    4  A    between atoms: N3_22  and  C14_23
REMARK    5  A    between atoms: C14_23  and  C15_24
ROOT
HETATM    1  C1  UNL     1      27.235  -3.958  -3.342  1.00  0.00     0.043 C
HETATM    2  C2  UNL     1      28.253  -3.371  -4.251  1.00  0.00     0.221 C
HETATM    3  C3  UNL     1      29.245  -4.328  -4.817  1.00  0.00     0.060 C
HETATM    4  C4  UNL     1      28.989  -4.747  -6.243  1.00  0.00     0.088 C
HETATM    5  C12 UNL     1      27.694  -4.398  -6.822  1.00  0.00     0.055 C
HETATM    6  C13 UNL     1      26.943  -3.267  -6.176  1.00  0.00     0.275 C
HETATM    7  N3  UNL     1      27.737  -2.455  -5.269  1.00  0.00     0.093 N
ENDROOT
BRANCH   4   8
HETATM    8  N1  UNL     1      29.296  -6.161  -6.280  1.00  0.00    -0.355 N
HETATM    9  C5  UNL     1      30.548  -6.775  -6.399  1.00  0.00     0.240 C
HETATM   10  O1  UNL     1      31.601  -6.078  -6.468  1.00  0.00    -0.271 OA
ATOM     11  H1  UNL     1      28.497  -6.791  -6.211  1.00  0.00     0.162 HD
BRANCH   9  12
HETATM   12  C6  UNL     1      30.759  -8.244  -6.463  1.00  0.00     0.176 C
HETATM   13  C7  UNL     1      31.456  -8.811  -5.258  1.00  0.00     0.115 C
HETATM   14  C8  UNL     1      31.447 -10.293  -5.244  1.00  0.00     0.157 C
HETATM   15  O2  UNL     1      31.729 -10.756  -4.133  1.00  0.00    -0.295 OA
HETATM   16  C9  UNL     1      31.156 -11.253  -6.332  1.00  0.00     0.189 C
HETATM   17  C10 UNL     1      32.120 -11.017  -7.492  1.00  0.00     0.058 C
HETATM   18  C11 UNL     1      32.473  -9.545  -7.583  1.00  0.00     0.117 C
HETATM   19  N2  UNL     1      31.353  -8.680  -7.665  1.00  0.00    -0.409 N
ATOM     20  H2  UNL     1      30.987  -8.382  -8.569  1.00  0.00     0.154 HD
BRANCH  16  21
HETATM   21  O3  UNL     1      31.260 -12.562  -5.859  1.00  0.00    -0.388 OA
ATOM     22  H3  UNL     1      30.506 -12.778  -5.322  1.00  0.00     0.210 HD
ENDBRANCH  16  21
ENDBRANCH   9  12
ENDBRANCH   4   8
BRANCH   7  23
HETATM   23  C14 UNL     1      26.778  -1.591  -4.588  1.00  0.00     0.277 C
BRANCH  23  24
HETATM   24  C15 UNL     1      26.596  -0.262  -5.329  1.00  0.00     0.014 C
HETATM   25  C16 UNL     1      25.386   0.402  -4.733  1.00  0.00     0.006 C
HETATM   26  C17 UNL     1      25.516   0.866  -3.330  1.00  0.00     0.000 C
HETATM   27  C18 UNL     1      26.306   2.135  -3.172  1.00  0.00     0.000 C
HETATM   28  C19 UNL     1      26.728   2.744  -4.462  1.00  0.00     0.000 C
HETATM   29  C20 UNL     1      27.745   2.000  -5.247  1.00  0.00     0.000 C
HETATM   30  C21 UNL     1      27.855   0.540  -4.996  1.00  0.00     0.006 C
ENDBRANCH  23  24
ENDBRANCH   7  23
TORSDOF 5
ENDMDL