MODEL 3
REMARK VINA RESULT: -7.687064066      3.298      7.339
REMARK  4 active torsions:
REMARK  status: ('A' for Active; 'I' for Inactive)
REMARK    1  A    between atoms: C2_2  and  N1_3
REMARK    2  A    between atoms: N4_15  and  C9_17
REMARK    3  A    between atoms: N5_22  and  C14_24
REMARK    4  A    between atoms: C19_31  and  C20_32
ROOT
HETATM    1  C1  UNL     1      29.213  -3.531  -6.450  1.00  0.00     0.073 C
HETATM    2  C2  UNL     1      28.170  -4.048  -5.686  1.00  0.00     0.107 C
HETATM    3  N3  UNL     1      28.216  -5.180  -4.919  1.00  0.00    -0.326 N
ATOM      4  H3  UNL     1      27.426  -5.350  -4.298  1.00  0.00     0.169 HD
HETATM    5  C8  UNL     1      29.228  -6.107  -4.907  1.00  0.00     0.147 C
HETATM    6  N4  UNL     1      29.404  -6.783  -3.831  1.00  0.00    -0.369 N
ATOM      7  H4  UNL     1      30.145  -7.481  -3.780  1.00  0.00     0.161 HD
HETATM    8  C13 UNL     1      30.104  -6.391  -5.930  1.00  0.00     0.146 C
HETATM    9  N5  UNL     1      30.360  -7.570  -6.191  1.00  0.00    -0.369 N
ATOM     10  H5  UNL     1      31.019  -7.670  -6.963  1.00  0.00     0.161 HD
HETATM   11  N6  UNL     1      30.720  -5.431  -6.724  1.00  0.00    -0.343 N
ATOM     12  H6  UNL     1      31.584  -5.725  -7.180  1.00  0.00     0.167 HD
HETATM   13  C19 UNL     1      30.340  -4.180  -6.971  1.00  0.00     0.018 C
ENDROOT
BRANCH   2  14
HETATM   14  N1  UNL     1      26.938  -3.346  -5.696  1.00  0.00    -0.359 N
HETATM   15  C3  UNL     1      26.314  -2.811  -4.497  1.00  0.00     0.158 C
HETATM   16  C4  UNL     1      25.037  -2.207  -5.030  1.00  0.00     0.205 C
HETATM   17  C5  UNL     1      25.562  -1.661  -6.372  1.00  0.00     0.061 C
HETATM   18  N2  UNL     1      24.198  -3.280  -5.496  1.00  0.00    -0.067 N
HETATM   19  C6  UNL     1      26.102  -3.032  -6.826  1.00  0.00     0.113 C
HETATM   20  C7  UNL     1      24.837  -3.829  -6.696  1.00  0.00     0.257 C
ATOM     21  H22 UNL     1      24.013  -3.985  -4.782  1.00  0.00     0.277 HD
ATOM     22  H21 UNL     1      23.230  -2.996  -5.651  1.00  0.00     0.277 HD
ENDBRANCH   2  14
BRANCH  13  23
HETATM   23  C20 UNL     1      31.133  -3.334  -7.874  1.00  0.00     0.036 A
HETATM   24  C21 UNL     1      32.121  -3.917  -8.812  1.00  0.00     0.011 A
HETATM   25  C22 UNL     1      32.641  -3.335  -7.515  1.00  0.00     0.011 A
ENDBRANCH  13  23
BRANCH   6  26
HETATM   26  C9  UNL     1      28.558  -6.551  -2.709  1.00  0.00     0.083 C
HETATM   27  C10 UNL     1      27.678  -7.698  -2.256  1.00  0.00     0.025 C
HETATM   28  C11 UNL     1      27.955  -7.229  -0.821  1.00  0.00     0.004 C
HETATM   29  C12 UNL     1      29.265  -6.658  -1.352  1.00  0.00     0.025 C
ENDBRANCH   6  26
BRANCH   9  30
HETATM   30  C14 UNL     1      29.953  -8.787  -5.669  1.00  0.00     0.083 C
HETATM   31  C15 UNL     1      31.052  -9.821  -5.531  1.00  0.00     0.025 C
HETATM   32  C16 UNL     1      30.481 -11.158  -5.969  1.00  0.00     0.002 C
HETATM   33  C17 UNL     1      28.970 -10.896  -6.023  1.00  0.00     0.002 C
HETATM   34  C18 UNL     1      28.985  -9.520  -6.652  1.00  0.00     0.025 C
ENDBRANCH   9  30
TORSDOF 4
ENDMDL