MODEL 3
REMARK VINA RESULT: -8.104400620      3.599      6.124
REMARK  6 active torsions:
REMARK  status: ('A' for Active; 'I' for Inactive)
REMARK    1  A    between atoms: C2_2  and  N1_3
REMARK    2  A    between atoms: C7_11  and  N3_12
REMARK    3  A    between atoms: N3_12  and  C8_14
REMARK    4  A    between atoms: C13_21  and  N5_22
REMARK    5  A    between atoms: N5_22  and  C14_24
REMARK    6  A    between atoms: C16_26  and  C17_27
ROOT
HETATM    1  C1  UNL     1      31.549  -7.253  -6.869  1.00  0.00     0.098 A
HETATM    2  C2  UNL     1      31.490  -8.426  -7.570  1.00  0.00     0.122 A
HETATM    3  N2  UNL     1      31.687  -8.355  -8.901  1.00  0.00    -0.177 N
ATOM      4  H2  UNL     1      31.648  -9.212  -9.452  1.00  0.00     0.185 HD
HETATM    5  C7  UNL     1      31.936  -7.172  -9.534  1.00  0.00     0.681 A
HETATM    6  N4  UNL     1      31.985  -6.041  -8.804  1.00  0.00    -0.177 N
ATOM      7  H4  UNL     1      32.171  -5.159  -9.282  1.00  0.00     0.186 HD
HETATM    8  C13 UNL     1      31.800  -6.026  -7.472  1.00  0.00     0.126 A
ENDROOT
BRANCH   8   9
HETATM    9  N5  UNL     1      31.836  -4.892  -6.660  1.00  0.00    -0.327 N
ATOM     10  H5  UNL     1      32.702  -4.731  -6.145  1.00  0.00     0.169 HD
BRANCH   9  11
HETATM   11  C14 UNL     1      30.914  -4.039  -6.491  1.00  0.00     0.123 A
HETATM   12  C15 UNL     1      29.565  -4.316  -6.467  1.00  0.00     0.076 A
HETATM   13  C16 UNL     1      28.854  -3.130  -6.257  1.00  0.00     0.033 A
HETATM   14  N6  UNL     1      29.800  -2.180  -6.161  1.00  0.00    -0.303 N
HETATM   15  N7  UNL     1      31.018  -2.714  -6.299  1.00  0.00    -0.285 N
ATOM     16  H6  UNL     1      29.615  -1.189  -6.005  1.00  0.00     0.186 HD
ATOM     17  H7  UNL     1      31.894  -2.193  -6.264  1.00  0.00     0.188 HD
BRANCH  13  18
HETATM   18  C17 UNL     1      27.382  -2.946  -6.159  1.00  0.00     0.037 A
HETATM   19  C18 UNL     1      26.499  -3.805  -6.982  1.00  0.00     0.011 A
HETATM   20  C19 UNL     1      26.574  -4.030  -5.493  1.00  0.00     0.011 A
ENDBRANCH  13  18
ENDBRANCH   9  11
ENDBRANCH   8   9
BRANCH   2  21
HETATM   21  N1  UNL     1      31.235  -9.687  -6.969  1.00  0.00    -0.363 N
HETATM   22  C3  UNL     1      30.135  -9.850  -6.046  1.00  0.00     0.150 C
HETATM   23  C4  UNL     1      29.446 -11.179  -6.167  1.00  0.00     0.187 C
HETATM   24  O1  UNL     1      30.152 -12.100  -6.928  1.00  0.00    -0.388 OA
HETATM   25  C5  UNL     1      31.496 -12.017  -6.542  1.00  0.00     0.187 C
HETATM   26  C6  UNL     1      32.068 -10.804  -7.275  1.00  0.00     0.150 C
ENDBRANCH   2  21
BRANCH   5  27
HETATM   27  N3  UNL     1      32.104  -7.237 -10.792  1.00  0.00    -0.221 N
ATOM     28  H3  UNL     1      33.064  -7.206 -11.134  1.00  0.00     0.178 HD
BRANCH  27  29
HETATM   29  C8  UNL     1      31.059  -7.350 -11.777  1.00  0.00     0.099 C
HETATM   30  C9  UNL     1      30.569  -8.778 -11.785  1.00  0.00     0.026 C
HETATM   31  C10 UNL     1      31.291  -9.456 -12.904  1.00  0.00     0.002 C
HETATM   32  C11 UNL     1      31.384  -8.365 -13.950  1.00  0.00     0.002 C
HETATM   33  C12 UNL     1      31.527  -7.080 -13.169  1.00  0.00     0.026 C
ENDBRANCH  27  29
ENDBRANCH   5  27
TORSDOF 6
ENDMDL