MODEL 1
REMARK VINA RESULT: -8.526455841      0.000      0.000
REMARK  7 active torsions:
REMARK  status: ('A' for Active; 'I' for Inactive)
REMARK    1  A    between atoms: N1_2  and  C3_4
REMARK    2  A    between atoms: C3_4  and  C4_5
REMARK    3  A    between atoms: C6_7  and  O1_8
REMARK    4  A    between atoms: C7_10  and  O2_11
REMARK    5  A    between atoms: C8_13  and  N2_14
REMARK       I    between atoms: N2_14  and  C9_16
REMARK    6  A    between atoms: C9_16  and  O4_18
REMARK    7  A    between atoms: O4_18  and  C10_19
ROOT
HETATM    1  N2  UNL     1      32.376  -9.260  -5.775  1.00  0.00    -0.329 N
ATOM      2  H2  UNL     1      32.056  -8.292  -5.794  1.00  0.00     0.165 HD
HETATM    3  C9  UNL     1      32.181 -10.015  -6.940  1.00  0.00     0.361 C
HETATM    4  O3  UNL     1      32.573 -11.206  -6.938  1.00  0.00    -0.238 OA
ENDROOT
BRANCH   1   5
HETATM    5  C8  UNL     1      32.979  -9.716  -4.568  1.00  0.00     0.122 C
HETATM    6  C7  UNL     1      34.411  -9.240  -4.540  1.00  0.00     0.173 C
HETATM    7  C6  UNL     1      34.705  -8.388  -3.328  1.00  0.00     0.172 C
HETATM    8  C5  UNL     1      34.167  -9.044  -2.093  1.00  0.00     0.011 C
HETATM    9  C4  UNL     1      32.895  -9.399  -2.115  1.00  0.00    -0.062 C
HETATM   10  C21 UNL     1      32.191  -9.073  -3.421  1.00  0.00     0.063 C
BRANCH   6  11
HETATM   11  O2  UNL     1      35.290 -10.337  -4.476  1.00  0.00    -0.391 OA
ATOM     12  H2  UNL     1      35.909 -10.226  -5.190  1.00  0.00     0.210 HD
ENDBRANCH   6  11
BRANCH   7  13
HETATM   13  O1  UNL     1      36.077  -8.229  -3.136  1.00  0.00    -0.389 OA
ATOM     14  H1  UNL     1      36.463  -8.107  -3.995  1.00  0.00     0.210 HD
ENDBRANCH   7  13
BRANCH   9  15
HETATM   15  C3  UNL     1      32.151 -10.053  -1.022  1.00  0.00     0.150 C
BRANCH  15  16
HETATM   16  N1  UNL     1      31.251  -9.162  -0.390  1.00  0.00    -0.417 N
HETATM   17  C1  UNL     1      29.892  -9.587  -0.288  1.00  0.00     0.142 C
HETATM   18  C2  UNL     1      31.761  -8.561   0.816  1.00  0.00     0.142 C
ENDBRANCH  15  16
ENDBRANCH   9  15
ENDBRANCH   1   5
BRANCH   3  19
HETATM   19  O4  UNL     1      31.589  -9.549  -8.092  1.00  0.00    -0.298 OA
BRANCH  19  20
HETATM   20  C10 UNL     1      32.314  -8.992  -9.202  1.00  0.00     0.138 C
HETATM   21  C11 UNL     1      32.545 -10.016 -10.268  1.00  0.00     0.033 C
HETATM   22  C12 UNL     1      31.651 -10.034 -11.425  1.00  0.00     0.007 C
HETATM   23  C13 UNL     1      30.968  -8.768 -11.798  1.00  0.00    -0.010 C
HETATM   24  C14 UNL     1      31.281  -8.316 -13.235  1.00  0.00     0.005 C
HETATM   25  C20 UNL     1      31.306  -7.587 -11.018  1.00  0.00     0.000 C
HETATM   26  C15 UNL     1      32.057  -6.996 -13.088  1.00  0.00     0.005 C
HETATM   27  C16 UNL     1      32.594  -7.130 -11.728  1.00  0.00    -0.010 C
HETATM   28  C17 UNL     1      32.852  -5.915 -10.921  1.00  0.00     0.005 C
HETATM   29  C18 UNL     1      32.720  -6.516  -9.507  1.00  0.00     0.008 C
HETATM   30  C19 UNL     1      31.770  -7.692  -9.648  1.00  0.00     0.020 C
ENDBRANCH  19  20
ENDBRANCH   3  19
TORSDOF 7
ENDMDL