MODEL 1
REMARK VINA RESULT: -7.557315049      0.000      0.000
REMARK  4 active torsions:
REMARK  status: ('A' for Active; 'I' for Inactive)
REMARK    1  A    between atoms: C10_16  and  N4_17
REMARK    2  A    between atoms: N4_17  and  C11_19
REMARK    3  A    between atoms: C11_19  and  C12_20
REMARK    4  A    between atoms: C12_20  and  N5_21
ROOT
HETATM    1  C1  UNL     1      28.771  -1.443  -4.454  1.00  0.00     0.070 C
HETATM    2  C2  UNL     1      27.660  -1.766  -5.369  1.00  0.00     0.035 A
HETATM    3  N1  UNL     1      26.580  -1.096  -5.703  1.00  0.00    -0.304 N
ATOM      4  H1  UNL     1      26.393  -0.142  -5.392  1.00  0.00     0.186 HD
HETATM    5  N2  UNL     1      25.757  -1.782  -6.483  1.00  0.00    -0.304 N
ATOM      6  H2  UNL     1      24.864  -1.467  -6.864  1.00  0.00     0.186 HD
HETATM    7  C3  UNL     1      26.341  -2.976  -6.670  1.00  0.00     0.035 A
HETATM    8  C4  UNL     1      25.776  -4.085  -7.518  1.00  0.00     0.070 C
HETATM    9  C5  UNL     1      27.563  -3.040  -5.991  1.00  0.00     0.021 A
HETATM   10  C6  UNL     1      28.573  -4.055  -6.046  1.00  0.00     0.008 C
HETATM   11  C7  UNL     1      28.716  -5.033  -4.923  1.00  0.00     0.050 C
HETATM   12  C8  UNL     1      30.156  -5.027  -4.402  1.00  0.00     0.063 C
HETATM   13  C9  UNL     1      31.088  -5.537  -5.494  1.00  0.00     0.033 A
HETATM   14  N3  UNL     1      31.953  -6.492  -5.421  1.00  0.00    -0.339 N
ATOM     15  H3  UNL     1      32.145  -6.964  -4.536  1.00  0.00     0.168 HD
HETATM   16  C10 UNL     1      32.607  -6.852  -6.574  1.00  0.00     0.149 A
HETATM   17  S1  UNL     1      31.933  -5.769  -7.712  1.00  0.00    -0.048 SA
HETATM   18  C16 UNL     1      30.862  -4.926  -6.695  1.00  0.00     0.081 A
HETATM   19  C17 UNL     1      29.846  -3.832  -6.742  1.00  0.00     0.198 C
HETATM   20  O2  UNL     1      30.197  -2.830  -7.391  1.00  0.00    -0.286 OA
ENDROOT
BRANCH  16  21
HETATM   21  N4  UNL     1      33.473  -7.780  -6.644  1.00  0.00    -0.348 N
ATOM     22  H4  UNL     1      34.433  -7.434  -6.641  1.00  0.00     0.167 HD
BRANCH  21  23
HETATM   23  C11 UNL     1      33.392  -9.157  -6.724  1.00  0.00     0.083 C
BRANCH  23  24
HETATM   24  C12 UNL     1      32.814  -9.880  -5.511  1.00  0.00     0.172 C
BRANCH  24  25
HETATM   25  N5  UNL     1      31.450 -10.306  -5.792  1.00  0.00    -0.328 N
HETATM   26  C13 UNL     1      30.224  -9.563  -5.779  1.00  0.00     0.147 C
HETATM   27  C14 UNL     1      29.122 -10.536  -6.063  1.00  0.00     0.144 C
HETATM   28  N6  UNL     1      29.738 -11.763  -6.473  1.00  0.00    -0.341 N
HETATM   29  C15 UNL     1      31.109 -11.662  -6.208  1.00  0.00     0.318 C
ATOM     30  H6  UNL     1      29.263 -12.566  -6.883  1.00  0.00     0.164 HD
HETATM   31  O1  UNL     1      31.949 -12.578  -6.307  1.00  0.00    -0.247 OA
ENDBRANCH  24  25
ENDBRANCH  23  24
ENDBRANCH  21  23
ENDBRANCH  16  21
TORSDOF 4
ENDMDL