MODEL 1
REMARK VINA RESULT: -7.445254171      0.000      0.000
REMARK  6 active torsions:
REMARK  status: ('A' for Active; 'I' for Inactive)
REMARK       I    between atoms: C1_2  and  N1_3
REMARK    1  A    between atoms: C1_2  and  C12_18
REMARK    2  A    between atoms: N1_3  and  C2_5
REMARK    3  A    between atoms: C5_8  and  C6_9
REMARK       I    between atoms: C6_9  and  N2_11
REMARK    4  A    between atoms: C16_22  and  C17_23
REMARK    5  A    between atoms: C17_23  and  O3_24
REMARK    6  A    between atoms: N3_26  and  O4_28
ROOT
HETATM    1  O1  UNL     1      33.124  -9.941  -8.126  1.00  0.00    -0.273 OA
HETATM    2  C1  UNL     1      32.611  -8.863  -8.491  1.00  0.00     0.223 C
HETATM    3  N1  UNL     1      31.541  -8.340  -7.738  1.00  0.00    -0.356 N
ATOM      4  H1  UNL     1      31.124  -7.460  -8.039  1.00  0.00     0.162 HD
ENDROOT
BRANCH   3   5
HETATM    5  C2  UNL     1      31.000  -8.985  -6.559  1.00  0.00     0.085 C
HETATM    6  C3  UNL     1      29.591  -9.445  -6.717  1.00  0.00     0.026 C
HETATM    7  C4  UNL     1      29.150  -9.685  -5.279  1.00  0.00     0.016 C
HETATM    8  C5  UNL     1      29.835  -8.628  -4.475  1.00  0.00     0.080 C
HETATM    9  C11 UNL     1      30.852  -7.983  -5.406  1.00  0.00     0.039 C
BRANCH   8  10
HETATM   10  C6  UNL     1      30.478  -9.126  -3.246  1.00  0.00     0.224 C
HETATM   11  O2  UNL     1      31.305 -10.094  -3.375  1.00  0.00    -0.273 OA
HETATM   12  N2  UNL     1      30.246  -8.609  -1.953  1.00  0.00    -0.350 N
HETATM   13  C7  UNL     1      30.935  -9.184  -0.798  1.00  0.00     0.136 C
HETATM   14  C10 UNL     1      29.340  -7.513  -1.740  1.00  0.00     0.136 C
HETATM   15  C8  UNL     1      30.635  -8.458   0.481  1.00  0.00     0.093 C
HETATM   16  S1  UNL     1      28.812  -8.444   0.703  1.00  0.00    -0.166 SA
HETATM   17  C9  UNL     1      28.134  -8.053  -0.960  1.00  0.00     0.093 C
ENDBRANCH   8  10
ENDBRANCH   3   5
BRANCH   2  18
HETATM   18  C12 UNL     1      33.104  -8.168  -9.659  1.00  0.00     0.089 C
HETATM   19  C13 UNL     1      32.887  -6.687  -9.706  1.00  0.00     0.015 C
HETATM   20  C14 UNL     1      32.889  -6.358 -11.193  1.00  0.00     0.002 C
HETATM   21  C15 UNL     1      33.299  -7.651 -11.911  1.00  0.00     0.013 C
HETATM   22  C16 UNL     1      32.596  -8.672 -10.988  1.00  0.00     0.075 C
BRANCH  22  23
HETATM   23  C17 UNL     1      31.162  -8.471 -11.211  1.00  0.00     0.140 C
HETATM   24  N3  UNL     1      30.649  -7.730 -12.128  1.00  0.00    -0.251 N
ATOM     25  H3  UNL     1      31.289  -7.241 -12.754  1.00  0.00     0.196 HD
BRANCH  23  26
HETATM   26  O3  UNL     1      30.285  -9.135 -10.362  1.00  0.00    -0.348 OA
ATOM     27  H3  UNL     1      29.361  -8.935 -10.445  1.00  0.00     0.219 HD
ENDBRANCH  23  26
BRANCH  24  28
HETATM   28  O4  UNL     1      29.325  -7.552 -12.326  1.00  0.00    -0.288 OA
ATOM     29  H4  UNL     1      28.946  -6.933 -12.939  1.00  0.00     0.244 HD
ENDBRANCH  24  28
ENDBRANCH  22  23
ENDBRANCH   2  18
TORSDOF 6
ENDMDL