MODEL 3
REMARK VINA RESULT: -7.432483570      0.903      1.128
REMARK  5 active torsions:
REMARK  status: ('A' for Active; 'I' for Inactive)
REMARK    1  A    between atoms: C4_4  and  C5_5
REMARK    2  A    between atoms: C5_5  and  N1_6
REMARK    3  A    between atoms: C8_9  and  N2_10
REMARK    4  A    between atoms: C14_19  and  N4_20
REMARK    5  A    between atoms: N4_20  and  C15_22
ROOT
HETATM    1  C1  UNL     1      29.743  -9.979  -5.708  1.00  0.00     0.090 A
HETATM    2  C2  UNL     1      29.719  -8.629  -5.437  1.00  0.00     0.034 A
HETATM    3  C3  UNL     1      30.509  -8.004  -6.387  1.00  0.00     0.035 A
HETATM    4  C4  UNL     1      30.862  -6.698  -6.628  1.00  0.00     0.069 A
HETATM    5  N3  UNL     1      31.658  -6.439  -7.653  1.00  0.00    -0.193 N
ATOM      6  H3  UNL     1      31.912  -5.466  -7.823  1.00  0.00     0.184 HD
HETATM    7  C14 UNL     1      32.156  -7.372  -8.489  1.00  0.00     0.680 A
HETATM    8  N5  UNL     1      31.810  -8.645  -8.249  1.00  0.00    -0.176 N
ATOM      9  H5  UNL     1      32.168  -9.378  -8.861  1.00  0.00     0.186 HD
HETATM   10  C20 UNL     1      30.996  -8.990  -7.217  1.00  0.00     0.133 A
HETATM   11  N6  UNL     1      30.523 -10.159  -6.789  1.00  0.00    -0.351 N
ATOM     12  H6  UNL     1      30.723 -11.062  -7.219  1.00  0.00     0.166 HD
ENDROOT
BRANCH   4  13
HETATM   13  C5  UNL     1      30.308  -5.667  -5.703  1.00  0.00     0.330 C
BRANCH  13  14
HETATM   14  N1  UNL     1      29.726  -4.546  -6.414  1.00  0.00     0.096 N
HETATM   15  C6  UNL     1      29.986  -3.314  -5.738  1.00  0.00     0.275 C
HETATM   16  C7  UNL     1      28.615  -2.746  -5.343  1.00  0.00     0.068 C
HETATM   17  C8  UNL     1      27.832  -4.037  -5.239  1.00  0.00     0.253 C
HETATM   18  C13 UNL     1      28.295  -4.767  -6.455  1.00  0.00     0.308 C
BRANCH  17  19
HETATM   19  N2  UNL     1      26.432  -3.861  -5.124  1.00  0.00     0.099 N
HETATM   20  C9  UNL     1      25.830  -3.930  -6.423  1.00  0.00     0.299 C
HETATM   21  C10 UNL     1      24.333  -3.956  -6.245  1.00  0.00     0.198 C
HETATM   22  O1  UNL     1      23.885  -2.923  -5.461  1.00  0.00    -0.388 OA
HETATM   23  C11 UNL     1      24.868  -2.064  -5.022  1.00  0.00     0.198 C
HETATM   24  C12 UNL     1      25.994  -2.784  -4.309  1.00  0.00     0.299 C
ENDBRANCH  17  19
ENDBRANCH  13  14
ENDBRANCH   4  13
BRANCH   7  25
HETATM   25  N4  UNL     1      32.905  -6.986  -9.427  1.00  0.00    -0.221 N
ATOM     26  H4  UNL     1      33.836  -6.700  -9.124  1.00  0.00     0.178 HD
BRANCH  25  27
HETATM   27  C15 UNL     1      32.698  -6.875 -10.815  1.00  0.00     0.099 C
HETATM   28  C16 UNL     1      33.221  -8.033 -11.598  1.00  0.00     0.026 C
HETATM   29  C17 UNL     1      32.229  -8.292 -12.711  1.00  0.00     0.002 C
HETATM   30  C18 UNL     1      31.211  -7.201 -12.626  1.00  0.00     0.002 C
HETATM   31  C19 UNL     1      31.285  -6.594 -11.245  1.00  0.00     0.026 C
ENDBRANCH  25  27
ENDBRANCH   7  25
TORSDOF 5
ENDMDL