MODEL 1
REMARK VINA RESULT: -7.931837148      0.000      0.000
REMARK  6 active torsions:
REMARK  status: ('A' for Active; 'I' for Inactive)
REMARK    1  A    between atoms: C5_5  and  N1_6
REMARK    2  A    between atoms: N1_6  and  C6_8
REMARK    3  A    between atoms: C7_11  and  N3_12
REMARK    4  A    between atoms: C12_19  and  N5_20
REMARK    5  A    between atoms: N5_20  and  C13_22
REMARK    6  A    between atoms: C13_22  and  C14_23
ROOT
HETATM    1  C6  UNL     1      28.687  -4.850  -6.108  1.00  0.00     0.711 A
HETATM    2  N2  UNL     1      28.335  -5.278  -4.908  1.00  0.00    -0.021 N
ATOM      3  H2  UNL     1      27.620  -4.774  -4.384  1.00  0.00     0.203 HD
HETATM    4  C7  UNL     1      28.914  -6.385  -4.359  1.00  0.00     0.709 A
HETATM    5  N4  UNL     1      29.844  -7.044  -5.037  1.00  0.00    -0.021 N
ATOM      6  H4  UNL     1      30.270  -7.871  -4.619  1.00  0.00     0.203 HD
HETATM    7  C12 UNL     1      30.249  -6.641  -6.293  1.00  0.00     0.707 A
HETATM    8  N7  UNL     1      29.654  -5.569  -6.766  1.00  0.00    -0.021 N
ATOM      9  H7  UNL     1      29.932  -5.246  -7.693  1.00  0.00     0.203 HD
ENDROOT
BRANCH   1  10
HETATM   10  N1  UNL     1      28.233  -3.857  -6.729  1.00  0.00    -0.190 N
ATOM     11  H1  UNL     1      28.556  -3.711  -7.685  1.00  0.00     0.184 HD
BRANCH  10  12
HETATM   12  C5  UNL     1      27.317  -2.935  -6.206  1.00  0.00     0.056 A
HETATM   13  C4  UNL     1      25.959  -3.239  -6.399  1.00  0.00    -0.025 A
HETATM   14  C3  UNL     1      25.009  -2.390  -5.895  1.00  0.00    -0.050 A
HETATM   15  C19 UNL     1      25.290  -4.391  -7.098  1.00  0.00     0.042 C
HETATM   16  C2  UNL     1      25.378  -1.239  -5.201  1.00  0.00     0.008 A
HETATM   17  C21 UNL     1      23.666  -2.935  -6.234  1.00  0.00     0.039 C
HETATM   18  C1  UNL     1      26.725  -0.962  -5.024  1.00  0.00     0.003 A
HETATM   19  C18 UNL     1      27.697  -1.788  -5.514  1.00  0.00     0.030 A
HETATM   20  C20 UNL     1      23.965  -4.419  -6.360  1.00  0.00     0.009 C
ENDBRANCH  10  12
ENDBRANCH   1  10
BRANCH   4  21
HETATM   21  N3  UNL     1      28.490  -6.774  -3.057  1.00  0.00    -0.217 N
HETATM   22  C8  UNL     1      28.028  -5.906  -1.994  1.00  0.00     0.141 C
HETATM   23  C9  UNL     1      27.650  -6.797  -0.861  1.00  0.00     0.022 C
HETATM   24  C10 UNL     1      27.397  -8.144  -1.485  1.00  0.00     0.022 C
HETATM   25  C11 UNL     1      28.442  -8.153  -2.587  1.00  0.00     0.141 C
ENDBRANCH   4  21
BRANCH   7  26
HETATM   26  N5  UNL     1      31.146  -7.328  -6.878  1.00  0.00    -0.225 N
ATOM     27  H5  UNL     1      31.539  -6.939  -7.735  1.00  0.00     0.177 HD
BRANCH  26  28
HETATM   28  C13 UNL     1      31.649  -8.580  -6.453  1.00  0.00     0.144 C
BRANCH  28  29
HETATM   29  C14 UNL     1      31.016  -9.771  -7.164  1.00  0.00     0.031 C
HETATM   30  C15 UNL     1      32.126 -10.728  -7.564  1.00  0.00     0.035 C
HETATM   31  C16 UNL     1      31.956 -11.912  -6.680  1.00  0.00     0.232 C
HETATM   32  N6  UNL     1      31.012 -11.592  -5.656  1.00  0.00    -0.075 N
HETATM   33  C17 UNL     1      30.176 -10.514  -6.160  1.00  0.00     0.238 C
ATOM     34  H62 UNL     1      30.475 -12.400  -5.342  1.00  0.00     0.277 HD
ATOM     35  H61 UNL     1      31.453 -11.371  -4.763  1.00  0.00     0.277 HD
ENDBRANCH  28  29
ENDBRANCH  26  28
ENDBRANCH   7  26
TORSDOF 6
ENDMDL