MODEL 3
REMARK VINA RESULT: -7.712618875      3.749      5.842
REMARK  5 active torsions:
REMARK  status: ('A' for Active; 'I' for Inactive)
REMARK    1  A    between atoms: C6_8  and  C7_9
REMARK    2  A    between atoms: C7_9  and  C8_10
REMARK    3  A    between atoms: C8_10  and  C9_11
REMARK    4  A    between atoms: C10_12  and  N2_13
REMARK    5  A    between atoms: C20_30  and  N6_31
ROOT
HETATM    1  C9  UNL     1      31.470  -5.204  -6.988  1.00  0.00     0.030 A
HETATM    2  C10 UNL     1      32.314  -6.255  -6.642  1.00  0.00     0.114 A
HETATM    3  N4  UNL     1      33.619  -6.157  -7.010  1.00  0.00    -0.338 N
ATOM      4  H4  UNL     1      34.255  -6.917  -6.766  1.00  0.00     0.168 HD
HETATM    5  C19 UNL     1      34.103  -5.104  -7.677  1.00  0.00     0.183 A
HETATM    6  N5  UNL     1      33.277  -4.094  -8.002  1.00  0.00    -0.338 N
ATOM      7  H5  UNL     1      33.646  -3.291  -8.511  1.00  0.00     0.168 HD
HETATM    8  C20 UNL     1      31.972  -4.119  -7.671  1.00  0.00     0.109 A
ENDROOT
BRANCH   2   9
HETATM    9  N2  UNL     1      31.938  -7.412  -5.926  1.00  0.00    -0.361 N
HETATM   10  C11 UNL     1      31.342  -8.605  -6.495  1.00  0.00     0.136 C
HETATM   11  C12 UNL     1      30.671  -9.324  -5.348  1.00  0.00     0.002 C
HETATM   12  C13 UNL     1      29.187  -9.564  -5.657  1.00  0.00     0.134 C
HETATM   13  C15 UNL     1      31.145 -10.736  -5.202  1.00  0.00     0.115 C
HETATM   14  C16 UNL     1      30.792  -8.462  -4.148  1.00  0.00     0.038 C
HETATM   15  N3  UNL     1      29.317 -10.644  -6.657  1.00  0.00    -0.360 N
HETATM   16  C14 UNL     1      30.510 -11.339  -6.456  1.00  0.00     0.218 C
ATOM     17  H3  UNL     1      28.634 -10.850  -7.386  1.00  0.00     0.162 HD
HETATM   18  O1  UNL     1      31.044 -12.253  -7.079  1.00  0.00    -0.274 OA
HETATM   19  C17 UNL     1      32.026  -7.622  -4.505  1.00  0.00     0.082 C
HETATM   20  C18 UNL     1      33.205  -8.444  -4.056  1.00  0.00     0.032 C
ENDBRANCH   2   9
BRANCH   1  21
HETATM   21  C8  UNL     1      30.064  -5.301  -6.632  1.00  0.00     0.051 C
BRANCH  21  22
HETATM   22  C7  UNL     1      29.575  -4.744  -5.348  1.00  0.00     0.045 C
BRANCH  22  23
HETATM   23  C6  UNL     1      28.417  -3.798  -5.610  1.00  0.00    -0.035 A
HETATM   24  C4  UNL     1      28.567  -2.454  -5.402  1.00  0.00     0.011 A
HETATM   25  N1  UNL     1      27.469  -1.668  -5.620  1.00  0.00    -0.368 N
HETATM   26  C5  UNL     1      29.845  -1.803  -4.981  1.00  0.00     0.068 C
HETATM   27  C3  UNL     1      26.286  -2.164  -6.018  1.00  0.00     0.095 A
ATOM     28  H1  UNL     1      27.553  -0.663  -5.473  1.00  0.00     0.165 HD
HETATM   29  C2  UNL     1      26.119  -3.508  -6.233  1.00  0.00    -0.046 A
HETATM   30  C1  UNL     1      24.797  -4.047  -6.682  1.00  0.00     0.049 C
HETATM   31  C21 UNL     1      27.216  -4.326  -6.021  1.00  0.00     0.017 A
ENDBRANCH  22  23
ENDBRANCH  21  22
ENDBRANCH   1  21
BRANCH   8  32
HETATM   32  N6  UNL     1      31.274  -3.086  -8.017  1.00  0.00    -0.385 N
ATOM     33  H62 UNL     1      30.866  -3.109  -8.952  1.00  0.00     0.157 HD
ATOM     34  H61 UNL     1      31.123  -2.268  -7.426  1.00  0.00     0.157 HD
ENDBRANCH   8  32
TORSDOF 5
ENDMDL