MODEL 4
REMARK VINA RESULT: -5.654319511      2.387      5.202
REMARK  5 active torsions:
REMARK  status: ('A' for Active; 'I' for Inactive)
REMARK    1  A    between atoms: C2_2  and  C3_3
REMARK    2  A    between atoms: C14_14  and  O1_15
REMARK    3  A    between atoms: C16_18  and  O2_19
REMARK    4  A    between atoms: C19_24  and  C21_26
REMARK    5  A    between atoms: C21_26  and  O4_27
ROOT
HETATM    1  C3  UNL     1       3.695   2.567  22.595  1.00  0.00    -0.022 C
HETATM    2  C4  UNL     1       4.611   1.460  22.289  1.00  0.00     0.020 C
HETATM    3  C5  UNL     1       4.503   3.873  22.437  1.00  0.00     0.014 C
HETATM    4  C6  UNL     1       5.159   3.936  23.792  1.00  0.00     0.014 C
HETATM    5  C7  UNL     1       3.955   3.742  24.718  1.00  0.00    -0.006 C
HETATM    6  C8  UNL     1       3.273   5.077  24.713  1.00  0.00     0.019 C
HETATM    7  C9  UNL     1       3.124   2.721  23.945  1.00  0.00     0.020 C
HETATM    8  C10 UNL     1       2.792   1.522  24.744  1.00  0.00     0.057 C
HETATM    9  C11 UNL     1       1.711   0.695  24.199  1.00  0.00    -0.077 C
HETATM   10  C12 UNL     1       2.084  -0.473  23.287  1.00  0.00     0.043 C
HETATM   11  C13 UNL     1       0.411   0.790  24.423  1.00  0.00     0.007 C
HETATM   12  C14 UNL     1      -0.385   1.700  25.252  1.00  0.00     0.143 C
HETATM   13  C15 UNL     1       0.138   1.632  26.699  1.00  0.00     0.070 C
HETATM   14  C16 UNL     1       1.410   2.391  26.713  1.00  0.00     0.155 C
HETATM   15  C17 UNL     1       2.648   1.770  26.217  1.00  0.00     0.092 C
HETATM   16  C18 UNL     1       2.760   0.370  26.864  1.00  0.00     0.049 C
HETATM   17  O3  UNL     1       3.685   2.463  26.773  1.00  0.00    -0.364 OA
HETATM   18  C19 UNL     1       4.463   3.259  26.020  1.00  0.00     0.087 C
HETATM   19  C20 UNL     1       5.816   2.514  25.910  1.00  0.00     0.049 C
ENDROOT
BRANCH  18  20
HETATM   20  C21 UNL     1       4.885   4.445  26.902  1.00  0.00     0.205 C
BRANCH  20  21
HETATM   21  O4  UNL     1       4.259   4.459  28.133  1.00  0.00    -0.393 OA
HETATM   22  C22 UNL     1       5.214   4.676  29.092  1.00  0.00     0.201 C
ENDBRANCH  20  21
ENDBRANCH  18  20
BRANCH   1  23
HETATM   23  C2  UNL     1       2.681   2.656  21.503  1.00  0.00    -0.027 C
HETATM   24  C1  UNL     1       2.786   1.846  20.479  1.00  0.00     0.007 C
ENDBRANCH   1  23
BRANCH  14  25
HETATM   25  O2  UNL     1       1.643   2.667  28.089  1.00  0.00    -0.392 OA
ATOM     26  H2  UNL     1       2.340   3.312  28.087  1.00  0.00     0.210 HD
ENDBRANCH  14  25
BRANCH  12  27
HETATM   27  O1  UNL     1      -0.521   2.985  24.795  1.00  0.00    -0.392 OA
ATOM     28  H1  UNL     1      -1.334   3.428  25.008  1.00  0.00     0.210 HD
ENDBRANCH  12  27
TORSDOF 5
ENDMDL