MODEL 1
REMARK VINA RESULT: -7.052238028      0.000      0.000
REMARK  6 active torsions:
REMARK  status: ('A' for Active; 'I' for Inactive)
REMARK    1  A    between atoms: S1_2  and  C2_3
REMARK       I    between atoms: C2_3  and  N1_5
REMARK    2  A    between atoms: N1_5  and  C3_7
REMARK    3  A    between atoms: C3_7  and  C4_8
REMARK    4  A    between atoms: C4_8  and  C5_9
REMARK    5  A    between atoms: C5_9  and  N2_10
REMARK    6  A    between atoms: C13_19  and  O2_20
ROOT
HETATM    1  N2  UNL     1       0.821  -1.057  30.908  1.00  0.00    -0.393 N
ATOM      2  H2  UNL     1       0.818  -0.941  31.920  1.00  0.00     0.159 HD
HETATM    3  C6  UNL     1       1.590  -0.316  30.241  1.00  0.00     0.024 C
HETATM    4  C7  UNL     1       1.735  -0.335  28.763  1.00  0.00     0.069 C
HETATM    5  C8  UNL     1       3.212  -0.628  28.472  1.00  0.00     0.018 C
HETATM    6  C9  UNL     1       4.067   0.398  29.149  1.00  0.00    -0.010 C
HETATM    7  C10 UNL     1       3.761   1.772  28.615  1.00  0.00     0.012 C
HETATM    8  C11 UNL     1       2.294   2.067  28.892  1.00  0.00     0.024 C
HETATM    9  C12 UNL     1       2.085   2.040  30.387  1.00  0.00     0.052 C
HETATM   10  C13 UNL     1       2.444   0.680  30.973  1.00  0.00     0.097 C
HETATM   11  C14 UNL     1       3.901   0.433  30.644  1.00  0.00     0.048 C
HETATM   12  C15 UNL     1       1.478   1.048  28.159  1.00  0.00     0.073 C
HETATM   13  C16 UNL     1       0.010   1.368  28.122  1.00  0.00     0.039 C
HETATM   14  C17 UNL     1      -0.536   0.879  26.792  1.00  0.00     0.005 C
HETATM   15  C18 UNL     1       0.069   1.669  25.645  1.00  0.00     0.026 C
HETATM   16  C19 UNL     1       1.486   2.041  26.078  1.00  0.00     0.168 C
HETATM   17  O3  UNL     1       1.958   0.988  26.850  1.00  0.00    -0.379 OA
ENDROOT
BRANCH   1  18
HETATM   18  C5  UNL     1      -0.040  -2.039  30.361  1.00  0.00     0.121 C
BRANCH  18  19
HETATM   19  C4  UNL     1      -1.396  -1.495  29.980  1.00  0.00     0.039 C
BRANCH  19  20
HETATM   20  C3  UNL     1      -2.089  -2.551  29.145  1.00  0.00     0.125 C
BRANCH  20  21
HETATM   21  N1  UNL     1      -2.135  -2.200  27.752  1.00  0.00    -0.352 N
HETATM   22  C2  UNL     1      -3.299  -1.631  27.201  1.00  0.00     0.279 C
HETATM   23  O1  UNL     1      -4.299  -1.427  27.912  1.00  0.00    -0.260 OA
ATOM     24  H1  UNL     1      -1.320  -2.364  27.160  1.00  0.00     0.163 HD
BRANCH  22  25
HETATM   25  S1  UNL     1      -3.347  -1.199  25.472  1.00  0.00    -0.074 SA
HETATM   26  C1  UNL     1      -1.908  -1.890  24.624  1.00  0.00     0.100 C
ENDBRANCH  22  25
ENDBRANCH  20  21
ENDBRANCH  19  20
ENDBRANCH  18  19
ENDBRANCH   1  18
BRANCH  10  27
HETATM   27  O2  UNL     1       2.207   0.690  32.325  1.00  0.00    -0.384 OA
ATOM     28  H2  UNL     1       2.120  -0.184  32.689  1.00  0.00     0.211 HD
ENDBRANCH  10  27
TORSDOF 6
ENDMDL