MODEL 2
REMARK VINA RESULT: -6.717401040      2.058      3.967
REMARK  8 active torsions:
REMARK  status: ('A' for Active; 'I' for Inactive)
REMARK    1  A    between atoms: C2_2  and  C3_3
REMARK    2  A    between atoms: C2_2  and  N1_7
REMARK    3  A    between atoms: C3_3  and  O1_5
REMARK    4  A    between atoms: N2_10  and  C7_11
REMARK    5  A    between atoms: C7_11  and  C8_12
REMARK    6  A    between atoms: C11_15  and  N3_16
REMARK       I    between atoms: N3_16  and  C12_17
REMARK    7  A    between atoms: C12_17  and  O3_19
REMARK    8  A    between atoms: O3_19  and  C13_20
ROOT
HETATM    1  C8  UNL     1       2.087   2.309  27.278  1.00  0.00     0.003 C
HETATM    2  C9  UNL     1       1.643   2.393  25.842  1.00  0.00     0.009 C
HETATM    3  C10 UNL     1       0.783   1.186  25.478  1.00  0.00     0.040 C
HETATM    4  C11 UNL     1      -0.371   1.024  26.376  1.00  0.00     0.169 C
HETATM    5  C17 UNL     1       0.232   0.804  27.847  1.00  0.00     0.040 C
HETATM    6  C18 UNL     1       0.970   2.042  28.210  1.00  0.00     0.009 C
ENDROOT
BRANCH   1   7
HETATM    7  C7  UNL     1       3.267   1.391  27.485  1.00  0.00     0.121 C
BRANCH   7   8
HETATM    8  N2  UNL     1       3.639   1.372  28.846  1.00  0.00    -0.409 N
HETATM    9  C6  UNL     1       3.932   2.600  29.465  1.00  0.00     0.136 C
HETATM   10  C5  UNL     1       3.259   2.768  30.830  1.00  0.00     0.142 C
HETATM   11  N1  UNL     1       3.202   1.500  31.501  1.00  0.00    -0.380 N
HETATM   12  C20 UNL     1       4.085   0.478  31.009  1.00  0.00     0.142 C
HETATM   13  C19 UNL     1       3.533   0.202  29.579  1.00  0.00     0.136 C
BRANCH  11  14
HETATM   14  C2  UNL     1       2.277   1.245  32.565  1.00  0.00     0.026 C
HETATM   15  C1  UNL     1       1.748   0.089  32.615  1.00  0.00     0.040 C
BRANCH  14  16
HETATM   16  C3  UNL     1       2.081   2.253  33.625  1.00  0.00     0.162 C
HETATM   17  C4  UNL     1       0.983   1.661  34.522  1.00  0.00     0.046 C
BRANCH  16  18
HETATM   18  O1  UNL     1       3.232   2.379  34.462  1.00  0.00    -0.390 OA
ATOM     19  H1  UNL     1       3.542   3.276  34.506  1.00  0.00     0.210 HD
ENDBRANCH  16  18
ENDBRANCH  14  16
ENDBRANCH  11  14
ENDBRANCH   7   8
ENDBRANCH   1   7
BRANCH   4  20
HETATM   20  N3  UNL     1      -1.190  -0.026  26.123  1.00  0.00    -0.385 NA
HETATM   21  C12 UNL     1      -2.020  -1.085  25.861  1.00  0.00     0.435 C
HETATM   22  O2  UNL     1      -2.874  -1.347  25.035  1.00  0.00    -0.221 OA
BRANCH  21  23
HETATM   23  O3  UNL     1      -1.803  -2.197  26.849  1.00  0.00    -0.283 OA
BRANCH  23  24
HETATM   24  C13 UNL     1      -2.602  -2.051  28.058  1.00  0.00     0.062 C
HETATM   25  C14 UNL     1      -2.716  -3.430  28.653  1.00  0.00     0.046 C
HETATM   26  C15 UNL     1      -1.847  -1.155  29.061  1.00  0.00     0.046 C
HETATM   27  C16 UNL     1      -3.956  -1.471  27.738  1.00  0.00     0.046 C
ENDBRANCH  23  24
ENDBRANCH  21  23
ENDBRANCH   4  20
TORSDOF 8
ENDMDL