MODEL 4
REMARK VINA RESULT: -6.758063223      3.406      5.802
REMARK  6 active torsions:
REMARK  status: ('A' for Active; 'I' for Inactive)
REMARK    1  A    between atoms: C2_2  and  C3_3
REMARK    2  A    between atoms: C3_3  and  C4_4
REMARK    3  A    between atoms: C4_4  and  C6_6
REMARK    4  A    between atoms: C8_8  and  O1_9
REMARK    5  A    between atoms: C15_17  and  O2_18
REMARK    6  A    between atoms: C19_24  and  O4_25
ROOT
HETATM    1  C6  UNL     1      -0.713  -0.522  26.857  1.00  0.00    -0.064 C
HETATM    2  C7  UNL     1      -1.130  -1.035  25.476  1.00  0.00     0.067 C
HETATM    3  C8  UNL     1      -1.341  -0.004  24.455  1.00  0.00     0.122 C
HETATM    4  C9  UNL     1       0.060   0.603  24.290  1.00  0.00     0.039 C
HETATM    5  C10 UNL     1       0.504   1.277  25.558  1.00  0.00     0.016 C
HETATM    6  C11 UNL     1       1.907   1.690  25.244  1.00  0.00    -0.009 C
HETATM    7  C12 UNL     1       2.748   0.612  24.602  1.00  0.00     0.021 C
HETATM    8  C13 UNL     1       1.785   2.769  24.178  1.00  0.00     0.017 C
HETATM    9  C14 UNL     1       2.703   3.919  24.294  1.00  0.00     0.037 C
HETATM   10  C15 UNL     1       4.042   3.607  24.939  1.00  0.00     0.141 C
HETATM   11  C16 UNL     1       3.657   3.070  26.277  1.00  0.00     0.016 C
HETATM   12  C17 UNL     1       2.685   2.204  26.376  1.00  0.00    -0.002 C
HETATM   13  C18 UNL     1       2.295   1.655  27.665  1.00  0.00     0.185 C
HETATM   14  O3  UNL     1       2.619   2.232  28.710  1.00  0.00    -0.290 OA
HETATM   15  C19 UNL     1       1.496   0.376  27.581  1.00  0.00     0.207 C
HETATM   16  C21 UNL     1       0.177   0.642  26.857  1.00  0.00     0.018 C
HETATM   17  C22 UNL     1      -0.357   1.780  27.777  1.00  0.00     0.023 C
ENDROOT
BRANCH   1  18
HETATM   18  C4  UNL     1      -1.912  -0.684  27.695  1.00  0.00    -0.080 C
HETATM   19  C5  UNL     1      -3.129  -1.323  27.153  1.00  0.00     0.043 C
BRANCH  18  20
HETATM   20  C3  UNL     1      -1.758  -1.005  29.150  1.00  0.00     0.033 C
BRANCH  20  21
HETATM   21  C2  UNL     1      -1.810  -2.534  29.348  1.00  0.00    -0.000 C
HETATM   22  C1  UNL     1      -1.013  -2.766  30.650  1.00  0.00     0.005 C
ENDBRANCH  20  21
ENDBRANCH  18  20
ENDBRANCH   1  18
BRANCH   3  23
HETATM   23  O1  UNL     1      -1.629  -0.631  23.248  1.00  0.00    -0.395 OA
ATOM     24  H1  UNL     1      -1.133  -0.204  22.560  1.00  0.00     0.210 HD
ENDBRANCH   3  23
BRANCH  15  25
HETATM   25  O4  UNL     1       1.355   0.043  28.918  1.00  0.00    -0.382 OA
HETATM   26  C20 UNL     1       1.982  -1.160  29.218  1.00  0.00     0.202 C
ENDBRANCH  15  25
BRANCH  10  27
HETATM   27  O2  UNL     1       4.690   4.826  25.116  1.00  0.00    -0.392 OA
ATOM     28  H2  UNL     1       4.262   5.255  25.847  1.00  0.00     0.210 HD
ENDBRANCH  10  27
TORSDOF 6
ENDMDL