MODEL 4
REMARK VINA RESULT: -7.281593650      1.597      2.315
REMARK  4 active torsions:
REMARK  status: ('A' for Active; 'I' for Inactive)
REMARK    1  A    between atoms: C9_9  and  C10_10
REMARK    2  A    between atoms: C10_10  and  N1_11
REMARK    3  A    between atoms: C14_15  and  C15_16
REMARK    4  A    between atoms: C15_16  and  O1_17
ROOT
HETATM    1  C1  UNL     1       2.781   0.293  22.595  1.00  0.00     0.021 C
HETATM    2  C2  UNL     1       1.704   0.705  23.598  1.00  0.00    -0.001 C
HETATM    3  C3  UNL     1       1.547   2.180  23.526  1.00  0.00     0.016 C
HETATM    4  C4  UNL     1       0.824   2.809  24.668  1.00  0.00     0.013 C
HETATM    5  C5  UNL     1       1.023   2.171  25.997  1.00  0.00    -0.009 C
HETATM    6  C6  UNL     1       2.364   2.696  26.538  1.00  0.00     0.018 C
HETATM    7  C7  UNL     1      -0.037   2.625  26.971  1.00  0.00     0.042 C
HETATM    8  C8  UNL     1       0.153   1.919  28.279  1.00  0.00     0.008 C
HETATM    9  C9  UNL     1       0.894   0.846  28.403  1.00  0.00     0.072 C
HETATM   10  O2  UNL     1       1.564   0.291  27.284  1.00  0.00    -0.342 OA
HETATM   11  C16 UNL     1       1.145   0.684  25.990  1.00  0.00     0.076 C
HETATM   12  C17 UNL     1      -0.118  -0.075  25.695  1.00  0.00     0.051 C
HETATM   13  C18 UNL     1      -0.654   0.098  24.327  1.00  0.00     0.052 C
HETATM   14  C19 UNL     1      -1.506  -1.108  23.914  1.00  0.00     0.145 C
HETATM   15  N2  UNL     1      -1.332  -1.007  22.464  1.00  0.00    -0.141 NA
HETATM   16  N3  UNL     1      -0.022  -0.569  22.270  1.00  0.00    -0.311 N
ATOM     17  H3  UNL     1       0.518  -0.729  21.420  1.00  0.00     0.181 HD
HETATM   18  C20 UNL     1       0.409   0.053  23.285  1.00  0.00     0.014 C
HETATM   19  C21 UNL     1       2.196   0.310  24.967  1.00  0.00     0.054 C
ENDROOT
BRANCH   9  20
HETATM   20  C10 UNL     1       1.057   0.180  29.718  1.00  0.00     0.337 C
BRANCH  20  21
HETATM   21  N1  UNL     1       1.895   0.816  30.660  1.00  0.00     0.101 N
HETATM   22  C11 UNL     1       2.506   2.045  30.249  1.00  0.00     0.273 C
HETATM   23  C12 UNL     1       3.947   1.751  29.961  1.00  0.00     0.032 C
HETATM   24  C13 UNL     1       4.259   0.573  30.819  1.00  0.00     0.040 C
HETATM   25  C14 UNL     1       2.939  -0.042  31.131  1.00  0.00     0.246 C
BRANCH  25  26
HETATM   26  C15 UNL     1       2.805  -0.228  32.626  1.00  0.00     0.199 C
BRANCH  26  27
HETATM   27  O1  UNL     1       2.755  -1.562  33.002  1.00  0.00    -0.399 OA
ATOM     28  H1  UNL     1       3.412  -2.094  32.569  1.00  0.00     0.209 HD
ENDBRANCH  26  27
ENDBRANCH  25  26
ENDBRANCH  20  21
ENDBRANCH   9  20
TORSDOF 4
ENDMDL