MODEL 5
REMARK VINA RESULT: -5.354494888      2.166      6.174
REMARK  6 active torsions:
REMARK  status: ('A' for Active; 'I' for Inactive)
REMARK    1  A    between atoms: O1_2  and  C2_3
REMARK    2  A    between atoms: C2_3  and  C4_5
REMARK    3  A    between atoms: C2_3  and  C5_8
REMARK    4  A    between atoms: C4_5  and  O2_6
REMARK    5  A    between atoms: C14_18  and  C15_19
REMARK    6  A    between atoms: C15_19  and  O4_20
ROOT
HETATM    1  C5  UNL     1       3.357   3.097  30.422  1.00  0.00     0.028 C
HETATM    2  C6  UNL     1       3.195   2.812  31.908  1.00  0.00     0.008 C
HETATM    3  C7  UNL     1       1.967   2.040  32.245  1.00  0.00     0.006 C
HETATM    4  C8  UNL     1       2.111   0.683  31.638  1.00  0.00    -0.003 C
HETATM    5  C9  UNL     1       2.569  -0.252  32.736  1.00  0.00     0.011 C
HETATM    6  C10 UNL     1       2.998   0.573  30.478  1.00  0.00     0.025 C
HETATM    7  C11 UNL     1       4.281  -0.176  30.883  1.00  0.00     0.024 C
HETATM    8  C12 UNL     1       2.313  -0.441  29.566  1.00  0.00     0.139 C
HETATM    9  O3  UNL     1       1.359  -1.090  29.865  1.00  0.00    -0.297 OA
HETATM   10  C13 UNL     1       2.910  -0.598  28.232  1.00  0.00     0.119 C
HETATM   11  C14 UNL     1       2.639   0.704  27.527  1.00  0.00     0.093 C
HETATM   12  O5  UNL     1       1.466   0.594  26.838  1.00  0.00    -0.367 OA
HETATM   13  C16 UNL     1       0.522   1.459  27.310  1.00  0.00     0.055 C
HETATM   14  C17 UNL     1      -0.844   0.822  27.504  1.00  0.00     0.045 C
HETATM   15  C18 UNL     1       0.344   2.567  26.292  1.00  0.00     0.045 C
HETATM   16  C19 UNL     1       1.041   2.043  28.606  1.00  0.00     0.045 C
HETATM   17  C20 UNL     1       2.491   1.868  28.439  1.00  0.00     0.031 C
HETATM   18  C21 UNL     1       3.328   1.821  29.698  1.00  0.00     0.015 C
ENDROOT
BRANCH   1  19
HETATM   19  C2  UNL     1       4.520   3.991  30.412  1.00  0.00     0.082 C
HETATM   20  C3  UNL     1       5.757   3.380  31.106  1.00  0.00     0.049 C
BRANCH  19  21
HETATM   21  O1  UNL     1       4.208   5.064  31.232  1.00  0.00    -0.383 OA
HETATM   22  C1  UNL     1       4.950   6.198  31.130  1.00  0.00     0.202 C
ENDBRANCH  19  21
BRANCH  19  23
HETATM   23  C4  UNL     1       5.019   4.592  29.147  1.00  0.00     0.202 C
BRANCH  23  24
HETATM   24  O2  UNL     1       5.952   3.762  28.525  1.00  0.00    -0.398 OA
ATOM     25  H2  UNL     1       5.893   3.824  27.579  1.00  0.00     0.209 HD
ENDBRANCH  23  24
ENDBRANCH  19  23
ENDBRANCH   1  19
BRANCH  11  26
HETATM   26  C15 UNL     1       3.750   0.903  26.518  1.00  0.00     0.203 C
BRANCH  26  27
HETATM   27  O4  UNL     1       4.943   1.251  27.119  1.00  0.00    -0.398 OA
ATOM     28  H4  UNL     1       4.976   2.174  27.342  1.00  0.00     0.209 HD
ENDBRANCH  26  27
ENDBRANCH  11  26
TORSDOF 6
ENDMDL