MODEL 1
REMARK VINA RESULT: -7.542529704      0.000      0.000
REMARK  5 active torsions:
REMARK  status: ('A' for Active; 'I' for Inactive)
REMARK    1  A    between atoms: C11_11  and  C12_12
REMARK    2  A    between atoms: C12_12  and  C13_13
REMARK    3  A    between atoms: C13_13  and  O1_14
REMARK    4  A    between atoms: C14_16  and  O2_17
REMARK    5  A    between atoms: O2_17  and  S1_18
ROOT
HETATM    1  C1  UNL     1      -0.003  -0.328  23.218  1.00  0.00     0.011 C
HETATM    2  C2  UNL     1       0.745   0.888  23.646  1.00  0.00    -0.010 C
HETATM    3  C3  UNL     1       2.246   0.684  23.687  1.00  0.00     0.005 C
HETATM    4  C4  UNL     1       2.691   1.157  25.073  1.00  0.00     0.006 C
HETATM    5  C5  UNL     1       1.463   0.700  25.822  1.00  0.00     0.003 C
HETATM    6  C6  UNL     1       0.371   1.333  25.069  1.00  0.00    -0.036 C
HETATM    7  C7  UNL     1       0.303   2.806  25.024  1.00  0.00     0.016 C
HETATM    8  C8  UNL     1      -0.908   0.707  25.536  1.00  0.00     0.010 C
HETATM    9  C9  UNL     1      -0.716  -0.230  26.695  1.00  0.00     0.007 C
HETATM   10  C10 UNL     1       0.132   0.382  27.806  1.00  0.00     0.001 C
HETATM   11  C11 UNL     1       0.272  -0.663  28.852  1.00  0.00     0.023 C
HETATM   12  C14 UNL     1       1.372  -0.422  29.849  1.00  0.00     0.149 C
HETATM   13  C15 UNL     1       2.732  -0.353  29.171  1.00  0.00     0.034 C
HETATM   14  C16 UNL     1       2.575  -0.219  27.707  1.00  0.00     0.012 C
HETATM   15  C17 UNL     1       1.502   0.774  27.274  1.00  0.00    -0.035 C
HETATM   16  C18 UNL     1       1.862   2.091  27.885  1.00  0.00     0.016 C
ENDROOT
BRANCH  12  17
HETATM   17  O2  UNL     1       1.317  -1.499  30.736  1.00  0.00    -0.251 OA
BRANCH  17  18
HETATM   18  S1  UNL     1       1.361  -1.085  32.333  1.00  0.00     0.251 S
HETATM   19  O3  UNL     1       0.213  -1.686  33.091  1.00  0.00    -0.572 OA
HETATM   20  O4  UNL     1       1.383   0.429  32.513  1.00  0.00    -0.572 OA
HETATM   21  O5  UNL     1       2.800  -1.639  32.999  1.00  0.00    -0.572 OA
ENDBRANCH  17  18
ENDBRANCH  12  17
BRANCH  11  22
HETATM   22  C12 UNL     1      -0.958  -1.122  29.523  1.00  0.00     0.033 C
BRANCH  22  23
HETATM   23  C13 UNL     1      -1.286  -2.555  29.548  1.00  0.00     0.164 C
BRANCH  23  24
HETATM   24  O1  UNL     1      -1.185  -3.218  30.741  1.00  0.00    -0.401 OA
ATOM     25  H1  UNL     1      -1.898  -3.791  30.997  1.00  0.00     0.209 HD
ENDBRANCH  23  24
ENDBRANCH  22  23
ENDBRANCH  11  22
TORSDOF 5
ENDMDL