MODEL 2
REMARK VINA RESULT: -7.643604164      0.823      1.046
REMARK  6 active torsions:
REMARK  status: ('A' for Active; 'I' for Inactive)
REMARK    1  A    between atoms: C2_2  and  C4_4
REMARK    2  A    between atoms: C5_6  and  O2_7
REMARK    3  A    between atoms: O2_7  and  C6_8
REMARK    4  A    between atoms: C6_8  and  C7_10
REMARK    5  A    between atoms: C20_23  and  O4_24
REMARK    6  A    between atoms: C21_26  and  O5_27
ROOT
HETATM    1  C6  UNL     1       0.121   1.737  27.182  1.00  0.00     0.265 C
HETATM    2  O3  UNL     1      -0.334   2.710  27.831  1.00  0.00    -0.265 OA
ENDROOT
BRANCH   1   3
HETATM    3  O2  UNL     1      -0.052   1.775  25.806  1.00  0.00    -0.287 OA
BRANCH   3   4
HETATM    4  C5  UNL     1       0.970   1.542  24.875  1.00  0.00     0.301 C
HETATM    5  O1  UNL     1       0.735   0.548  23.975  1.00  0.00    -0.350 OA
HETATM    6  C4  UNL     1       1.209   0.919  22.737  1.00  0.00     0.159 C
HETATM    7  C21 UNL     1       1.746   2.304  22.808  1.00  0.00     0.181 C
HETATM    8  C20 UNL     1       1.196   2.825  24.111  1.00  0.00     0.205 C
BRANCH   6   9
HETATM    9  C2  UNL     1       2.240   0.003  22.173  1.00  0.00     0.009 C
HETATM   10  C1  UNL     1       1.714  -0.587  20.882  1.00  0.00     0.012 C
HETATM   11  C3  UNL     1       2.684  -1.072  23.140  1.00  0.00     0.012 C
ENDBRANCH   6   9
BRANCH   7  12
HETATM   12  O5  UNL     1       3.121   2.393  22.867  1.00  0.00    -0.390 OA
ATOM     13  H5  UNL     1       3.546   1.706  23.366  1.00  0.00     0.210 HD
ENDBRANCH   7  12
BRANCH   8  14
HETATM   14  O4  UNL     1       0.022   3.496  23.870  1.00  0.00    -0.388 OA
ATOM     15  H4  UNL     1       0.097   4.096  23.136  1.00  0.00     0.210 HD
ENDBRANCH   8  14
ENDBRANCH   3   4
ENDBRANCH   1   3
BRANCH   1  16
HETATM   16  C7  UNL     1       0.806   0.614  27.873  1.00  0.00     0.086 C
HETATM   17  C8  UNL     1      -0.195  -0.115  28.702  1.00  0.00     0.015 C
HETATM   18  C9  UNL     1       0.337  -1.189  29.565  1.00  0.00     0.007 C
HETATM   19  C10 UNL     1       1.682  -1.005  30.146  1.00  0.00     0.001 C
HETATM   20  C11 UNL     1       1.592  -0.761  31.628  1.00  0.00    -0.043 C
HETATM   21  C17 UNL     1       2.576  -0.062  29.405  1.00  0.00    -0.039 C
HETATM   22  C12 UNL     1       0.880  -1.996  32.210  1.00  0.00     0.015 C
HETATM   23  C13 UNL     1       0.795   0.423  32.027  1.00  0.00     0.015 C
HETATM   24  C14 UNL     1       2.984  -0.786  32.194  1.00  0.00     0.009 C
HETATM   25  C15 UNL     1       3.724   0.395  31.605  1.00  0.00     0.002 C
HETATM   26  C16 UNL     1       3.785   0.375  30.124  1.00  0.00     0.010 C
HETATM   27  C18 UNL     1       3.060  -0.832  28.156  1.00  0.00     0.015 C
HETATM   28  C19 UNL     1       1.868   1.142  28.839  1.00  0.00     0.024 C
ENDBRANCH   1  16
TORSDOF 6
ENDMDL