MODEL 5
REMARK VINA RESULT: -6.805706189      1.313      1.513
REMARK  7 active torsions:
REMARK  status: ('A' for Active; 'I' for Inactive)
REMARK    1  A    between atoms: C2_2  and  C3_3
REMARK    2  A    between atoms: C3_3  and  C4_4
REMARK    3  A    between atoms: C4_4  and  O2_6
REMARK    4  A    between atoms: O2_6  and  C5_7
REMARK    5  A    between atoms: C13_16  and  C15_18
REMARK    6  A    between atoms: C15_18  and  O4_19
REMARK    7  A    between atoms: C21_26  and  O5_27
ROOT
HETATM    1  C5  UNL     1       2.368  -0.119  28.993  1.00  0.00     0.164 C
HETATM    2  C6  UNL     1       3.178   0.847  28.159  1.00  0.00     0.068 C
HETATM    3  C7  UNL     1       2.436   0.864  26.836  1.00  0.00     0.135 C
HETATM    4  O3  UNL     1       2.554   1.981  26.099  1.00  0.00    -0.374 OA
HETATM    5  C8  UNL     1       2.544   1.877  24.745  1.00  0.00     0.062 C
HETATM    6  C9  UNL     1       2.456   3.313  24.240  1.00  0.00     0.046 C
HETATM    7  C10 UNL     1       3.977   1.467  24.357  1.00  0.00     0.038 C
HETATM    8  C11 UNL     1       4.148   1.483  22.860  1.00  0.00     0.004 C
HETATM    9  C12 UNL     1       2.903   1.161  22.115  1.00  0.00     0.012 C
HETATM   10  C13 UNL     1       2.028   0.227  22.934  1.00  0.00    -0.016 C
HETATM   11  C14 UNL     1       2.742  -1.012  23.253  1.00  0.00     0.018 C
HETATM   12  C16 UNL     1       1.502   1.039  24.101  1.00  0.00     0.030 C
HETATM   13  C17 UNL     1       0.683   0.159  24.963  1.00  0.00     0.009 C
HETATM   14  C18 UNL     1       0.103   0.809  26.197  1.00  0.00     0.015 C
HETATM   15  C19 UNL     1       1.001   0.863  27.368  1.00  0.00     0.011 C
HETATM   16  C20 UNL     1       0.780   2.159  28.106  1.00  0.00     0.020 C
HETATM   17  C21 UNL     1       1.019  -0.289  28.292  1.00  0.00     0.158 C
ENDROOT
BRANCH   1  18
HETATM   18  O2  UNL     1       2.224   0.306  30.321  1.00  0.00    -0.313 OA
BRANCH  18  19
HETATM   19  C4  UNL     1       3.085  -0.082  31.343  1.00  0.00     0.262 C
HETATM   20  O1  UNL     1       4.312   0.163  31.245  1.00  0.00    -0.265 OA
BRANCH  19  21
HETATM   21  C3  UNL     1       2.608  -0.785  32.571  1.00  0.00     0.137 C
BRANCH  21  22
HETATM   22  C2  UNL     1       1.418  -0.071  33.063  1.00  0.00    -0.027 C
HETATM   23  C1  UNL     1       1.547   1.026  33.783  1.00  0.00     0.007 C
ENDBRANCH  21  22
ENDBRANCH  19  21
ENDBRANCH  18  19
ENDBRANCH   1  18
BRANCH  17  24
HETATM   24  O5  UNL     1       0.032  -0.075  29.278  1.00  0.00    -0.392 OA
ATOM     25  H5  UNL     1      -0.629  -0.743  29.140  1.00  0.00     0.210 HD
ENDBRANCH  17  24
BRANCH  10  26
HETATM   26  C15 UNL     1       0.813  -0.130  22.067  1.00  0.00     0.173 C
BRANCH  26  27
HETATM   27  O4  UNL     1       1.309  -1.053  21.132  1.00  0.00    -0.400 OA
ATOM     28  H4  UNL     1       1.480  -1.837  21.642  1.00  0.00     0.209 HD
ENDBRANCH  26  27
ENDBRANCH  10  26
TORSDOF 7
ENDMDL