MODEL 1
REMARK VINA RESULT: -7.799323537      0.000      0.000
REMARK  6 active torsions:
REMARK  status: ('A' for Active; 'I' for Inactive)
REMARK    1  A    between atoms: C2_2  and  C9_13
REMARK    2  A    between atoms: C3_3  and  C4_4
REMARK    3  A    between atoms: C4_4  and  C5_5
REMARK    4  A    between atoms: C5_5  and  O1_6
REMARK    5  A    between atoms: C5_5  and  C6_8
REMARK    6  A    between atoms: C6_8  and  O2_11
ROOT
HETATM    1  C9  UNL     1       0.955  -0.663  32.250  1.00  0.00     0.173 C
HETATM    2  C10 UNL     1       1.056  -0.497  30.767  1.00  0.00     0.013 C
HETATM    3  C11 UNL     1       0.411  -1.090  29.802  1.00  0.00    -0.062 C
HETATM    4  C12 UNL     1      -0.645  -2.137  29.918  1.00  0.00     0.017 C
HETATM    5  C13 UNL     1      -0.702  -2.644  31.317  1.00  0.00     0.035 C
HETATM    6  C14 UNL     1       0.708  -2.922  31.813  1.00  0.00     0.169 C
HETATM    7  O3  UNL     1       1.216  -1.952  32.633  1.00  0.00    -0.378 OA
HETATM    8  C15 UNL     1      -1.918  -1.501  29.423  1.00  0.00     0.010 C
HETATM    9  C16 UNL     1      -1.670  -0.134  28.830  1.00  0.00     0.013 C
HETATM   10  C17 UNL     1      -0.538  -0.078  27.855  1.00  0.00    -0.005 C
HETATM   11  C18 UNL     1      -0.936  -0.748  26.540  1.00  0.00     0.018 C
HETATM   12  C19 UNL     1      -0.155   1.353  27.657  1.00  0.00     0.189 C
HETATM   13  O4  UNL     1       1.204   1.512  28.010  1.00  0.00    -0.320 OA
HETATM   14  C20 UNL     1       1.792   0.284  28.253  1.00  0.00     0.268 C
HETATM   15  O5  UNL     1       3.022   0.097  28.314  1.00  0.00    -0.264 OA
HETATM   16  C21 UNL     1       0.734  -0.694  28.414  1.00  0.00     0.124 C
ENDROOT
BRANCH   1  17
HETATM   17  C2  UNL     1       1.822   0.318  32.934  1.00  0.00    -0.055 C
HETATM   18  C1  UNL     1       1.351   1.006  34.166  1.00  0.00     0.046 C
HETATM   19  C3  UNL     1       3.051   0.629  32.480  1.00  0.00    -0.019 C
BRANCH  19  20
HETATM   20  C4  UNL     1       3.922   1.592  33.137  1.00  0.00     0.062 C
BRANCH  20  21
HETATM   21  C5  UNL     1       4.859   2.373  32.252  1.00  0.00     0.155 C
BRANCH  21  22
HETATM   22  O1  UNL     1       5.343   1.526  31.226  1.00  0.00    -0.392 OA
ATOM     23  H1  UNL     1       5.832   0.811  31.617  1.00  0.00     0.210 HD
ENDBRANCH  21  22
BRANCH  21  24
HETATM   24  C6  UNL     1       4.199   3.548  31.614  1.00  0.00     0.076 C
HETATM   25  C7  UNL     1       5.210   4.662  31.323  1.00  0.00     0.048 C
HETATM   26  C8  UNL     1       3.148   4.170  32.517  1.00  0.00     0.048 C
BRANCH  24  27
HETATM   27  O2  UNL     1       3.580   3.273  30.410  1.00  0.00    -0.388 OA
ATOM     28  H2  UNL     1       2.705   3.633  30.325  1.00  0.00     0.210 HD
ENDBRANCH  24  27
ENDBRANCH  21  24
ENDBRANCH  20  21
ENDBRANCH  19  20
ENDBRANCH   1  17
TORSDOF 6
ENDMDL