MODEL 1
REMARK VINA RESULT: -6.575630353      0.000      0.000
REMARK  11 active torsions:
REMARK  status: ('A' for Active; 'I' for Inactive)
REMARK    1  A    between atoms: C2_2  and  C3_3
REMARK    2  A    between atoms: C3_3  and  C4_4
REMARK    3  A    between atoms: C4_4  and  C5_5
REMARK    4  A    between atoms: C5_5  and  O2_7
REMARK    5  A    between atoms: O2_7  and  C6_8
REMARK    6  A    between atoms: C12_17  and  C13_18
REMARK    7  A    between atoms: C13_18  and  O4_20
REMARK    8  A    between atoms: C16_24  and  N2_25
REMARK    9  A    between atoms: N2_25  and  C17_27
REMARK   10  A    between atoms: C17_27  and  C18_28
REMARK   11  A    between atoms: C17_27  and  C19_30
ROOT
HETATM    1  C6  UNL     1      37.744  -5.641  51.393  1.00  0.00     0.176 C
HETATM    2  C7  UNL     1      37.610  -6.711  52.453  1.00  0.00     0.155 C
HETATM    3  N1  UNL     1      38.294  -7.935  52.153  1.00  0.00    -0.385 N
ATOM      4  H1  UNL     1      38.847  -8.420  52.860  1.00  0.00     0.159 HD
HETATM    5  C8  UNL     1      38.174  -8.440  50.843  1.00  0.00     0.059 A
HETATM    6  C9  UNL     1      37.825  -7.599  49.846  1.00  0.00    -0.004 A
HETATM    7  C10 UNL     1      37.708  -8.116  48.562  1.00  0.00     0.036 A
HETATM    8  C11 UNL     1      37.930  -9.436  48.262  1.00  0.00     0.052 A
HETATM    9 CL1  UNL     1      37.778 -10.069  46.635  1.00  0.00    -0.083 Cl
HETATM   10  C12 UNL     1      38.284 -10.259  49.306  1.00  0.00     0.085 A
HETATM   11  C15 UNL     1      38.405  -9.761  50.589  1.00  0.00     0.079 A
HETATM   12 CL2  UNL     1      38.856 -10.831  51.900  1.00  0.00    -0.081 Cl
HETATM   13  C16 UNL     1      37.551  -6.143  49.990  1.00  0.00     0.144 C
ENDROOT
BRANCH  13  14
HETATM   14  N2  UNL     1      36.234  -5.939  49.464  1.00  0.00    -0.400 N
ATOM     15  H2  UNL     1      35.955  -6.383  48.590  1.00  0.00     0.154 HD
BRANCH  14  16
HETATM   16  C17 UNL     1      35.331  -5.125  50.162  1.00  0.00     0.142 C
BRANCH  16  17
HETATM   17  C18 UNL     1      35.038  -3.794  49.623  1.00  0.00     0.256 C
HETATM   18  O5  UNL     1      34.640  -2.914  50.348  1.00  0.00    -0.305 OA
ENDBRANCH  16  17
BRANCH  16  19
HETATM   19  C19 UNL     1      34.026  -5.934  50.296  1.00  0.00     0.006 C
HETATM   20  C20 UNL     1      34.341  -7.339  50.782  1.00  0.00     0.012 C
HETATM   21  C21 UNL     1      33.307  -5.963  48.970  1.00  0.00     0.012 C
ENDBRANCH  16  19
ENDBRANCH  14  16
ENDBRANCH  13  14
BRANCH   1  22
HETATM   22  O2  UNL     1      38.931  -4.895  51.551  1.00  0.00    -0.312 OA
BRANCH  22  23
HETATM   23  C5  UNL     1      38.941  -3.629  52.155  1.00  0.00     0.259 C
HETATM   24  O1  UNL     1      40.017  -3.354  52.748  1.00  0.00    -0.265 OA
BRANCH  23  25
HETATM   25  C4  UNL     1      37.783  -2.727  52.085  1.00  0.00     0.111 C
BRANCH  25  26
HETATM   26  C3  UNL     1      37.923  -1.582  51.140  1.00  0.00     0.009 C
BRANCH  26  27
HETATM   27  C2  UNL     1      36.981  -0.443  51.356  1.00  0.00    -0.004 C
HETATM   28  C1  UNL     1      36.412   0.077  50.054  1.00  0.00     0.005 C
ENDBRANCH  26  27
ENDBRANCH  25  26
ENDBRANCH  23  25
ENDBRANCH  22  23
ENDBRANCH   1  22
BRANCH  10  29
HETATM   29  C13 UNL     1      38.527 -11.664  49.025  1.00  0.00     0.296 C
HETATM   30  O3  UNL     1      37.671 -12.522  49.286  1.00  0.00    -0.259 OA
BRANCH  29  31
HETATM   31  O4  UNL     1      39.740 -12.016  48.460  1.00  0.00    -0.322 OA
HETATM   32  C14 UNL     1      40.966 -11.586  48.996  1.00  0.00     0.213 C
ENDBRANCH  29  31
ENDBRANCH  10  29
TORSDOF 11
ENDMDL