MODEL 5
REMARK VINA RESULT: -6.292123167      2.804      4.253
REMARK  12 active torsions:
REMARK  status: ('A' for Active; 'I' for Inactive)
REMARK    1  A    between atoms: C2_2  and  C4_4
REMARK    2  A    between atoms: C4_4  and  N1_5
REMARK    3  A    between atoms: C4_4  and  C10_16
REMARK       I    between atoms: N1_5  and  C5_7
REMARK    4  A    between atoms: C5_7  and  C6_9
REMARK    5  A    between atoms: C6_9  and  O2_12
REMARK    6  A    between atoms: O2_12  and  C8_13
REMARK    7  A    between atoms: C8_13  and  C9_14
REMARK    8  A    between atoms: C10_16  and  C16_26
REMARK    9  A    between atoms: C11_17  and  C12_18
REMARK   10  A    between atoms: C15_22  and  O3_23
REMARK   11  A    between atoms: C16_26  and  O6_28
REMARK   12  A    between atoms: O6_28  and  C17_29
ROOT
HETATM    1  C6  UNL     1      37.371  -2.641  51.454  1.00  0.00     0.319 C
HETATM    2  C7  UNL     1      38.660  -3.230  51.896  1.00  0.00     0.101 C
HETATM    3  N2  UNL     1      39.654  -3.699  52.231  1.00  0.00    -0.194 NA
ENDROOT
BRANCH   1   4
HETATM    4  C5  UNL     1      36.518  -3.738  50.833  1.00  0.00     0.265 C
HETATM    5  N1  UNL     1      37.009  -5.014  50.645  1.00  0.00    -0.326 N
ATOM      6  H1  UNL     1      37.977  -5.145  50.939  1.00  0.00     0.168 HD
HETATM    7  O1  UNL     1      35.360  -3.391  50.515  1.00  0.00    -0.269 OA
BRANCH   5   8
HETATM    8  C4  UNL     1      36.397  -6.160  50.117  1.00  0.00     0.032 C
BRANCH   8   9
HETATM    9  C2  UNL     1      36.485  -6.399  48.649  1.00  0.00     0.028 C
HETATM   10  C1  UNL     1      37.815  -5.961  48.086  1.00  0.00     0.016 C
HETATM   11  C3  UNL     1      35.338  -5.737  47.895  1.00  0.00     0.016 C
ENDBRANCH   8   9
BRANCH   8  12
HETATM   12  C10 UNL     1      36.641  -7.395  50.933  1.00  0.00     0.065 C
HETATM   13  C11 UNL     1      37.383  -7.294  51.988  1.00  0.00     0.057 C
BRANCH  13  14
HETATM   14  C12 UNL     1      37.785  -8.310  52.948  1.00  0.00     0.081 A
HETATM   15  C13 UNL     1      37.433  -8.224  54.305  1.00  0.00     0.066 A
HETATM   16  C14 UNL     1      37.966  -9.329  54.934  1.00  0.00     0.095 A
HETATM   17 CL2  UNL     1      37.831  -9.729  56.658  1.00  0.00    -0.079 Cl
HETATM   18  C15 UNL     1      38.618 -10.043  53.954  1.00  0.00     0.206 A
HETATM   19  O4  UNL     1      38.478  -9.406  52.833  1.00  0.00    -0.287 OA
BRANCH  18  20
HETATM   20  O3  UNL     1      39.306 -11.253  54.168  1.00  0.00    -0.339 OA
ATOM     21  H3  UNL     1      40.092 -11.340  54.694  1.00  0.00     0.220 HD
ENDBRANCH  18  20
ENDBRANCH  13  14
BRANCH  12  22
HETATM   22  C16 UNL     1      35.996  -8.592  50.497  1.00  0.00     0.296 C
HETATM   23  O5  UNL     1      34.758  -8.639  50.189  1.00  0.00    -0.259 OA
BRANCH  22  24
HETATM   24  O6  UNL     1      36.659  -9.785  50.378  1.00  0.00    -0.307 OA
BRANCH  24  25
HETATM   25  C17 UNL     1      37.455 -10.130  49.261  1.00  0.00     0.060 C
HETATM   26  C18 UNL     1      38.807  -9.421  49.310  1.00  0.00     0.046 C
HETATM   27  C19 UNL     1      37.736 -11.617  49.349  1.00  0.00     0.046 C
HETATM   28  C20 UNL     1      36.818  -9.809  47.945  1.00  0.00     0.046 C
ENDBRANCH  24  25
ENDBRANCH  22  24
ENDBRANCH  12  22
ENDBRANCH   8  12
ENDBRANCH   5   8
ENDBRANCH   1   4
BRANCH   1  29
HETATM   29  O2  UNL     1      37.690  -1.657  50.553  1.00  0.00    -0.361 OA
BRANCH  29  30
HETATM   30  C8  UNL     1      37.196  -0.402  50.876  1.00  0.00     0.185 C
BRANCH  30  31
HETATM   31  C9  UNL     1      36.258   0.143  49.838  1.00  0.00     0.141 C
HETATM   32 CL1  UNL     1      34.559  -0.153  50.296  1.00  0.00    -0.128 Cl
ENDBRANCH  30  31
ENDBRANCH  29  30
ENDBRANCH   1  29
TORSDOF 12
ENDMDL