MODEL 2
REMARK VINA RESULT: -5.912062852      2.257      3.864
REMARK  12 active torsions:
REMARK  status: ('A' for Active; 'I' for Inactive)
REMARK    1  A    between atoms: C2_2  and  N1_3
REMARK    2  A    between atoms: C4_5  and  C5_6
REMARK    3  A    between atoms: C5_6  and  C6_7
REMARK    4  A    between atoms: N2_13  and  C9_14
REMARK    5  A    between atoms: C9_14  and  C10_15
REMARK    6  A    between atoms: N4_26  and  C18_28
REMARK    7  A    between atoms: C18_28  and  C19_29
REMARK    8  A    between atoms: C18_28  and  C20_32
REMARK    9  A    between atoms: C19_29  and  O1_30
REMARK   10  A    between atoms: C20_32  and  C21_33
REMARK   11  A    between atoms: C21_33  and  C22_34
REMARK   12  A    between atoms: C22_34  and  N5_35
ROOT
HETATM    1  N1  UNL     1      35.311  -5.220  49.680  1.00  0.00    -0.366 N
HETATM    2  C3  UNL     1      36.782  -5.312  49.987  1.00  0.00     0.134 C
HETATM    3  C4  UNL     1      36.893  -6.714  50.460  1.00  0.00     0.051 C
HETATM    4  C7  UNL     1      35.934  -7.362  49.506  1.00  0.00     0.020 A
HETATM    5  C8  UNL     1      34.972  -6.475  49.105  1.00  0.00     0.116 A
HETATM    6  N2  UNL     1      33.969  -6.791  48.249  1.00  0.00    -0.317 N
HETATM    7  C13 UNL     1      33.914  -8.081  47.741  1.00  0.00     0.129 A
HETATM    8  N3  UNL     1      33.026  -8.516  46.890  1.00  0.00    -0.339 N
ATOM      9  H3  UNL     1      32.294  -7.881  46.571  1.00  0.00     0.168 HD
HETATM   10  C14 UNL     1      33.047  -9.738  46.436  1.00  0.00     0.049 A
HETATM   11  C15 UNL     1      32.127 -10.429  45.465  1.00  0.00     0.076 C
HETATM   12  S1  UNL     1      34.405 -10.376  47.237  1.00  0.00    -0.071 SA
HETATM   13  C16 UNL     1      34.874  -8.986  48.131  1.00  0.00     0.078 A
HETATM   14  C17 UNL     1      35.910  -8.655  49.023  1.00  0.00     0.060 A
HETATM   15  N4  UNL     1      36.745  -9.515  49.338  1.00  0.00    -0.381 N
ATOM     16  H4  UNL     1      37.437  -9.141  49.988  1.00  0.00     0.160 HD
ENDROOT
BRANCH  15  17
HETATM   17  C18 UNL     1      37.000 -10.870  49.042  1.00  0.00     0.105 C
BRANCH  17  18
HETATM   18  C19 UNL     1      36.930 -11.760  50.278  1.00  0.00     0.189 C
BRANCH  18  19
HETATM   19  O1  UNL     1      35.595 -11.757  50.742  1.00  0.00    -0.399 OA
ATOM     20  H1  UNL     1      35.488 -11.009  51.318  1.00  0.00     0.209 HD
ENDBRANCH  18  19
ENDBRANCH  17  18
BRANCH  17  21
HETATM   21  C20 UNL     1      38.435 -10.937  48.480  1.00  0.00     0.029 C
BRANCH  21  22
HETATM   22  C21 UNL     1      39.465 -10.491  49.478  1.00  0.00     0.029 C
BRANCH  22  23
HETATM   23  C22 UNL     1      40.679 -11.367  49.470  1.00  0.00     0.230 C
BRANCH  23  24
HETATM   24  N5  UNL     1      41.910 -10.593  49.479  1.00  0.00    -0.079 N
ATOM     25  H53 UNL     1      42.677 -11.112  49.050  1.00  0.00     0.274 HD
ATOM     26  H52 UNL     1      41.860  -9.811  48.825  1.00  0.00     0.274 HD
ATOM     27  H51 UNL     1      42.157 -10.276  50.416  1.00  0.00     0.274 HD
ENDBRANCH  23  24
ENDBRANCH  22  23
ENDBRANCH  21  22
ENDBRANCH  17  21
ENDBRANCH  15  17
BRANCH   3  28
HETATM   28  C5  UNL     1      36.569  -7.036  51.860  1.00  0.00     0.128 C
BRANCH  28  29
HETATM   29  C6  UNL     1      37.433  -8.094  52.459  1.00  0.00     0.388 C
HETATM   30  F1  UNL     1      38.659  -8.249  51.929  1.00  0.00    -0.171 F
HETATM   31  F2  UNL     1      36.790  -9.345  52.418  1.00  0.00    -0.171 F
HETATM   32  F3  UNL     1      37.568  -7.854  53.837  1.00  0.00    -0.171 F
ENDBRANCH  28  29
ENDBRANCH   3  28
BRANCH   1  33
HETATM   33  C2  UNL     1      34.590  -4.055  49.958  1.00  0.00     0.120 C
HETATM   34  C1  UNL     1      35.489  -2.858  50.360  1.00  0.00     0.026 C
ENDBRANCH   1  33
BRANCH   6  35
HETATM   35  C9  UNL     1      32.983  -5.829  47.934  1.00  0.00     0.136 C
BRANCH  35  36
HETATM   36  C10 UNL     1      33.076  -5.125  46.610  1.00  0.00    -0.004 C
HETATM   37  C11 UNL     1      31.824  -5.410  45.784  1.00  0.00     0.011 C
HETATM   38  C12 UNL     1      33.178  -3.620  46.668  1.00  0.00     0.011 C
ENDBRANCH  35  36
ENDBRANCH   6  35
TORSDOF 12
ENDMDL