MODEL 2
REMARK VINA RESULT: -6.021318436      2.277      5.768
REMARK  9 active torsions:
REMARK  status: ('A' for Active; 'I' for Inactive)
REMARK    1  A    between atoms: O1_2  and  N1_3
REMARK    2  A    between atoms: C2_5  and  C3_6
REMARK    3  A    between atoms: C2_5  and  C19_30
REMARK    4  A    between atoms: C4_7  and  O2_8
REMARK    5  A    between atoms: C7_11  and  O3_12
REMARK    6  A    between atoms: C9_14  and  C10_15
REMARK    7  A    between atoms: C11_16  and  C12_17
REMARK    8  A    between atoms: C13_20  and  O6_21
REMARK    9  A    between atoms: O6_21  and  C14_22
ROOT
HETATM    1  C3  UNL     1      36.570  -5.527  49.886  1.00  0.00     0.059 A
HETATM    2  C4  UNL     1      37.063  -4.552  50.684  1.00  0.00     0.086 A
HETATM    3  C6  UNL     1      36.357  -3.338  50.714  1.00  0.00     0.075 A
HETATM    4  C7  UNL     1      35.216  -3.143  49.969  1.00  0.00     0.084 A
HETATM    5  C9  UNL     1      34.703  -4.115  49.150  1.00  0.00     0.032 A
HETATM    6  C13 UNL     1      35.411  -5.330  49.110  1.00  0.00     0.099 A
ENDROOT
BRANCH   1   7
HETATM    7  C2  UNL     1      37.103  -6.902  49.939  1.00  0.00     0.086 C
HETATM    8  N1  UNL     1      37.710  -7.332  48.886  1.00  0.00    -0.267 N
ATOM      9  H1  UNL     1      37.748  -6.653  48.125  1.00  0.00     0.194 HD
BRANCH   8  10
HETATM   10  O1  UNL     1      38.279  -8.464  48.611  1.00  0.00    -0.285 OA
HETATM   11  C1  UNL     1      37.926  -9.184  47.436  1.00  0.00     0.237 C
ENDBRANCH   8  10
BRANCH   7  12
HETATM   12  C19 UNL     1      36.988  -7.869  51.030  1.00  0.00     0.154 C
HETATM   13  C20 UNL     1      38.115  -7.912  52.012  1.00  0.00     0.057 C
HETATM   14 CL1  UNL     1      35.547  -7.459  52.105  1.00  0.00    -0.095 Cl
HETATM   15 CL2  UNL     1      36.584  -9.527  50.510  1.00  0.00    -0.095 Cl
ENDBRANCH   7  12
ENDBRANCH   1   7
BRANCH   2  16
HETATM   16  O2  UNL     1      38.201  -4.633  51.471  1.00  0.00    -0.355 OA
HETATM   17  C5  UNL     1      38.655  -3.548  52.253  1.00  0.00     0.210 C
ENDBRANCH   2  16
BRANCH   6  18
HETATM   18  O6  UNL     1      34.913  -6.296  48.234  1.00  0.00    -0.316 OA
BRANCH  18  19
HETATM   19  C14 UNL     1      33.939  -7.238  48.660  1.00  0.00     0.327 C
HETATM   20  C15 UNL     1      34.228  -8.616  48.138  1.00  0.00     0.062 C
HETATM   21  C16 UNL     1      33.439  -9.591  49.016  1.00  0.00     0.006 C
HETATM   22  C17 UNL     1      31.999  -9.199  49.057  1.00  0.00     0.028 C
HETATM   23  C18 UNL     1      31.753  -8.053  48.090  1.00  0.00     0.235 C
HETATM   24  N2  UNL     1      32.563  -6.899  48.387  1.00  0.00    -0.048 N
ATOM     25  H22 UNL     1      32.161  -6.357  49.153  1.00  0.00     0.280 HD
ATOM     26  H21 UNL     1      32.498  -6.205  47.643  1.00  0.00     0.280 HD
ENDBRANCH  18  19
ENDBRANCH   6  18
BRANCH   5  27
HETATM   27  C10 UNL     1      33.481  -3.964  48.373  1.00  0.00     0.024 C
HETATM   28  C11 UNL     1      33.385  -3.458  47.192  1.00  0.00     0.085 C
BRANCH  28  29
HETATM   29  C12 UNL     1      32.004  -3.416  46.611  1.00  0.00     0.198 C
HETATM   30  O4  UNL     1      31.413  -4.483  46.411  1.00  0.00    -0.645 OA
HETATM   31  O5  UNL     1      31.388  -2.228  46.300  1.00  0.00    -0.645 OA
ENDBRANCH  28  29
ENDBRANCH   5  27
BRANCH   4  32
HETATM   32  O3  UNL     1      34.579  -1.914  50.066  1.00  0.00    -0.355 OA
HETATM   33  C8  UNL     1      35.338  -0.764  50.341  1.00  0.00     0.210 C
ENDBRANCH   4  32
TORSDOF 9
ENDMDL