MODEL 4
REMARK VINA RESULT: -6.454513062      2.154      5.265
REMARK  10 active torsions:
REMARK  status: ('A' for Active; 'I' for Inactive)
REMARK    1  A    between atoms: O1_2  and  C2_3
REMARK    2  A    between atoms: C2_3  and  C4_5
REMARK    3  A    between atoms: C4_5  and  N1_6
REMARK    4  A    between atoms: C4_5  and  C12_21
REMARK    5  A    between atoms: N1_6  and  C5_8
REMARK    6  A    between atoms: C5_8  and  C6_9
REMARK    7  A    between atoms: C6_9  and  N2_10
REMARK    8  A    between atoms: C9_14  and  O2_15
REMARK    9  A    between atoms: C15_24  and  S1_25
REMARK   10  A    between atoms: S1_25  and  C16_26
ROOT
HETATM    1  C4  UNL     1      32.829  -8.136  47.258  1.00  0.00     0.140 C
ENDROOT
BRANCH   1   2
HETATM    2  C2  UNL     1      31.720  -7.477  46.524  1.00  0.00     0.143 C
HETATM    3  C3  UNL     1      30.373  -7.755  47.250  1.00  0.00     0.042 C
BRANCH   2   4
HETATM    4  O1  UNL     1      31.594  -7.978  45.234  1.00  0.00    -0.389 OA
HETATM    5  C1  UNL     1      31.325  -6.962  44.307  1.00  0.00     0.202 C
ENDBRANCH   2   4
ENDBRANCH   1   2
BRANCH   1   6
HETATM    6  N1  UNL     1      33.750  -8.920  46.513  1.00  0.00    -0.409 N
ATOM      7  H1  UNL     1      34.143  -8.522  45.661  1.00  0.00     0.154 HD
BRANCH   6   8
HETATM    8  C5  UNL     1      34.141 -10.195  46.883  1.00  0.00     0.134 C
BRANCH   8   9
HETATM    9  C6  UNL     1      35.559 -10.494  46.310  1.00  0.00     0.140 C
BRANCH   9  10
HETATM   10  N2  UNL     1      36.436  -9.415  46.595  1.00  0.00    -0.372 N
HETATM   11  C7  UNL     1      37.212  -9.231  47.572  1.00  0.00     0.125 C
HETATM   12  C8  UNL     1      37.430 -10.114  48.727  1.00  0.00     0.116 C
HETATM   13  O4  UNL     1      37.964  -8.039  47.562  1.00  0.00    -0.266 OA
HETATM   14  C9  UNL     1      37.300  -9.245  49.976  1.00  0.00     0.135 C
HETATM   15  C10 UNL     1      38.400  -8.226  50.022  1.00  0.00     0.143 C
HETATM   16  C11 UNL     1      38.457  -7.490  48.754  1.00  0.00     0.267 C
HETATM   17  O3  UNL     1      38.971  -6.330  48.760  1.00  0.00    -0.265 OA
ATOM     18  H2  UNL     1      36.439  -8.670  45.898  1.00  0.00     0.161 HD
BRANCH  14  19
HETATM   19  O2  UNL     1      37.372 -10.091  51.088  1.00  0.00    -0.395 OA
ATOM     20  H2  UNL     1      38.224  -9.964  51.491  1.00  0.00     0.210 HD
ENDBRANCH  14  19
ENDBRANCH   9  10
ENDBRANCH   8   9
ENDBRANCH   6   8
ENDBRANCH   1   6
BRANCH   1  21
HETATM   21  C12 UNL     1      33.727  -7.138  47.978  1.00  0.00    -0.012 A
HETATM   22  C13 UNL     1      34.235  -6.026  47.380  1.00  0.00     0.012 A
HETATM   23  C14 UNL     1      35.097  -5.166  48.053  1.00  0.00     0.019 A
HETATM   24  C15 UNL     1      35.474  -5.418  49.381  1.00  0.00     0.002 A
HETATM   25  C21 UNL     1      34.948  -6.536  49.949  1.00  0.00     0.043 A
HETATM   26  C22 UNL     1      34.091  -7.402  49.297  1.00  0.00     0.043 A
HETATM   27 CL1  UNL     1      33.410  -8.819  50.054  1.00  0.00    -0.084 Cl
BRANCH  24  28
HETATM   28  S1  UNL     1      36.563  -4.294  50.198  1.00  0.00    -0.125 SA
BRANCH  28  29
HETATM   29  C16 UNL     1      35.854  -2.775  50.765  1.00  0.00     0.052 C
HETATM   30  C17 UNL     1      36.934  -1.706  50.811  1.00  0.00     0.015 C
HETATM   31  C18 UNL     1      36.203  -0.411  50.591  1.00  0.00     0.001 C
HETATM   32  C19 UNL     1      34.858  -0.731  49.997  1.00  0.00     0.001 C
HETATM   33  C20 UNL     1      34.695  -2.236  50.006  1.00  0.00     0.015 C
ENDBRANCH  28  29
ENDBRANCH  24  28
ENDBRANCH   1  21
TORSDOF 10
ENDMDL