MODEL 3
REMARK VINA RESULT: -6.376974780      4.749      7.182
REMARK  13 active torsions:
REMARK  status: ('A' for Active; 'I' for Inactive)
REMARK    1  A    between atoms: C2_2  and  N1_3
REMARK    2  A    between atoms: N1_3  and  C3_5
REMARK    3  A    between atoms: C3_5  and  O2_10
REMARK    4  A    between atoms: N2_6  and  O1_8
REMARK    5  A    between atoms: O2_10  and  C4_11
REMARK    6  A    between atoms: C4_11  and  O3_12
REMARK    7  A    between atoms: C4_11  and  C5_14
REMARK    8  A    between atoms: C7_16  and  C8_17
REMARK    9  A    between atoms: C9_18  and  C10_19
REMARK   10  A    between atoms: C10_19  and  S1_31
REMARK   11  A    between atoms: C11_20  and  C12_21
REMARK   12  A    between atoms: C12_21  and  O4_22
REMARK   13  A    between atoms: O4_22  and  C13_23
ROOT
HETATM    1  C8  UNL     1      37.926  -8.967  53.177  1.00  0.00     0.002 C
HETATM    2  C9  UNL     1      37.711  -8.088  52.249  1.00  0.00     0.021 C
ENDROOT
BRANCH   1   3
HETATM    3  C7  UNL     1      38.607 -10.230  53.193  1.00  0.00     0.007 C
HETATM    4  C5  UNL     1      39.313 -10.715  54.196  1.00  0.00    -0.029 C
HETATM    5  C6  UNL     1      39.994 -12.046  53.926  1.00  0.00     0.048 C
BRANCH   4   6
HETATM    6  C4  UNL     1      39.554 -10.093  55.498  1.00  0.00     0.296 C
BRANCH   6   7
HETATM    7  O2  UNL     1      40.414  -8.962  55.219  1.00  0.00    -0.285 OA
BRANCH   7   8
HETATM    8  C3  UNL     1      41.708  -8.964  55.699  1.00  0.00     0.241 C
HETATM    9  N2  UNL     1      41.851  -8.605  56.940  1.00  0.00    -0.233 N
ATOM     10  H2  UNL     1      41.010  -8.351  57.458  1.00  0.00     0.198 HD
BRANCH   8  11
HETATM   11  N1  UNL     1      42.830  -9.334  54.910  1.00  0.00    -0.355 N
ATOM     12  H1  UNL     1      43.408  -8.602  54.499  1.00  0.00     0.163 HD
BRANCH  11  13
HETATM   13  C2  UNL     1      43.178 -10.711  54.673  1.00  0.00     0.118 C
HETATM   14  C1  UNL     1      44.018 -11.311  55.776  1.00  0.00     0.026 C
ENDBRANCH  11  13
ENDBRANCH   8  11
BRANCH   9  15
HETATM   15  O1  UNL     1      43.035  -8.543  57.597  1.00  0.00    -0.287 OA
ATOM     16  H1  UNL     1      43.822  -8.133  57.258  1.00  0.00     0.244 HD
ENDBRANCH   9  15
ENDBRANCH   7   8
ENDBRANCH   6   7
BRANCH   6  17
HETATM   17  O3  UNL     1      40.315 -10.881  56.378  1.00  0.00    -0.367 OA
ATOM     18  H3  UNL     1      39.751 -11.622  56.563  1.00  0.00     0.213 HD
ENDBRANCH   6  17
ENDBRANCH   4   6
ENDBRANCH   1   3
BRANCH   2  19
HETATM   19  C10 UNL     1      38.060  -8.045  50.872  1.00  0.00     0.029 C
HETATM   20  C11 UNL     1      38.222  -6.848  50.245  1.00  0.00     0.020 C
BRANCH  20  21
HETATM   21  C12 UNL     1      38.060  -5.561  50.886  1.00  0.00     0.204 C
BRANCH  21  22
HETATM   22  O4  UNL     1      36.770  -5.061  50.761  1.00  0.00    -0.346 OA
BRANCH  22  23
HETATM   23  C13 UNL     1      36.317  -3.791  50.654  1.00  0.00     0.092 A
HETATM   24  C14 UNL     1      36.947  -2.656  51.101  1.00  0.00     0.062 A
HETATM   25  C15 UNL     1      36.428  -1.372  50.960  1.00  0.00     0.036 A
HETATM   26 CL1  UNL     1      37.270   0.042  51.549  1.00  0.00    -0.084 Cl
HETATM   27  C16 UNL     1      35.213  -1.190  50.338  1.00  0.00     0.026 A
HETATM   28  C17 UNL     1      34.560  -2.307  49.881  1.00  0.00     0.028 A
HETATM   29  C18 UNL     1      35.079  -3.572  50.025  1.00  0.00     0.067 A
HETATM   30 CL2  UNL     1      34.217  -4.964  49.432  1.00  0.00    -0.081 Cl
ENDBRANCH  22  23
ENDBRANCH  21  22
ENDBRANCH  20  21
BRANCH  19  31
HETATM   31  S1  UNL     1      38.086  -9.399  49.773  1.00  0.00     0.045 S
HETATM   32  C19 UNL     1      36.699 -10.425  49.758  1.00  0.00     0.133 C
HETATM   33  O5  UNL     1      39.563 -10.064  49.575  1.00  0.00    -0.253 OA
ENDBRANCH  19  31
ENDBRANCH   2  19
TORSDOF 13
ENDMDL