MODEL 5
REMARK VINA RESULT: -6.487981274      3.123      4.038
REMARK  11 active torsions:
REMARK  status: ('A' for Active; 'I' for Inactive)
REMARK    1  A    between atoms: C3_5  and  N2_6
REMARK    2  A    between atoms: C4_10  and  S2_11
REMARK    3  A    between atoms: S2_11  and  C5_12
REMARK    4  A    between atoms: C5_12  and  C6_13
REMARK    5  A    between atoms: C5_12  and  C7_16
REMARK    6  A    between atoms: C7_16  and  N3_18
REMARK    7  A    between atoms: C12_22  and  C13_23
REMARK    8  A    between atoms: C13_23  and  C14_24
REMARK    9  A    between atoms: C14_24  and  C15_25
REMARK   10  A    between atoms: C15_25  and  O2_27
REMARK   11  A    between atoms: O2_27  and  C16_28
ROOT
HETATM    1  C16 UNL     1      41.717  -9.957  56.618  1.00  0.00     0.151 C
HETATM    2  C17 UNL     1      42.495  -9.246  55.522  1.00  0.00     0.063 C
HETATM    3  C18 UNL     1      41.639 -11.417  56.238  1.00  0.00     0.063 C
HETATM    4  C19 UNL     1      42.457  -9.805  57.887  1.00  0.00     0.097 C
HETATM    5  N4  UNL     1      43.047  -9.668  58.882  1.00  0.00    -0.194 NA
ENDROOT
BRANCH   1   6
HETATM    6  O2  UNL     1      40.476  -9.339  56.753  1.00  0.00    -0.296 OA
BRANCH   6   7
HETATM    7  C15 UNL     1      39.299  -9.818  56.210  1.00  0.00     0.260 C
HETATM    8  O1  UNL     1      38.693 -10.733  56.820  1.00  0.00    -0.265 OA
BRANCH   7   9
HETATM    9  C14 UNL     1      38.747  -9.282  54.939  1.00  0.00     0.115 C
BRANCH   9  10
HETATM   10  C13 UNL     1      38.904 -10.359  53.880  1.00  0.00     0.045 C
BRANCH  10  11
HETATM   11  C12 UNL     1      38.315  -9.902  52.582  1.00  0.00    -0.055 C
HETATM   12  C11 UNL     1      38.372 -10.714  51.532  1.00  0.00    -0.021 C
HETATM   13  C10 UNL     1      37.796 -10.275  50.244  1.00  0.00     0.058 C
HETATM   14  C9  UNL     1      36.715  -9.258  50.498  1.00  0.00     0.277 C
HETATM   15  N3  UNL     1      37.204  -8.166  51.267  1.00  0.00     0.098 N
HETATM   16  C20 UNL     1      37.699  -8.554  52.557  1.00  0.00     0.307 C
BRANCH  15  17
HETATM   17  C7  UNL     1      36.347  -7.013  51.331  1.00  0.00     0.238 C
HETATM   18  C8  UNL     1      35.081  -7.369  52.144  1.00  0.00     0.044 C
BRANCH  17  19
HETATM   19  C5  UNL     1      35.869  -6.597  49.985  1.00  0.00     0.151 C
BRANCH  19  20
HETATM   20  S2  UNL     1      34.189  -5.837  50.114  1.00  0.00    -0.108 SA
BRANCH  20  21
HETATM   21  C4  UNL     1      33.533  -5.896  48.433  1.00  0.00     0.067 A
HETATM   22  C2  UNL     1      33.444  -4.882  47.514  1.00  0.00     0.031 A
HETATM   23  C1  UNL     1      33.945  -3.494  47.897  1.00  0.00     0.070 C
HETATM   24  N1  UNL     1      32.928  -5.161  46.350  1.00  0.00    -0.339 N
HETATM   25  C3  UNL     1      32.516  -6.405  46.111  1.00  0.00     0.143 A
ATOM     26  H1  UNL     1      32.840  -4.439  45.635  1.00  0.00     0.168 HD
HETATM   27  S1  UNL     1      32.866  -7.214  47.572  1.00  0.00    -0.045 SA
BRANCH  25  28
HETATM   28  N2  UNL     1      31.974  -6.893  45.017  1.00  0.00    -0.380 N
ATOM     29  H22 UNL     1      30.988  -6.928  44.760  1.00  0.00     0.158 HD
ATOM     30  H21 UNL     1      32.436  -7.330  44.220  1.00  0.00     0.158 HD
ENDBRANCH  25  28
ENDBRANCH  20  21
ENDBRANCH  19  20
BRANCH  19  31
HETATM   31  C6  UNL     1      36.819  -5.568  49.402  1.00  0.00     0.369 C
HETATM   32  F1  UNL     1      36.847  -5.596  48.025  1.00  0.00    -0.213 F
HETATM   33  F2  UNL     1      36.608  -4.321  49.931  1.00  0.00    -0.213 F
ENDBRANCH  19  31
ENDBRANCH  17  19
ENDBRANCH  15  17
ENDBRANCH  10  11
ENDBRANCH   9  10
ENDBRANCH   7   9
ENDBRANCH   6   7
ENDBRANCH   1   6
TORSDOF 11
ENDMDL