MODEL 3
REMARK VINA RESULT: -7.285578735      5.483      9.021
REMARK  11 active torsions:
REMARK  status: ('A' for Active; 'I' for Inactive)
REMARK    1  A    between atoms: C2_2  and  C4_4
REMARK    2  A    between atoms: C4_4  and  C5_5
REMARK    3  A    between atoms: C5_5  and  O1_6
REMARK    4  A    between atoms: C5_5  and  C6_8
REMARK    5  A    between atoms: C6_8  and  O2_9
REMARK    6  A    between atoms: O2_9  and  C7_10
REMARK    7  A    between atoms: N1_16  and  C13_17
REMARK    8  A    between atoms: C18_24  and  C19_25
REMARK    9  A    between atoms: C19_25  and  O3_28
REMARK   10  A    between atoms: N3_30  and  C22_31
REMARK   11  A    between atoms: C22_31  and  C23_32
ROOT
HETATM    1  C13 UNL     1      35.153  -6.296  48.010  1.00  0.00     0.121 A
HETATM    2  C14 UNL     1      34.776  -7.552  47.592  1.00  0.00     0.138 A
HETATM    3  N2  UNL     1      33.572  -7.812  47.035  1.00  0.00    -0.347 N
ATOM      4  H2  UNL     1      33.339  -8.762  46.741  1.00  0.00     0.167 HD
HETATM    5  C15 UNL     1      32.680  -6.816  46.869  1.00  0.00     0.135 A
HETATM    6  C16 UNL     1      33.011  -5.552  47.268  1.00  0.00     0.080 A
HETATM    7  C17 UNL     1      31.901  -4.790  46.957  1.00  0.00     0.061 A
HETATM    8  C18 UNL     1      30.942  -5.618  46.383  1.00  0.00     0.049 A
HETATM    9  N3  UNL     1      31.432  -6.846  46.338  1.00  0.00    -0.327 N
HETATM   10  N4  UNL     1      34.200  -5.326  47.812  1.00  0.00    -0.338 N
ATOM     11  H4  UNL     1      34.421  -4.374  48.101  1.00  0.00     0.167 HD
ENDROOT
BRANCH   1  12
HETATM   12  N1  UNL     1      36.386  -5.957  48.614  1.00  0.00    -0.339 N
HETATM   13  C7  UNL     1      36.422  -5.382  49.911  1.00  0.00     0.224 C
HETATM   14  C8  UNL     1      37.008  -6.317  50.956  1.00  0.00     0.054 C
HETATM   15  C9  UNL     1      38.063  -7.225  50.386  1.00  0.00     0.004 C
HETATM   16  C10 UNL     1      37.538  -8.201  49.387  1.00  0.00     0.002 C
HETATM   17  C11 UNL     1      37.813  -7.744  47.967  1.00  0.00     0.020 C
HETATM   18  C12 UNL     1      37.527  -6.298  47.722  1.00  0.00     0.127 C
BRANCH  13  19
HETATM   19  O2  UNL     1      37.134  -4.167  49.905  1.00  0.00    -0.364 OA
BRANCH  19  20
HETATM   20  C6  UNL     1      37.147  -3.472  51.064  1.00  0.00     0.202 C
BRANCH  20  21
HETATM   21  C5  UNL     1      37.679  -2.067  51.012  1.00  0.00     0.142 C
BRANCH  21  22
HETATM   22  C4  UNL     1      36.741  -1.134  51.764  1.00  0.00     0.037 C
BRANCH  22  23
HETATM   23  C2  UNL     1      36.045  -0.182  50.825  1.00  0.00    -0.020 C
HETATM   24  C1  UNL     1      34.765  -0.840  50.358  1.00  0.00     0.009 C
HETATM   25  C3  UNL     1      36.886   0.192  49.637  1.00  0.00     0.009 C
ENDBRANCH  22  23
ENDBRANCH  21  22
BRANCH  21  26
HETATM   26  O1  UNL     1      38.959  -2.064  51.554  1.00  0.00    -0.393 OA
ATOM     27  H1  UNL     1      38.976  -2.437  52.427  1.00  0.00     0.210 HD
ENDBRANCH  21  26
ENDBRANCH  20  21
ENDBRANCH  19  20
ENDBRANCH  13  19
ENDBRANCH   1  12
BRANCH   9  28
HETATM   28  C22 UNL     1      30.774  -8.025  45.815  1.00  0.00     0.201 C
BRANCH  28  29
HETATM   29  C23 UNL     1      31.092  -8.271  44.355  1.00  0.00     0.371 C
HETATM   30  F1  UNL     1      32.002  -9.340  44.352  1.00  0.00    -0.213 F
HETATM   31  F2  UNL     1      31.775  -7.181  43.861  1.00  0.00    -0.213 F
ENDBRANCH  28  29
ENDBRANCH   9  28
BRANCH   8  32
HETATM   32  C19 UNL     1      29.640  -5.087  45.925  1.00  0.00     0.093 C
HETATM   33  C20 UNL     1      29.652  -3.584  46.177  1.00  0.00     0.052 C
HETATM   34  C21 UNL     1      28.429  -5.609  46.605  1.00  0.00     0.052 C
BRANCH  32  35
HETATM   35  O3  UNL     1      29.529  -5.193  44.513  1.00  0.00    -0.384 OA
ATOM     36  H3  UNL     1      28.951  -4.520  44.173  1.00  0.00     0.211 HD
ENDBRANCH  32  35
ENDBRANCH   8  32
TORSDOF 11
ENDMDL