MODEL 5
REMARK VINA RESULT: -7.128022021      2.675      4.881
REMARK  10 active torsions:
REMARK  status: ('A' for Active; 'I' for Inactive)
REMARK    1  A    between atoms: C2_2  and  C3_3
REMARK    2  A    between atoms: C3_3  and  O1_4
REMARK    3  A    between atoms: C3_3  and  C4_6
REMARK    4  A    between atoms: C4_6  and  S1_7
REMARK    5  A    between atoms: S1_7  and  C5_8
REMARK    6  A    between atoms: C7_10  and  O2_11
REMARK    7  A    between atoms: O2_11  and  C8_12
REMARK    8  A    between atoms: C15_22  and  O4_23
REMARK    9  A    between atoms: O4_23  and  C16_24
REMARK   10  A    between atoms: C16_24  and  C18_26
ROOT
HETATM    1  C5  UNL     1      37.100  -7.092  51.059  1.00  0.00     0.038 A
HETATM    2  C6  UNL     1      37.459  -5.730  51.047  1.00  0.00     0.058 A
HETATM    3  C7  UNL     1      36.744  -4.806  50.317  1.00  0.00     0.072 A
HETATM    4  C13 UNL     1      35.659  -5.233  49.591  1.00  0.00     0.063 A
HETATM    5  C14 UNL     1      35.283  -6.559  49.584  1.00  0.00     0.071 A
HETATM    6 CL1  UNL     1      33.862  -7.043  48.706  1.00  0.00    -0.081 Cl
HETATM    7  C15 UNL     1      36.015  -7.497  50.325  1.00  0.00     0.108 A
ENDROOT
BRANCH   7   8
HETATM    8  O4  UNL     1      35.626  -8.812  50.308  1.00  0.00    -0.341 OA
BRANCH   8   9
HETATM    9  C16 UNL     1      35.803  -9.665  49.221  1.00  0.00     0.156 C
HETATM   10  C17 UNL     1      35.363 -11.115  49.496  1.00  0.00     0.042 C
BRANCH   9  11
HETATM   11  C18 UNL     1      37.195  -9.810  48.708  1.00  0.00     0.180 C
HETATM   12  C19 UNL     1      37.370  -9.151  47.345  1.00  0.00     0.160 C
HETATM   13  N1  UNL     1      38.574  -9.813  46.857  1.00  0.00    -0.334 N
HETATM   14  C20 UNL     1      38.746 -11.001  47.618  1.00  0.00     0.361 C
ATOM     15  H1  UNL     1      39.182  -9.484  46.107  1.00  0.00     0.164 HD
HETATM   16  O5  UNL     1      39.664 -11.855  47.517  1.00  0.00    -0.239 OA
HETATM   17  O6  UNL     1      37.711 -11.062  48.505  1.00  0.00    -0.294 OA
ENDBRANCH   9  11
ENDBRANCH   8   9
ENDBRANCH   7   8
BRANCH   1  18
HETATM   18  S1  UNL     1      38.009  -8.249  52.042  1.00  0.00    -0.124 SA
BRANCH  18  19
HETATM   19  C4  UNL     1      37.487  -8.375  53.743  1.00  0.00     0.111 C
BRANCH  19  20
HETATM   20  C3  UNL     1      38.450  -9.291  54.462  1.00  0.00     0.127 C
BRANCH  20  21
HETATM   21  C2  UNL     1      38.210  -9.334  55.945  1.00  0.00     0.028 C
HETATM   22  C1  UNL     1      39.181 -10.196  56.687  1.00  0.00     0.007 C
ENDBRANCH  20  21
BRANCH  20  23
HETATM   23  O1  UNL     1      39.768  -8.977  54.212  1.00  0.00    -0.395 OA
ATOM     24  H1  UNL     1      39.818  -8.320  53.528  1.00  0.00     0.210 HD
ENDBRANCH  20  23
ENDBRANCH  19  20
ENDBRANCH  18  19
ENDBRANCH   1  18
BRANCH   3  25
HETATM   25  O2  UNL     1      37.125  -3.510  50.334  1.00  0.00    -0.346 OA
BRANCH  25  26
HETATM   26  C8  UNL     1      36.448  -2.369  50.779  1.00  0.00     0.136 C
HETATM   27  C9  UNL     1      37.291  -1.142  50.923  1.00  0.00     0.059 C
HETATM   28  C10 UNL     1      36.623   0.134  50.573  1.00  0.00     0.173 C
HETATM   29  O3  UNL     1      35.679   0.084  49.583  1.00  0.00    -0.357 OA
HETATM   30  C11 UNL     1      34.678  -0.780  49.977  1.00  0.00     0.309 C
HETATM   31  F1  UNL     1      34.224  -0.458  51.244  1.00  0.00    -0.220 F
HETATM   32  C12 UNL     1      35.181  -2.200  50.030  1.00  0.00     0.098 C
ENDBRANCH  25  26
ENDBRANCH   3  25
TORSDOF 10
ENDMDL