MODEL 3
REMARK VINA RESULT: -7.171642824      4.871      8.802
REMARK  11 active torsions:
REMARK  status: ('A' for Active; 'I' for Inactive)
REMARK    1  A    between atoms: O1_2  and  C2_3
REMARK    2  A    between atoms: C4_5  and  C5_6
REMARK    3  A    between atoms: C6_7  and  C7_8
REMARK    4  A    between atoms: C9_10  and  O2_11
REMARK    5  A    between atoms: O2_11  and  C10_12
REMARK    6  A    between atoms: C14_16  and  O3_17
REMARK    7  A    between atoms: C15_19  and  O4_20
REMARK    8  A    between atoms: C18_24  and  O5_25
REMARK    9  A    between atoms: O5_25  and  C19_26
REMARK   10  A    between atoms: C21_30  and  O6_31
REMARK   11  A    between atoms: C23_33  and  O7_34
ROOT
HETATM    1  C7  UNL     1      33.682  -5.780  47.357  1.00  0.00     0.000 A
HETATM    2  C8  UNL     1      33.159  -7.078  47.506  1.00  0.00     0.051 A
HETATM    3  C9  UNL     1      32.159  -7.558  46.697  1.00  0.00     0.070 A
HETATM    4  C16 UNL     1      31.672  -6.735  45.721  1.00  0.00     0.039 A
HETATM    5  C17 UNL     1      32.171  -5.460  45.558  1.00  0.00     0.040 A
HETATM    6  C18 UNL     1      33.185  -4.950  46.367  1.00  0.00     0.085 A
ENDROOT
BRANCH   1   7
HETATM    7  C6  UNL     1      34.723  -5.399  48.265  1.00  0.00     0.015 C
HETATM    8  C5  UNL     1      34.654  -4.708  49.358  1.00  0.00     0.012 C
BRANCH   8   9
HETATM    9  C4  UNL     1      35.815  -4.380  50.215  1.00  0.00    -0.031 A
HETATM   10  C3  UNL     1      36.684  -5.370  50.637  1.00  0.00     0.051 A
HETATM   11  C2  UNL     1      37.783  -5.142  51.433  1.00  0.00     0.105 A
HETATM   12  C23 UNL     1      38.005  -3.841  51.819  1.00  0.00     0.135 A
HETATM   13  C21 UNL     1      37.197  -2.798  51.450  1.00  0.00     0.105 A
HETATM   14  C20 UNL     1      36.095  -3.108  50.637  1.00  0.00     0.051 A
BRANCH  11  15
HETATM   15  O1  UNL     1      38.637  -6.157  51.838  1.00  0.00    -0.353 OA
HETATM   16  C1  UNL     1      38.270  -7.486  51.512  1.00  0.00     0.210 C
ENDBRANCH  11  15
BRANCH  12  17
HETATM   17  O7  UNL     1      39.108  -3.595  52.622  1.00  0.00    -0.351 OA
HETATM   18  C24 UNL     1      40.275  -3.096  52.035  1.00  0.00     0.210 C
ENDBRANCH  12  17
BRANCH  13  19
HETATM   19  O6  UNL     1      37.444  -1.494  51.854  1.00  0.00    -0.353 OA
HETATM   20  C22 UNL     1      36.966  -0.433  51.034  1.00  0.00     0.210 C
ENDBRANCH  13  19
ENDBRANCH   8   9
ENDBRANCH   1   7
BRANCH   6  21
HETATM   21  O5  UNL     1      33.671  -3.684  46.195  1.00  0.00    -0.289 OA
BRANCH  21  22
HETATM   22  C19 UNL     1      33.086  -2.501  46.599  1.00  0.00     0.505 C
HETATM   23  F1  UNL     1      31.732  -2.720  46.866  1.00  0.00    -0.184 F
HETATM   24  F2  UNL     1      33.614  -2.114  47.838  1.00  0.00    -0.184 F
ENDBRANCH  21  22
ENDBRANCH   6  21
BRANCH   3  25
HETATM   25  O2  UNL     1      31.708  -8.846  46.919  1.00  0.00    -0.343 OA
BRANCH  25  26
HETATM   26  C10 UNL     1      31.645  -9.883  45.998  1.00  0.00     0.160 C
HETATM   27  C11 UNL     1      30.629  -9.461  44.925  1.00  0.00     0.035 C
HETATM   28  C12 UNL     1      30.459 -10.632  44.017  1.00  0.00     0.005 C
HETATM   29  C13 UNL     1      31.706 -11.142  43.399  1.00  0.00     0.034 C
HETATM   30  C14 UNL     1      32.914 -11.117  44.258  1.00  0.00     0.149 C
HETATM   31  C15 UNL     1      32.970  -9.976  45.228  1.00  0.00     0.176 C
BRANCH  30  32
HETATM   32  O3  UNL     1      34.043 -11.028  43.437  1.00  0.00    -0.393 OA
ATOM     33  H3  UNL     1      34.800 -11.323  43.930  1.00  0.00     0.210 HD
ENDBRANCH  30  32
BRANCH  31  34
HETATM   34  O4  UNL     1      34.044 -10.143  46.065  1.00  0.00    -0.390 OA
ATOM     35  H4  UNL     1      34.579  -9.359  46.122  1.00  0.00     0.210 HD
ENDBRANCH  31  34
ENDBRANCH  25  26
ENDBRANCH   3  25
TORSDOF 11
ENDMDL