MODEL 3
REMARK VINA RESULT: -6.841275158      4.974      7.008
REMARK  3 active torsions:
REMARK  status: ('A' for Active; 'I' for Inactive)
REMARK    1  A    between atoms: C2_2  and  O1_5
REMARK    2  A    between atoms: O1_5  and  C5_6
REMARK       I    between atoms: C5_6  and  N1_8
REMARK    3  A    between atoms: N1_8  and  C6_10
ROOT
HETATM    1  C6  UNL     1      24.759   6.168  17.994  1.00  0.00     0.153 A
HETATM    2  N2  UNL     1      24.641   7.293  17.311  1.00  0.00    -0.339 N
ATOM      3  H2  UNL     1      24.988   7.348  16.354  1.00  0.00     0.168 HD
HETATM    4  C7  UNL     1      24.088   8.320  17.857  1.00  0.00     0.026 A
HETATM    5  C8  UNL     1      23.637   8.203  19.147  1.00  0.00     0.011 A
HETATM    6  S1  UNL     1      24.047   6.583  19.500  1.00  0.00    -0.056 SA
HETATM    7  C9  UNL     1      22.959   9.193  20.055  1.00  0.00     0.074 C
HETATM    8  C10 UNL     1      22.033  10.060  19.215  1.00  0.00     0.172 C
HETATM    9  O3  UNL     1      21.772   9.435  17.989  1.00  0.00    -0.390 OA
HETATM   10  C11 UNL     1      22.505  10.038  16.991  1.00  0.00     0.173 C
HETATM   11  C12 UNL     1      23.947   9.617  17.083  1.00  0.00     0.084 C
ENDROOT
BRANCH   1  12
HETATM   12  N1  UNL     1      25.337   4.911  17.580  1.00  0.00    -0.282 N
HETATM   13  C5  UNL     1      26.675   4.857  17.106  1.00  0.00     0.367 C
HETATM   14  O2  UNL     1      27.323   5.932  17.063  1.00  0.00    -0.238 OA
ATOM     15  H1  UNL     1      24.782   4.057  17.629  1.00  0.00     0.173 HD
BRANCH  13  16
HETATM   16  O1  UNL     1      27.290   3.712  16.698  1.00  0.00    -0.294 OA
BRANCH  16  17
HETATM   17  C2  UNL     1      27.556   2.608  17.542  1.00  0.00     0.061 C
HETATM   18  C1  UNL     1      28.788   1.916  16.946  1.00  0.00     0.046 C
HETATM   19  C3  UNL     1      26.424   1.631  17.619  1.00  0.00     0.046 C
HETATM   20  C4  UNL     1      27.961   3.057  18.926  1.00  0.00     0.046 C
ENDBRANCH  16  17
ENDBRANCH  13  16
ENDBRANCH   1  12
TORSDOF 3
ENDMDL