MODEL 5
REMARK VINA RESULT: -6.466313942      1.475      2.549
REMARK  2 active torsions:
REMARK  status: ('A' for Active; 'I' for Inactive)
REMARK    1  A    between atoms: C4_9  and  N3_10
REMARK    2  A    between atoms: N3_10  and  C5_12
ROOT
HETATM    1  N3  UNL     1      23.107   8.286  20.060  1.00  0.00    -0.374 N
ATOM      2  H3  UNL     1      24.065   8.625  19.971  1.00  0.00     0.160 HD
ENDROOT
BRANCH   1   3
HETATM    3  C4  UNL     1      22.924   7.885  21.228  1.00  0.00     0.112 A
HETATM    4  C3  UNL     1      23.400   6.749  21.837  1.00  0.00     0.149 A
HETATM    5  N2  UNL     1      23.164   6.382  23.093  1.00  0.00    -0.287 N
HETATM    6  S1  UNL     1      24.353   5.750  20.910  1.00  0.00    -0.056 SA
HETATM    7  N1  UNL     1      22.460   6.980  24.009  1.00  0.00    -0.297 N
ATOM      8  H2  UNL     1      23.598   5.504  23.379  1.00  0.00     0.188 HD
HETATM    9  C2  UNL     1      21.807   8.129  23.866  1.00  0.00     0.064 A
ATOM     10  H1  UNL     1      22.404   6.525  24.921  1.00  0.00     0.187 HD
HETATM   11  C1  UNL     1      21.015   8.750  24.985  1.00  0.00     0.078 C
HETATM   12  S2  UNL     1      21.949   8.819  22.323  1.00  0.00    -0.055 SA
ENDBRANCH   1   3
BRANCH   1  13
HETATM   13  C5  UNL     1      22.464   8.432  18.851  1.00  0.00     0.115 C
HETATM   14  C6  UNL     1      22.049   9.844  18.489  1.00  0.00     0.009 C
HETATM   15  C7  UNL     1      20.935   9.800  17.468  1.00  0.00     0.012 C
HETATM   16  C8  UNL     1      23.205  10.582  17.818  1.00  0.00     0.038 C
HETATM   17  C9  UNL     1      23.776   9.789  16.678  1.00  0.00     0.122 C
HETATM   18  C10 UNL     1      25.185   9.371  17.095  1.00  0.00     0.034 C
HETATM   19  O1  UNL     1      23.107   8.550  16.563  1.00  0.00    -0.379 OA
HETATM   20  C11 UNL     1      24.857   8.266  18.085  1.00  0.00     0.036 C
HETATM   21  C12 UNL     1      23.439   7.913  17.756  1.00  0.00     0.145 C
ENDBRANCH   1  13
TORSDOF 2
ENDMDL