MODEL 5
REMARK VINA RESULT: -6.996146319      1.003      1.392
REMARK  4 active torsions:
REMARK  status: ('A' for Active; 'I' for Inactive)
REMARK    1  A    between atoms: O1_1  and  N1_3
REMARK    2  A    between atoms: C1_5  and  N2_6
REMARK    3  A    between atoms: C1_5  and  C6_18
REMARK    4  A    between atoms: N2_6  and  C2_8
ROOT
HETATM    1  N2  UNL     1      24.948   7.275  18.191  1.00  0.00    -0.324 N
ATOM      2  H2  UNL     1      25.716   7.851  18.535  1.00  0.00     0.169 HD
ENDROOT
BRANCH   1   3
HETATM    3  C1  UNL     1      24.205   7.695  17.064  1.00  0.00     0.107 C
HETATM    4  N1  UNL     1      24.535   7.292  15.886  1.00  0.00    -0.257 N
ATOM      5  H1  UNL     1      24.000   7.596  15.072  1.00  0.00     0.195 HD
BRANCH   4   6
HETATM    6  O1  UNL     1      25.608   6.454  15.728  1.00  0.00    -0.288 OA
ATOM      7  H1  UNL     1      26.218   6.328  16.445  1.00  0.00     0.244 HD
ENDBRANCH   4   6
BRANCH   3   8
HETATM    8  C6  UNL     1      23.030   8.604  17.171  1.00  0.00     0.055 C
HETATM    9  C7  UNL     1      23.156   9.781  16.223  1.00  0.00     0.012 C
HETATM   10  C8  UNL     1      22.601  10.981  16.944  1.00  0.00     0.001 C
HETATM   11  C9  UNL     1      21.989  10.428  18.225  1.00  0.00     0.001 C
HETATM   12  C10 UNL     1      22.957   9.274  18.513  1.00  0.00     0.012 C
ENDBRANCH   3   8
ENDBRANCH   1   3
BRANCH   1  13
HETATM   13  C2  UNL     1      24.654   6.146  18.797  1.00  0.00     0.153 A
HETATM   14  N3  UNL     1      24.905   4.924  18.397  1.00  0.00    -0.328 N
HETATM   15  C3  UNL     1      24.517   3.910  19.171  1.00  0.00     0.111 A
ATOM     16  H3  UNL     1      25.387   4.753  17.515  1.00  0.00     0.168 HD
HETATM   17  S1  UNL     1      24.535   2.160  19.232  1.00  0.00    -0.064 SA
HETATM   18  C5  UNL     1      23.885   4.179  20.329  1.00  0.00     0.112 A
HETATM   19  C4  UNL     1      23.740   1.935  20.718  1.00  0.00     0.141 A
HETATM   20  N4  UNL     1      23.502   3.160  21.092  1.00  0.00    -0.352 N
ATOM     21  H4  UNL     1      23.021   3.337  21.974  1.00  0.00     0.166 HD
HETATM   22  S2  UNL     1      23.858   5.935  20.282  1.00  0.00    -0.033 SA
ENDBRANCH   1  13
TORSDOF 4
ENDMDL