MODEL 2
REMARK VINA RESULT: -7.221879137      0.121      1.014
REMARK  2 active torsions:
REMARK  status: ('A' for Active; 'I' for Inactive)
REMARK    1  A    between atoms: C2_2  and  C5_5
REMARK    2  A    between atoms: C7_8  and  N1_9
ROOT
HETATM    1  C5  UNL     1      24.010   7.808  18.292  1.00  0.00     0.025 A
HETATM    2  C6  UNL     1      24.744   6.655  18.400  1.00  0.00     0.079 A
HETATM    3  S1  UNL     1      24.277   6.106  19.961  1.00  0.00    -0.064 SA
HETATM    4  C7  UNL     1      23.198   7.365  20.359  1.00  0.00     0.148 A
HETATM    5  N4  UNL     1      23.251   8.137  19.280  1.00  0.00    -0.339 N
ATOM      6  H4  UNL     1      22.691   8.988  19.232  1.00  0.00     0.168 HD
ENDROOT
BRANCH   4   7
HETATM    7  N1  UNL     1      22.452   7.571  21.578  1.00  0.00    -0.335 N
HETATM    8  C8  UNL     1      22.214   6.367  22.352  1.00  0.00     0.134 C
HETATM    9  C9  UNL     1      22.217   6.695  23.845  1.00  0.00     0.092 C
HETATM   10  C10 UNL     1      21.445   7.933  24.106  1.00  0.00     0.092 C
HETATM   11  N2  UNL     1      20.784   8.003  25.381  1.00  0.00    -0.088 NA
HETATM   12  N3  UNL     1      21.379   8.852  23.250  1.00  0.00    -0.356 N
HETATM   13  C11 UNL     1      21.997   8.876  21.954  1.00  0.00     0.101 C
ATOM     14  H3  UNL     1      20.827   9.670  23.505  1.00  0.00     0.163 HD
HETATM   15  C12 UNL     1      23.057   9.940  21.977  1.00  0.00     0.063 C
HETATM   16  C13 UNL     1      20.890   9.355  20.995  1.00  0.00     0.063 C
ENDBRANCH   4   7
BRANCH   1  17
HETATM   17  C2  UNL     1      24.161   8.659  17.046  1.00  0.00    -0.008 C
HETATM   18  C1  UNL     1      24.337   7.800  15.819  1.00  0.00     0.021 C
HETATM   19  C3  UNL     1      23.004   9.573  16.839  1.00  0.00     0.021 C
HETATM   20  C4  UNL     1      25.456   9.466  17.176  1.00  0.00     0.021 C
ENDBRANCH   1  17
TORSDOF 2
ENDMDL