MODEL 1
REMARK VINA RESULT: -7.089603064      0.000      0.000
REMARK  4 active torsions:
REMARK  status: ('A' for Active; 'I' for Inactive)
REMARK    1  A    between atoms: C2_2  and  C4_4
REMARK    2  A    between atoms: C4_4  and  N1_6
REMARK    3  A    between atoms: C4_4  and  C6_10
REMARK    4  A    between atoms: C7_11  and  C8_12
ROOT
HETATM    1  C6  UNL     1      23.712   8.384  18.459  1.00  0.00    -0.060 C
HETATM    2  C7  UNL     1      23.307   8.181  19.574  1.00  0.00    -0.038 C
ENDROOT
BRANCH   1   3
HETATM    3  C4  UNL     1      24.216   8.610  17.104  1.00  0.00     0.185 C
HETATM    4  C5  UNL     1      24.656   7.294  16.485  1.00  0.00     0.061 C
BRANCH   3   5
HETATM    5  C2  UNL     1      23.073   9.224  16.289  1.00  0.00     0.025 C
HETATM    6  C1  UNL     1      23.381   9.223  14.829  1.00  0.00     0.013 C
HETATM    7  C3  UNL     1      22.814  10.609  16.825  1.00  0.00     0.013 C
ENDBRANCH   3   5
BRANCH   3   8
HETATM    8  N1  UNL     1      25.308   9.538  17.186  1.00  0.00    -0.059 N
ATOM      9  H13 UNL     1      25.832   9.591  16.312  1.00  0.00     0.276 HD
ATOM     10  H12 UNL     1      24.987  10.505  17.224  1.00  0.00     0.276 HD
ATOM     11  H11 UNL     1      25.905   9.299  17.977  1.00  0.00     0.276 HD
ENDBRANCH   3   8
ENDBRANCH   1   3
BRANCH   2  12
HETATM   12  C8  UNL     1      22.836   7.952  20.929  1.00  0.00     0.131 A
HETATM   13  N2  UNL     1      22.217   8.811  21.718  1.00  0.00    -0.337 N
HETATM   14  C9  UNL     1      21.858   8.431  22.927  1.00  0.00     0.096 A
ATOM     15  H2  UNL     1      22.020   9.758  21.394  1.00  0.00     0.168 HD
HETATM   16  C10 UNL     1      22.137   7.178  23.310  1.00  0.00     0.078 A
HETATM   17  S3  UNL     1      21.005   9.341  24.251  1.00  0.00    -0.100 SA
HETATM   18  S1  UNL     1      22.915   6.561  21.922  1.00  0.00    -0.053 SA
HETATM   19  S2  UNL     1      21.634   6.720  24.937  1.00  0.00    -0.109 SA
HETATM   20  C11 UNL     1      20.711   8.151  25.556  1.00  0.00     0.160 C
ENDBRANCH   2  12
TORSDOF 4
ENDMDL