MODEL 5
REMARK VINA RESULT: -4.911447216      1.984      3.260
REMARK  5 active torsions:
REMARK  status: ('A' for Active; 'I' for Inactive)
REMARK    1  A    between atoms: C2_2  and  S1_3
REMARK    2  A    between atoms: S1_3  and  C3_4
REMARK    3  A    between atoms: C3_4  and  N1_6
REMARK    4  A    between atoms: N1_6  and  C4_8
REMARK    5  A    between atoms: C5_12  and  S4_13
ROOT
HETATM    1  C4  UNL     1      24.336   6.880  19.236  1.00  0.00     0.116 A
HETATM    2  S3  UNL     1      24.041   5.963  20.642  1.00  0.00     0.006 SA
HETATM    3  N2  UNL     1      24.383   4.436  20.047  1.00  0.00    -0.318 N
ATOM      4  H2  UNL     1      24.344   3.546  20.543  1.00  0.00     0.175 HD
HETATM    5  C5  UNL     1      24.718   4.651  18.778  1.00  0.00     0.099 A
HETATM    6  C7  UNL     1      24.702   5.920  18.326  1.00  0.00     0.113 A
HETATM    7  C8  UNL     1      25.046   6.330  16.952  1.00  0.00     0.105 C
HETATM    8  N3  UNL     1      25.312   6.657  15.852  1.00  0.00    -0.191 NA
ENDROOT
BRANCH   1   9
HETATM    9  N1  UNL     1      24.245   8.175  19.042  1.00  0.00    -0.334 N
ATOM     10  H1  UNL     1      25.006   8.708  18.620  1.00  0.00     0.168 HD
BRANCH   9  11
HETATM   11  C3  UNL     1      23.035   8.801  19.446  1.00  0.00     0.139 C
HETATM   12  S2  UNL     1      22.791   9.076  21.034  1.00  0.00    -0.053 SA
BRANCH  11  13
HETATM   13  S1  UNL     1      21.756   9.310  18.314  1.00  0.00    -0.101 SA
BRANCH  13  14
HETATM   14  C2  UNL     1      22.381  10.481  17.083  1.00  0.00     0.077 C
HETATM   15  C1  UNL     1      23.161   9.770  16.005  1.00  0.00     0.016 C
ENDBRANCH  13  14
ENDBRANCH  11  13
ENDBRANCH   9  11
ENDBRANCH   1   9
BRANCH   5  16
HETATM   16  S4  UNL     1      25.180   3.251  17.708  1.00  0.00    -0.115 SA
HETATM   17  C6  UNL     1      26.951   3.202  17.460  1.00  0.00     0.097 C
ENDBRANCH   5  16
TORSDOF 5
ENDMDL