MODEL 4
REMARK VINA RESULT: -9.612621169      5.442      8.607
REMARK  2 active torsions:
REMARK  status: ('A' for Active; 'I' for Inactive)
REMARK    1  A    between atoms: C3_7  and  C4_8
REMARK       I    between atoms: C4_8  and  N3_10
REMARK    2  A    between atoms: N3_10  and  C5_12
ROOT
HETATM    1  N1  UNL     1      29.488  -0.061  16.313  1.00  0.00    -0.188 NA
HETATM    2  C1  UNL     1      28.795   0.747  16.758  1.00  0.00     0.139 C
HETATM    3  C2  UNL     1      27.931   1.757  17.307  1.00  0.00     0.210 A
HETATM    4  N2  UNL     1      27.240   1.713  18.461  1.00  0.00    -0.234 N
ATOM      5  H2  UNL     1      27.234   0.937  19.122  1.00  0.00     0.197 HD
HETATM    6  O1  UNL     1      26.591   2.807  18.589  1.00  0.00    -0.211 OA
HETATM    7  C3  UNL     1      26.793   3.617  17.584  1.00  0.00     0.240 A
HETATM    8  N4  UNL     1      27.651   2.950  16.757  1.00  0.00    -0.306 N
ATOM      9  H4  UNL     1      28.017   3.299  15.872  1.00  0.00     0.170 HD
ENDROOT
BRANCH   7  10
HETATM   10  C4  UNL     1      26.238   4.946  17.367  1.00  0.00     0.295 C
HETATM   11  O2  UNL     1      26.566   5.555  16.319  1.00  0.00    -0.264 OA
HETATM   12  N3  UNL     1      25.362   5.552  18.281  1.00  0.00    -0.349 N
ATOM     13  H3  UNL     1      25.120   5.025  19.121  1.00  0.00     0.163 HD
BRANCH  12  14
HETATM   14  C5  UNL     1      24.782   6.852  18.126  1.00  0.00     0.084 C
HETATM   15  C6  UNL     1      23.844   7.122  19.328  1.00  0.00     0.025 C
HETATM   16  C7  UNL     1      23.146   8.340  18.941  1.00  0.00     0.002 C
HETATM   17  C8  UNL     1      22.291   9.193  19.765  1.00  0.00     0.000 C
HETATM   18  C9  UNL     1      22.065  10.435  18.872  1.00  0.00     0.000 C
HETATM   19  C10 UNL     1      21.908  10.179  17.422  1.00  0.00     0.000 C
HETATM   20  C11 UNL     1      23.074  10.405  16.522  1.00  0.00     0.000 C
HETATM   21  C12 UNL     1      23.425   9.253  15.579  1.00  0.00     0.000 C
HETATM   22  C13 UNL     1      24.591   8.410  16.106  1.00  0.00     0.002 C
HETATM   23  C14 UNL     1      24.211   7.142  16.789  1.00  0.00     0.025 C
ENDBRANCH  12  14
ENDBRANCH   7  10
TORSDOF 2
ENDMDL