MODEL 5
REMARK VINA RESULT: -6.454905229      3.816      4.858
REMARK  3 active torsions:
REMARK  status: ('A' for Active; 'I' for Inactive)
REMARK    1  A    between atoms: C6_9  and  C7_10
REMARK    2  A    between atoms: C7_10  and  O2_12
REMARK    3  A    between atoms: O2_12  and  C8_13
ROOT
HETATM    1  C1  UNL     1      24.419   5.058  21.781  1.00  0.00     0.159 C
HETATM    2  N1  UNL     1      24.880   4.221  20.610  1.00  0.00    -0.322 N
HETATM    3  C2  UNL     1      25.018   4.673  19.397  1.00  0.00     0.118 A
HETATM    4  C3  UNL     1      25.622   3.944  18.461  1.00  0.00     0.032 A
HETATM    5  S1  UNL     1      25.994   2.528  19.396  1.00  0.00    -0.061 SA
HETATM    6  C4  UNL     1      25.339   3.019  20.893  1.00  0.00     0.146 A
HETATM    7  S2  UNL     1      25.302   2.150  22.279  1.00  0.00    -0.052 SA
HETATM    8  C5  UNL     1      25.750   4.664  17.156  1.00  0.00     0.085 C
HETATM    9  C6  UNL     1      25.480   6.124  17.595  1.00  0.00     0.188 C
HETATM   10  N2  UNL     1      24.544   5.832  18.625  1.00  0.00    -0.361 N
ATOM     11  H2  UNL     1      23.679   6.345  18.800  1.00  0.00     0.162 HD
ENDROOT
BRANCH   9  12
HETATM   12  C7  UNL     1      24.820   6.810  16.436  1.00  0.00     0.282 C
HETATM   13  O1  UNL     1      25.275   6.638  15.298  1.00  0.00    -0.263 OA
BRANCH  12  14
HETATM   14  O2  UNL     1      23.712   7.611  16.668  1.00  0.00    -0.310 OA
BRANCH  14  15
HETATM   15  C8  UNL     1      23.770   8.988  16.480  1.00  0.00     0.060 C
HETATM   16  C9  UNL     1      23.436   9.331  15.038  1.00  0.00     0.045 C
HETATM   17  C10 UNL     1      22.664   9.652  17.348  1.00  0.00     0.045 C
HETATM   18  C11 UNL     1      25.059   9.588  16.958  1.00  0.00     0.045 C
ENDBRANCH  14  15
ENDBRANCH  12  14
ENDBRANCH   9  12
TORSDOF 3
ENDMDL