MODEL 1
REMARK VINA RESULT: -8.039336668      0.000      0.000
REMARK  3 active torsions:
REMARK  status: ('A' for Active; 'I' for Inactive)
REMARK    1  A    between atoms: C3_3  and  C4_4
REMARK    2  A    between atoms: C7_7  and  C8_8
REMARK    3  A    between atoms: N1_9  and  C9_11
ROOT
HETATM    1  C1  UNL     1      24.218  -0.272  21.658  1.00  0.00     0.112 C
HETATM    2  C2  UNL     1      24.786   1.042  21.350  1.00  0.00    -0.110 C
HETATM    3  C3  UNL     1      25.272   2.117  21.102  1.00  0.00    -0.094 C
ENDROOT
BRANCH   3   4
HETATM    4  C4  UNL     1      25.888   3.441  20.819  1.00  0.00     0.145 A
HETATM    5  C5  UNL     1      25.102   4.518  21.405  1.00  0.00    -0.003 A
HETATM    6  C6  UNL     1      24.598   5.530  20.734  1.00  0.00     0.028 A
HETATM    7  C7  UNL     1      24.820   5.621  19.270  1.00  0.00     0.045 A
HETATM    8  N2  UNL     1      25.498   4.687  18.774  1.00  0.00    -0.354 N
HETATM    9  C14 UNL     1      26.087   3.561  19.365  1.00  0.00     0.227 A
ATOM     10  H2  UNL     1      25.646   4.760  17.767  1.00  0.00     0.162 HD
HETATM   11  C15 UNL     1      27.555   3.570  19.075  1.00  0.00     0.108 C
HETATM   12  C16 UNL     1      25.538   2.335  18.693  1.00  0.00     0.108 C
HETATM   13  N3  UNL     1      28.680   3.571  18.870  1.00  0.00    -0.193 NA
HETATM   14  N4  UNL     1      25.114   1.404  18.158  1.00  0.00    -0.193 NA
BRANCH   7  15
HETATM   15  C8  UNL     1      24.269   6.736  18.512  1.00  0.00     0.112 C
HETATM   16  N1  UNL     1      25.027   7.429  17.762  1.00  0.00    -0.392 N
ATOM     17  H1  UNL     1      26.010   7.157  17.733  1.00  0.00     0.159 HD
BRANCH  16  18
HETATM   18  C9  UNL     1      24.652   8.541  16.962  1.00  0.00     0.081 C
HETATM   19  C10 UNL     1      24.373   8.225  15.532  1.00  0.00     0.025 C
HETATM   20  C11 UNL     1      23.357   9.253  15.044  1.00  0.00     0.002 C
HETATM   21  C12 UNL     1      23.046  10.097  16.254  1.00  0.00     0.002 C
HETATM   22  C13 UNL     1      23.420   9.258  17.462  1.00  0.00     0.025 C
ENDBRANCH  16  18
ENDBRANCH   7  15
ENDBRANCH   3   4
TORSDOF 3
ENDMDL