MODEL 3
REMARK VINA RESULT: -6.525525680      2.512      4.957
REMARK  2 active torsions:
REMARK  status: ('A' for Active; 'I' for Inactive)
REMARK    1  A    between atoms: C2_2  and  C3_3
REMARK    2  A    between atoms: C4_5  and  O2_7
ROOT
HETATM    1  C3  UNL     1      25.325   4.348  19.509  1.00  0.00     0.290 C
HETATM    2  O1  UNL     1      24.918   3.037  19.465  1.00  0.00    -0.322 OA
HETATM    3  C4  UNL     1      25.612   2.123  20.182  1.00  0.00     0.161 C
HETATM    4  C5  UNL     1      26.608   1.462  19.210  1.00  0.00     0.078 C
HETATM    5  C6  UNL     1      24.686   1.013  20.655  1.00  0.00     0.068 C
HETATM    6  C7  UNL     1      24.199   1.212  22.070  1.00  0.00     0.005 C
HETATM    7  C8  UNL     1      22.718   1.502  22.139  1.00  0.00     0.003 C
HETATM    8  C9  UNL     1      22.405   2.681  23.075  1.00  0.00     0.035 C
HETATM    9  C10 UNL     1      22.917   3.873  22.373  1.00  0.00     0.160 C
HETATM   10  C11 UNL     1      22.667   5.209  22.943  1.00  0.00     0.040 C
HETATM   11  C12 UNL     1      23.681   6.119  22.220  1.00  0.00     0.074 C
HETATM   12  C13 UNL     1      23.837   5.670  20.758  1.00  0.00     0.196 C
HETATM   13  C14 UNL     1      23.809   6.978  19.952  1.00  0.00     0.082 C
HETATM   14  O3  UNL     1      22.740   4.953  20.401  1.00  0.00    -0.201 OA
HETATM   15  O4  UNL     1      22.497   3.877  21.055  1.00  0.00    -0.233 OA
HETATM   16  O5  UNL     1      25.046   5.061  20.604  1.00  0.00    -0.319 OA
ENDROOT
BRANCH   3  17
HETATM   17  O2  UNL     1      26.401   2.623  21.199  1.00  0.00    -0.365 OA
ATOM     18  H2  UNL     1      27.223   2.172  21.351  1.00  0.00     0.213 HD
ENDBRANCH   3  17
BRANCH   1  19
HETATM   19  C2  UNL     1      24.923   4.950  18.206  1.00  0.00     0.023 C
HETATM   20  C1  UNL     1      25.737   5.161  17.188  1.00  0.00     0.012 C
ENDBRANCH   1  19
TORSDOF 2
ENDMDL