MODEL 4
REMARK VINA RESULT: -5.539371981      3.106      4.740
REMARK  2 active torsions:
REMARK  status: ('A' for Active; 'I' for Inactive)
REMARK    1  A    between atoms: C7_7  and  N1_8
REMARK    2  A    between atoms: N1_8  and  C8_10
ROOT
HETATM    1  N1  UNL     1       0.208  23.049  51.858  1.00  0.00    -0.190 N
ATOM      2  H1  UNL     1       0.864  22.781  52.592  1.00  0.00     0.184 HD
ENDROOT
BRANCH   1   3
HETATM    3  C7  UNL     1      -0.437  22.052  51.056  1.00  0.00     0.055 A
HETATM    4  C2  UNL     1       0.266  21.352  50.099  1.00  0.00    -0.035 A
HETATM    5  C1  UNL     1       1.703  21.652  49.916  1.00  0.00     0.050 C
HETATM    6  C3  UNL     1      -0.360  20.395  49.334  1.00  0.00     0.009 A
HETATM    7  C4  UNL     1      -1.711  20.157  49.551  1.00  0.00     0.001 A
HETATM    8  C5  UNL     1      -2.413  20.854  50.504  1.00  0.00     0.002 A
HETATM    9  C6  UNL     1      -1.761  21.804  51.255  1.00  0.00     0.030 A
ENDBRANCH   1   3
BRANCH   1  10
HETATM   10  C8  UNL     1      -0.060  24.301  51.633  1.00  0.00     0.698 A
HETATM   11  N2  UNL     1      -0.022  24.908  50.440  1.00  0.00    -0.185 N
HETATM   12  C9  UNL     1      -0.363  26.186  50.654  1.00  0.00     0.215 A
ATOM     13  H2  UNL     1       0.219  24.481  49.546  1.00  0.00     0.185 HD
HETATM   14  N3  UNL     1      -0.611  26.378  51.958  1.00  0.00    -0.281 N
HETATM   15  N4  UNL     1      -0.420  25.214  52.545  1.00  0.00    -0.131 N
ATOM     16  H3  UNL     1      -0.890  27.251  52.406  1.00  0.00     0.188 HD
ATOM     17  H4  UNL     1      -0.530  25.035  53.543  1.00  0.00     0.205 HD
ENDBRANCH   1  10
TORSDOF 2
ENDMDL