MODEL 1
REMARK VINA RESULT: -5.572297232      0.000      0.000
REMARK  2 active torsions:
REMARK  status: ('A' for Active; 'I' for Inactive)
REMARK    1  A    between atoms: C4_6  and  C5_7
REMARK    2  A    between atoms: C5_7  and  N2_8
ROOT
HETATM    1  N2  UNL     1      -0.304  25.772  47.024  1.00  0.00    -0.222 N
ATOM      2  H2  UNL     1      -0.381  26.771  47.219  1.00  0.00     0.178 HD
HETATM    3  C6  UNL     1       0.554  25.397  46.130  1.00  0.00     0.678 A
HETATM    4  N3  UNL     1       1.342  26.249  45.451  1.00  0.00    -0.201 N
ATOM      5  H3  UNL     1       1.343  27.262  45.568  1.00  0.00     0.183 HD
HETATM    6  C7  UNL     1       2.126  25.579  44.596  1.00  0.00     0.123 A
HETATM    7  C8  UNL     1       1.817  24.254  44.745  1.00  0.00     0.123 A
HETATM    8  N4  UNL     1       0.856  24.174  45.687  1.00  0.00    -0.201 N
ATOM      9  H4  UNL     1       0.424  23.309  46.012  1.00  0.00     0.183 HD
ENDROOT
BRANCH   1  10
HETATM   10  C5  UNL     1      -1.145  24.886  47.752  1.00  0.00     0.178 C
BRANCH  10  11
HETATM   11  C4  UNL     1      -0.768  24.861  49.200  1.00  0.00    -0.025 A
HETATM   12  C3  UNL     1      -1.012  23.753  49.982  1.00  0.00     0.096 A
HETATM   13  N1  UNL     1      -0.683  23.702  51.286  1.00  0.00    -0.375 N
HETATM   14  C2  UNL     1      -0.092  24.730  51.921  1.00  0.00     0.087 A
ATOM     15  H1  UNL     1      -0.890  22.853  51.812  1.00  0.00     0.164 HD
HETATM   16  C1  UNL     1       0.167  25.855  51.165  1.00  0.00     0.018 A
HETATM   17  C9  UNL     1      -0.161  25.931  49.826  1.00  0.00     0.011 A
ENDBRANCH  10  11
ENDBRANCH   1  10
TORSDOF 2
ENDMDL