MODEL 3
REMARK VINA RESULT: -5.537246832      1.127      1.715
REMARK  2 active torsions:
REMARK  status: ('A' for Active; 'I' for Inactive)
REMARK    1  A    between atoms: C3_3  and  C4_4
REMARK    2  A    between atoms: C4_4  and  N1_5
ROOT
HETATM    1  N1  UNL     1       0.361  25.074  47.454  1.00  0.00    -0.222 N
ATOM      2  H1  UNL     1      -0.228  25.863  47.720  1.00  0.00     0.178 HD
HETATM    3  C5  UNL     1       0.273  24.661  46.254  1.00  0.00     0.678 A
HETATM    4  N2  UNL     1      -0.533  25.182  45.318  1.00  0.00    -0.201 N
ATOM      5  H2  UNL     1      -1.174  25.967  45.439  1.00  0.00     0.183 HD
HETATM    6  C6  UNL     1      -0.339  24.477  44.191  1.00  0.00     0.123 A
HETATM    7  C7  UNL     1       0.601  23.498  44.413  1.00  0.00     0.123 A
HETATM    8  N3  UNL     1       0.962  23.642  45.716  1.00  0.00    -0.201 N
ATOM      9  H3  UNL     1       1.648  23.068  46.205  1.00  0.00     0.183 HD
ENDROOT
BRANCH   1  10
HETATM   10  C4  UNL     1       1.215  24.529  48.463  1.00  0.00     0.176 C
BRANCH  10  11
HETATM   11  C3  UNL     1       0.648  24.792  49.828  1.00  0.00    -0.037 A
HETATM   12  C2  UNL     1       0.055  25.988  50.160  1.00  0.00     0.025 A
HETATM   13  C1  UNL     1      -0.452  26.180  51.432  1.00  0.00     0.088 A
HETATM   14  N4  UNL     1      -0.393  25.230  52.384  1.00  0.00    -0.375 N
HETATM   15  C9  UNL     1       0.183  24.055  52.076  1.00  0.00     0.088 A
ATOM     16  H4  UNL     1      -0.775  25.397  53.314  1.00  0.00     0.164 HD
HETATM   17  C8  UNL     1       0.701  23.827  50.816  1.00  0.00     0.025 A
ENDBRANCH  10  11
ENDBRANCH   1  10
TORSDOF 2
ENDMDL