MODEL 4
REMARK VINA RESULT: -5.470725206      1.523      1.918
REMARK  3 active torsions:
REMARK  status: ('A' for Active; 'I' for Inactive)
REMARK    1  A    between atoms: C4_4  and  C5_5
REMARK    2  A    between atoms: C5_5  and  N1_6
REMARK    3  A    between atoms: N1_6  and  C6_8
ROOT
HETATM    1  N1  UNL     1      -1.202  21.137  51.480  1.00  0.00    -0.370 N
ATOM      2  H1  UNL     1      -1.611  20.849  52.369  1.00  0.00     0.161 HD
ENDROOT
BRANCH   1   3
HETATM    3  C5  UNL     1      -0.853  20.160  50.493  1.00  0.00     0.178 C
BRANCH   3   4
HETATM    4  C4  UNL     1       0.456  19.524  50.768  1.00  0.00     0.026 A
HETATM    5  C3  UNL     1       1.511  19.852  49.940  1.00  0.00     0.027 A
HETATM    6  C2  UNL     1       2.771  19.328  50.095  1.00  0.00     0.003 A
HETATM    7  C1  UNL     1       2.970  18.432  51.135  1.00  0.00     0.017 A
HETATM    8  C9  UNL     1       1.897  18.120  51.950  1.00  0.00     0.088 A
HETATM    9  N4  UNL     1       0.679  18.661  51.757  1.00  0.00    -0.368 N
ATOM     10  H4  UNL     1      -0.087  18.404  52.380  1.00  0.00     0.165 HD
ENDBRANCH   3   4
ENDBRANCH   1   3
BRANCH   1  11
HETATM   11  C6  UNL     1      -0.992  22.377  51.232  1.00  0.00     0.117 A
HETATM   12  C7  UNL     1       0.049  23.087  51.805  1.00  0.00     0.068 A
HETATM   13  C8  UNL     1      -0.027  24.379  51.319  1.00  0.00     0.111 A
HETATM   14  N2  UNL     1      -1.079  24.391  50.498  1.00  0.00    -0.310 N
HETATM   15  N3  UNL     1      -1.668  23.217  50.429  1.00  0.00    -0.286 N
ATOM     16  H2  UNL     1      -1.390  25.215  49.983  1.00  0.00     0.186 HD
ATOM     17  H3  UNL     1      -2.489  22.986  49.869  1.00  0.00     0.188 HD
ENDBRANCH   1  11
TORSDOF 3
ENDMDL