MODEL 5
REMARK VINA RESULT: -5.551979975      2.634      5.647
REMARK  3 active torsions:
REMARK  status: ('A' for Active; 'I' for Inactive)
REMARK    1  A    between atoms: C4_4  and  C5_5
REMARK    2  A    between atoms: C5_5  and  N1_6
REMARK    3  A    between atoms: N1_6  and  C6_8
ROOT
HETATM    1  N1  UNL     1      -0.287  26.007  49.132  1.00  0.00    -0.221 N
ATOM      2  H1  UNL     1       0.367  26.676  48.727  1.00  0.00     0.178 HD
ENDROOT
BRANCH   1   3
HETATM    3  C5  UNL     1      -1.264  25.343  48.290  1.00  0.00     0.176 C
BRANCH   3   4
HETATM    4  C4  UNL     1      -0.698  25.105  46.922  1.00  0.00    -0.040 A
HETATM    5  C3  UNL     1       0.630  25.369  46.666  1.00  0.00     0.009 A
HETATM    6  C2  UNL     1       1.159  25.155  45.418  1.00  0.00     0.001 A
HETATM    7  C1  UNL     1       0.386  24.674  44.397  1.00  0.00     0.000 A
HETATM    8  C9  UNL     1      -0.947  24.400  44.621  1.00  0.00     0.001 A
HETATM    9  C8  UNL     1      -1.460  24.622  45.881  1.00  0.00     0.009 A
ENDBRANCH   3   4
ENDBRANCH   1   3
BRANCH   1  10
HETATM   10  C6  UNL     1      -0.249  25.748  50.395  1.00  0.00     0.693 A
HETATM   11  N2  UNL     1       0.057  24.544  50.933  1.00  0.00    -0.185 N
HETATM   12  C7  UNL     1       0.013  24.596  52.265  1.00  0.00     0.215 A
ATOM     13  H2  UNL     1       0.291  23.710  50.393  1.00  0.00     0.185 HD
HETATM   14  N3  UNL     1      -0.328  25.858  52.582  1.00  0.00    -0.281 N
HETATM   15  N4  UNL     1      -0.484  26.544  51.451  1.00  0.00    -0.131 N
ATOM     16  H3  UNL     1      -0.447  26.225  53.526  1.00  0.00     0.188 HD
ATOM     17  H4  UNL     1      -0.743  27.529  51.395  1.00  0.00     0.205 HD
ENDBRANCH   1  10
TORSDOF 3
ENDMDL