MODEL 1
REMARK VINA RESULT: -5.606217649      0.000      0.000
REMARK  3 active torsions:
REMARK  status: ('A' for Active; 'I' for Inactive)
REMARK    1  A    between atoms: C2_2  and  C3_3
REMARK    2  A    between atoms: C3_3  and  N1_4
REMARK    3  A    between atoms: N1_4  and  C4_6
ROOT
HETATM    1  C4  UNL     1      -0.154  23.824  50.368  1.00  0.00     0.120 A
HETATM    2  N2  UNL     1      -0.931  24.888  50.767  1.00  0.00    -0.338 N
ATOM      3  H2  UNL     1      -1.945  24.775  50.771  1.00  0.00     0.168 HD
HETATM    4  C5  UNL     1      -0.425  26.054  51.149  1.00  0.00     0.183 A
HETATM    5  N3  UNL     1       0.886  26.293  51.176  1.00  0.00    -0.338 N
ATOM      6  H3  UNL     1       1.255  27.197  51.472  1.00  0.00     0.168 HD
HETATM    7  C6  UNL     1       1.706  25.293  50.796  1.00  0.00     0.120 A
HETATM    8  N4  UNL     1       3.047  25.220  50.715  1.00  0.00    -0.351 N
ATOM      9  H4  UNL     1       3.683  25.983  50.951  1.00  0.00     0.166 HD
HETATM   10  C7  UNL     1       3.435  24.021  50.286  1.00  0.00     0.091 A
HETATM   11  C8  UNL     1       2.294  23.259  50.071  1.00  0.00     0.036 A
HETATM   12  C9  UNL     1       1.224  24.064  50.394  1.00  0.00     0.053 A
ENDROOT
BRANCH   1  13
HETATM   13  N1  UNL     1      -0.697  22.751  50.021  1.00  0.00    -0.352 N
ATOM     14  H1  UNL     1      -0.028  22.114  49.590  1.00  0.00     0.166 HD
BRANCH  13  15
HETATM   15  C3  UNL     1      -1.971  22.198  50.069  1.00  0.00     0.089 C
BRANCH  15  16
HETATM   16  C2  UNL     1      -2.145  21.226  51.214  1.00  0.00     0.007 C
HETATM   17  C1  UNL     1      -1.779  19.985  51.025  1.00  0.00     0.012 C
ENDBRANCH  15  16
ENDBRANCH  13  15
ENDBRANCH   1  13
TORSDOF 3
ENDMDL