MODEL 4
REMARK VINA RESULT: -5.150126068      4.763      6.354
REMARK  3 active torsions:
REMARK  status: ('A' for Active; 'I' for Inactive)
REMARK    1  A    between atoms: C2_2  and  C3_3
REMARK    2  A    between atoms: C3_3  and  N1_4
REMARK    3  A    between atoms: N1_4  and  C4_6
ROOT
HETATM    1  C4  UNL     1      -1.672  22.653  50.543  1.00  0.00     0.139 A
HETATM    2  N2  UNL     1      -2.225  23.510  49.684  1.00  0.00    -0.284 N
ATOM      3  H2  UNL     1      -2.042  24.514  49.675  1.00  0.00     0.188 HD
HETATM    4  N3  UNL     1      -3.042  22.894  48.841  1.00  0.00    -0.302 N
ATOM      5  H3  UNL     1      -3.584  23.323  48.091  1.00  0.00     0.186 HD
HETATM    6  C5  UNL     1      -3.014  21.595  49.171  1.00  0.00     0.046 A
HETATM    7  C6  UNL     1      -3.769  20.518  48.510  1.00  0.00     0.071 C
HETATM    8  C7  UNL     1      -2.155  21.394  50.250  1.00  0.00     0.113 A
HETATM    9  C8  UNL     1      -1.850  20.140  50.901  1.00  0.00     0.105 C
HETATM   10  N4  UNL     1      -1.608  19.132  51.407  1.00  0.00    -0.191 NA
ENDROOT
BRANCH   1  11
HETATM   11  N1  UNL     1      -0.833  22.898  51.496  1.00  0.00    -0.374 N
ATOM     12  H1  UNL     1      -0.917  22.389  52.376  1.00  0.00     0.161 HD
BRANCH  11  13
HETATM   13  C3  UNL     1       0.223  23.878  51.344  1.00  0.00     0.121 C
BRANCH  13  14
HETATM   14  C2  UNL     1      -0.049  25.142  52.135  1.00  0.00     0.015 C
HETATM   15  C1  UNL     1      -0.295  26.243  51.105  1.00  0.00     0.006 C
ENDBRANCH  13  14
ENDBRANCH  11  13
ENDBRANCH   1  11
TORSDOF 3
ENDMDL