MODEL 5
REMARK VINA RESULT: -5.253710251      4.060      5.010
REMARK  2 active torsions:
REMARK  status: ('A' for Active; 'I' for Inactive)
REMARK    1  A    between atoms: C4_4  and  C5_5
REMARK    2  A    between atoms: C5_5  and  C6_6
ROOT
HETATM    1  C1  UNL     1      -2.943  20.500  49.522  1.00  0.00     0.070 C
HETATM    2  C2  UNL     1      -1.680  20.999  50.142  1.00  0.00     0.024 A
HETATM    3  C3  UNL     1      -1.052  22.201  49.868  1.00  0.00     0.052 A
HETATM    4  C4  UNL     1       0.084  22.288  50.646  1.00  0.00     0.033 A
HETATM    5  N3  UNL     1       0.134  21.157  51.374  1.00  0.00    -0.304 N
ATOM      6  H3  UNL     1       0.859  20.919  52.050  1.00  0.00     0.186 HD
HETATM    7  N4  UNL     1      -0.910  20.406  51.068  1.00  0.00    -0.305 N
ATOM      8  H4  UNL     1      -1.105  19.494  51.481  1.00  0.00     0.186 HD
ENDROOT
BRANCH   4   9
HETATM    9  C5  UNL     1       1.038  23.433  50.644  1.00  0.00     0.117 C
BRANCH   9  10
HETATM   10  C6  UNL     1       0.429  24.645  51.252  1.00  0.00     0.031 A
HETATM   11  C7  UNL     1       0.449  25.880  50.653  1.00  0.00     0.114 A
HETATM   12  N1  UNL     1      -0.180  26.740  51.457  1.00  0.00    -0.360 N
HETATM   13  C8  UNL     1      -0.585  26.051  52.537  1.00  0.00     0.180 A
ATOM     14  H1  UNL     1      -0.326  27.734  51.283  1.00  0.00     0.166 HD
HETATM   15  N2  UNL     1      -0.217  24.766  52.421  1.00  0.00    -0.354 N
ATOM     16  H2  UNL     1      -0.395  24.021  53.095  1.00  0.00     0.166 HD
ENDBRANCH   9  10
ENDBRANCH   4   9
TORSDOF 2
ENDMDL