MODEL 5
REMARK VINA RESULT: -5.454412788      3.557      4.993
REMARK  3 active torsions:
REMARK  status: ('A' for Active; 'I' for Inactive)
REMARK    1  A    between atoms: C2_2  and  C3_3
REMARK    2  A    between atoms: C3_3  and  N1_4
REMARK    3  A    between atoms: N1_4  and  C4_6
ROOT
HETATM    1  C4  UNL     1       1.215  24.642  47.654  1.00  0.00     0.120 A
HETATM    2  N2  UNL     1       2.102  24.909  46.658  1.00  0.00    -0.338 N
ATOM      3  H2  UNL     1       3.073  24.633  46.813  1.00  0.00     0.168 HD
HETATM    4  C5  UNL     1       1.815  25.494  45.506  1.00  0.00     0.183 A
HETATM    5  N3  UNL     1       0.553  25.863  45.279  1.00  0.00    -0.338 N
ATOM      6  H3  UNL     1       0.310  26.316  44.399  1.00  0.00     0.168 HD
HETATM    7  C6  UNL     1      -0.406  25.644  46.203  1.00  0.00     0.120 A
HETATM    8  N4  UNL     1      -1.725  25.927  46.196  1.00  0.00    -0.351 N
ATOM      9  H4  UNL     1      -2.226  26.380  45.433  1.00  0.00     0.166 HD
HETATM   10  C7  UNL     1      -2.272  25.519  47.344  1.00  0.00     0.091 A
HETATM   11  C8  UNL     1      -1.279  24.953  48.125  1.00  0.00     0.036 A
HETATM   12  C9  UNL     1      -0.100  25.027  47.418  1.00  0.00     0.053 A
ENDROOT
BRANCH   1  13
HETATM   13  N1  UNL     1       1.554  24.090  48.712  1.00  0.00    -0.352 N
ATOM     14  H1  UNL     1       1.293  23.104  48.707  1.00  0.00     0.166 HD
BRANCH  13  15
HETATM   15  C3  UNL     1       2.183  24.426  49.897  1.00  0.00     0.089 C
BRANCH  15  16
HETATM   16  C2  UNL     1       1.239  24.865  50.989  1.00  0.00     0.007 C
HETATM   17  C1  UNL     1       0.322  24.084  51.502  1.00  0.00     0.012 C
ENDBRANCH  15  16
ENDBRANCH  13  15
ENDBRANCH   1  13
TORSDOF 3
ENDMDL