MODEL 5
REMARK VINA RESULT: -6.747119301      1.909      3.224
REMARK  12 active torsions:
REMARK  status: ('A' for Active; 'I' for Inactive)
REMARK    1  A    between atoms: C2_2  and  N1_3
REMARK       I    between atoms: N1_3  and  C3_5
REMARK    2  A    between atoms: C3_5  and  C4_7
REMARK    3  A    between atoms: C11_16  and  O4_17
REMARK    4  A    between atoms: C19_25  and  C21_27
REMARK    5  A    between atoms: C21_27  and  C22_29
REMARK    6  A    between atoms: C22_29  and  C23_30
REMARK    7  A    between atoms: C23_30  and  C24_31
REMARK       I    between atoms: C24_31  and  N2_33
REMARK    8  A    between atoms: N2_33  and  C25_35
REMARK    9  A    between atoms: C25_35  and  C26_36
REMARK   10  A    between atoms: C26_36  and  C27_37
REMARK   11  A    between atoms: C27_37  and  C28_38
REMARK   12  A    between atoms: C28_38  and  O7_39
ROOT
HETATM    1  C4  UNL     1       6.062  16.813  15.564  1.00  0.00     0.225 C
HETATM    2  O2  UNL     1       6.919  16.121  14.727  1.00  0.00    -0.362 OA
HETATM    3  C5  UNL     1       7.435  15.483  15.822  1.00  0.00     0.203 C
HETATM    4  C6  UNL     1       8.846  15.106  15.795  1.00  0.00     0.156 C
HETATM    5  O3  UNL     1       9.191  14.169  15.105  1.00  0.00    -0.295 OA
HETATM    6  C7  UNL     1       9.778  15.921  16.638  1.00  0.00     0.086 C
HETATM    7  C8  UNL     1       9.470  17.392  16.314  1.00  0.00     0.002 C
HETATM    8  C9  UNL     1       8.098  17.723  16.815  1.00  0.00     0.007 C
HETATM    9  C10 UNL     1       8.039  18.312  18.167  1.00  0.00     0.038 C
HETATM   10  C11 UNL     1       9.350  18.902  18.690  1.00  0.00     0.131 C
HETATM   11  C13 UNL     1      10.170  19.474  17.597  1.00  0.00     0.000 C
HETATM   12  C14 UNL     1       9.293  20.517  16.898  1.00  0.00     0.019 C
HETATM   13  C15 UNL     1      10.534  18.337  16.656  1.00  0.00     0.002 C
HETATM   14  C16 UNL     1      11.763  17.585  17.077  1.00  0.00     0.006 C
HETATM   15  C17 UNL     1      12.903  18.452  17.553  1.00  0.00     0.002 C
HETATM   16  C18 UNL     1      12.486  19.418  18.626  1.00  0.00     0.018 C
HETATM   17  C19 UNL     1      11.366  20.230  18.064  1.00  0.00     0.027 C
HETATM   18  C20 UNL     1      10.924  21.213  19.124  1.00  0.00     0.024 C
HETATM   19  C29 UNL     1       7.092  16.627  16.682  1.00  0.00     0.028 C
HETATM   20  C30 UNL     1       6.366  16.202  17.931  1.00  0.00     0.022 C
ENDROOT
BRANCH  17  21
HETATM   21  C21 UNL     1      11.987  21.066  16.979  1.00  0.00     0.136 C
HETATM   22  O5  UNL     1      11.929  20.816  15.791  1.00  0.00    -0.297 OA
BRANCH  21  23
HETATM   23  C22 UNL     1      12.739  22.296  17.327  1.00  0.00     0.088 C
BRANCH  23  24
HETATM   24  C23 UNL     1      14.174  22.176  16.784  1.00  0.00     0.110 C
BRANCH  24  25
HETATM   25  C24 UNL     1      15.024  23.255  17.336  1.00  0.00     0.217 C
HETATM   26  O6  UNL     1      16.245  23.215  17.036  1.00  0.00    -0.274 OA
HETATM   27  N2  UNL     1      14.436  24.244  18.144  1.00  0.00    -0.361 N
ATOM     28  H2  UNL     1      13.434  24.188  18.323  1.00  0.00     0.162 HD
BRANCH  27  29
HETATM   29  C25 UNL     1      15.174  25.331  18.731  1.00  0.00     0.122 C
BRANCH  29  30
HETATM   30  C26 UNL     1      15.466  25.066  20.164  1.00  0.00     0.022 C
BRANCH  30  31
HETATM   31  C27 UNL     1      16.878  24.567  20.395  1.00  0.00     0.028 C
BRANCH  31  32
HETATM   32  C28 UNL     1      17.851  25.094  19.373  1.00  0.00     0.164 C
BRANCH  32  33
HETATM   33  O7  UNL     1      18.326  23.995  18.647  1.00  0.00    -0.401 OA
ATOM     34  H7  UNL     1      18.972  24.322  18.031  1.00  0.00     0.209 HD
ENDBRANCH  32  33
ENDBRANCH  31  32
ENDBRANCH  30  31
ENDBRANCH  29  30
ENDBRANCH  27  29
ENDBRANCH  24  25
ENDBRANCH  23  24
ENDBRANCH  21  23
ENDBRANCH  17  21
BRANCH  10  35
HETATM   35  O4  UNL     1       9.929  17.881  19.433  1.00  0.00    -0.390 OA
HETATM   36  C12 UNL     1       9.621  18.007  20.763  1.00  0.00     0.202 C
ENDBRANCH  10  35
BRANCH   1  37
HETATM   37  C3  UNL     1       4.738  16.245  15.798  1.00  0.00     0.247 C
HETATM   38  N1  UNL     1       4.376  14.904  15.494  1.00  0.00    -0.359 N
ATOM     39  H1  UNL     1       5.085  14.297  15.084  1.00  0.00     0.162 HD
HETATM   40  O1  UNL     1       3.852  16.978  16.303  1.00  0.00    -0.271 OA
BRANCH  38  41
HETATM   41  C2  UNL     1       3.080  14.357  15.728  1.00  0.00     0.118 C
HETATM   42  C1  UNL     1       2.164  14.458  14.533  1.00  0.00     0.026 C
ENDBRANCH  38  41
ENDBRANCH   1  37
TORSDOF 12
ENDMDL