MODEL 1
REMARK VINA RESULT: -8.939140632      0.000      0.000
REMARK  12 active torsions:
REMARK  status: ('A' for Active; 'I' for Inactive)
REMARK    1  A    between atoms: C3_5  and  C4_6
REMARK    2  A    between atoms: C6_10  and  N3_11
REMARK    3  A    between atoms: N3_11  and  C7_13
REMARK    4  A    between atoms: C7_13  and  C8_14
REMARK    5  A    between atoms: C15_25  and  C16_26
REMARK    6  A    between atoms: C16_26  and  N6_27
REMARK    7  A    between atoms: N6_27  and  C17_30
REMARK    8  A    between atoms: C20_33  and  C21_34
REMARK       I    between atoms: C21_34  and  N7_36
REMARK    9  A    between atoms: N7_36  and  C22_38
REMARK   10  A    between atoms: C22_38  and  C23_39
REMARK   11  A    between atoms: C23_39  and  C24_40
REMARK   12  A    between atoms: C24_40  and  N8_41
ROOT
HETATM    1  C1  UNL     1      13.985  21.490  13.978  1.00  0.00     0.070 C
HETATM    2  C2  UNL     1      14.304  21.644  15.434  1.00  0.00     0.030 A
HETATM    3  N1  UNL     1      15.195  22.589  15.772  1.00  0.00    -0.355 N
ATOM      4  H1  UNL     1      15.623  23.160  15.043  1.00  0.00     0.166 HD
HETATM    5  C3  UNL     1      15.537  22.798  17.081  1.00  0.00     0.076 A
HETATM    6  C14 UNL     1      14.914  21.987  17.995  1.00  0.00     0.120 A
HETATM    7  N5  UNL     1      14.013  21.030  17.648  1.00  0.00    -0.364 N
ATOM      8  H5  UNL     1      13.578  20.452  18.368  1.00  0.00     0.165 HD
HETATM    9  C15 UNL     1      13.696  20.849  16.360  1.00  0.00     0.057 A
ENDROOT
BRANCH   9  10
HETATM   10  C16 UNL     1      12.727  19.818  15.937  1.00  0.00     0.291 C
BRANCH  10  11
HETATM   11  N6  UNL     1      13.149  18.470  16.314  1.00  0.00    -0.066 N
ATOM     12  H62 UNL     1      13.757  18.029  15.624  1.00  0.00     0.278 HD
ATOM     13  H61 UNL     1      13.809  18.456  17.091  1.00  0.00     0.278 HD
BRANCH  11  14
HETATM   14  C17 UNL     1      11.921  17.708  16.579  1.00  0.00     0.186 C
HETATM   15  C18 UNL     1      11.232  17.456  15.289  1.00  0.00     0.034 C
HETATM   16  C19 UNL     1       9.762  17.265  15.358  1.00  0.00     0.016 C
HETATM   17  C20 UNL     1       9.452  16.867  16.811  1.00  0.00     0.078 C
HETATM   18  C29 UNL     1       9.654  18.108  17.609  1.00  0.00     0.016 C
HETATM   19  C30 UNL     1      11.130  18.383  17.647  1.00  0.00     0.034 C
BRANCH  17  20
HETATM   20  C21 UNL     1       8.164  16.203  16.933  1.00  0.00     0.221 C
HETATM   21  O1  UNL     1       8.144  14.966  17.179  1.00  0.00    -0.273 OA
HETATM   22  N7  UNL     1       6.905  16.851  16.795  1.00  0.00    -0.361 N
ATOM     23  H7  UNL     1       6.912  17.851  16.599  1.00  0.00     0.162 HD
BRANCH  22  24
HETATM   24  C22 UNL     1       5.635  16.213  16.909  1.00  0.00     0.124 C
BRANCH  24  25
HETATM   25  C23 UNL     1       5.195  15.903  18.310  1.00  0.00     0.050 C
BRANCH  25  26
HETATM   26  C24 UNL     1       5.062  17.087  19.206  1.00  0.00     0.274 C
BRANCH  26  27
HETATM   27  N8  UNL     1       5.985  17.150  20.297  1.00  0.00     0.092 N
HETATM   28  C25 UNL     1       6.969  18.203  20.137  1.00  0.00     0.298 C
HETATM   29  C26 UNL     1       8.137  18.021  21.073  1.00  0.00     0.198 C
HETATM   30  O2  UNL     1       7.923  16.971  21.964  1.00  0.00    -0.388 OA
HETATM   31  C27 UNL     1       7.869  15.815  21.169  1.00  0.00     0.198 C
HETATM   32  C28 UNL     1       6.620  15.823  20.358  1.00  0.00     0.298 C
ENDBRANCH  26  27
ENDBRANCH  25  26
ENDBRANCH  24  25
ENDBRANCH  22  24
ENDBRANCH  17  20
ENDBRANCH  11  14
ENDBRANCH  10  11
ENDBRANCH   9  10
BRANCH   5  33
HETATM   33  C4  UNL     1      16.498  23.834  17.395  1.00  0.00     0.076 A
HETATM   34  C5  UNL     1      17.830  23.661  17.138  1.00  0.00     0.121 A
HETATM   35  N2  UNL     1      18.734  24.627  17.431  1.00  0.00    -0.349 N
HETATM   36  C6  UNL     1      18.328  25.796  17.992  1.00  0.00     0.116 A
ATOM     37  H2  UNL     1      19.722  24.475  17.230  1.00  0.00     0.167 HD
HETATM   38  C13 UNL     1      17.016  25.985  18.253  1.00  0.00     0.136 A
HETATM   39  N4  UNL     1      16.129  24.996  17.947  1.00  0.00    -0.359 N
ATOM     40  H4  UNL     1      15.141  25.148  18.148  1.00  0.00     0.165 HD
BRANCH  36  41
HETATM   41  N3  UNL     1      19.221  26.673  18.252  1.00  0.00    -0.371 N
ATOM     42  H3  UNL     1      20.004  26.399  18.847  1.00  0.00     0.161 HD
BRANCH  41  43
HETATM   43  C7  UNL     1      19.188  28.020  17.757  1.00  0.00     0.155 C
BRANCH  43  44
HETATM   44  C8  UNL     1      19.482  27.995  16.283  1.00  0.00    -0.066 C
HETATM   45  C9  UNL     1      18.660  28.418  15.325  1.00  0.00    -0.022 C
HETATM   46  C10 UNL     1      19.277  28.243  14.004  1.00  0.00     0.028 C
HETATM   47  C11 UNL     1      20.691  27.823  14.264  1.00  0.00     0.008 C
HETATM   48  C12 UNL     1      20.749  27.484  15.719  1.00  0.00     0.036 C
ENDBRANCH  43  44
ENDBRANCH  41  43
ENDBRANCH  36  41
ENDBRANCH   5  33
TORSDOF 12
ENDMDL