MODEL 3
REMARK VINA RESULT: -8.882744753      1.593      2.169
REMARK  13 active torsions:
REMARK  status: ('A' for Active; 'I' for Inactive)
REMARK    1  A    between atoms: O1_2  and  C2_3
REMARK    2  A    between atoms: C2_3  and  C3_4
REMARK    3  A    between atoms: C3_4  and  C4_5
REMARK    4  A    between atoms: C4_5  and  O2_6
REMARK    5  A    between atoms: O2_6  and  C5_7
REMARK    6  A    between atoms: C5_7  and  C6_9
REMARK       I    between atoms: N1_15  and  C12_16
REMARK    7  A    between atoms: C12_16  and  C13_18
REMARK    8  A    between atoms: C13_18  and  C14_19
REMARK    9  A    between atoms: C13_18  and  N2_26
REMARK   10  A    between atoms: C14_19  and  C15_20
REMARK       I    between atoms: N2_26  and  C21_28
REMARK   11  A    between atoms: C21_28  and  O6_30
REMARK   12  A    between atoms: O6_30  and  C22_31
REMARK   13  A    between atoms: C22_31  and  C25_34
REMARK       I    between atoms: C25_34  and  N3_36
REMARK       I    between atoms: N3_36  and  C26_38
ROOT
HETATM    1  C13 UNL     1      12.920  22.324  17.377  1.00  0.00     0.202 C
ENDROOT
BRANCH   1   2
HETATM    2  C12 UNL     1      13.033  20.890  17.716  1.00  0.00     0.247 C
HETATM    3  N1  UNL     1      12.021  19.922  17.642  1.00  0.00    -0.341 N
HETATM    4  C9  UNL     1      12.171  18.544  18.029  1.00  0.00     0.028 C
HETATM    5  C27 UNL     1      10.684  20.239  17.111  1.00  0.00     0.141 C
HETATM    6  C8  UNL     1      11.796  17.601  16.897  1.00  0.00     0.031 C
HETATM    7  C10 UNL     1      11.112  18.301  19.120  1.00  0.00     0.038 C
HETATM    8  C11 UNL     1      13.476  18.156  18.626  1.00  0.00     0.038 C
HETATM    9  C7  UNL     1      11.407  18.343  15.645  1.00  0.00     0.019 C
HETATM   10  C6  UNL     1      10.374  19.400  15.889  1.00  0.00     0.104 C
HETATM   11  O4  UNL     1      14.213  20.548  18.110  1.00  0.00    -0.271 OA
BRANCH  10  12
HETATM   12  C5  UNL     1       9.028  18.770  15.997  1.00  0.00     0.264 C
HETATM   13  O3  UNL     1       8.561  18.520  17.136  1.00  0.00    -0.265 OA
BRANCH  12  14
HETATM   14  O2  UNL     1       8.255  18.440  14.903  1.00  0.00    -0.321 OA
BRANCH  14  15
HETATM   15  C4  UNL     1       7.597  17.211  14.705  1.00  0.00     0.180 C
BRANCH  15  16
HETATM   16  C3  UNL     1       8.517  16.026  14.636  1.00  0.00     0.053 C
BRANCH  16  17
HETATM   17  C2  UNL     1       7.934  14.958  15.564  1.00  0.00     0.169 C
BRANCH  17  18
HETATM   18  O1  UNL     1       8.406  15.136  16.860  1.00  0.00    -0.396 OA
HETATM   19  C1  UNL     1       7.365  15.375  17.738  1.00  0.00     0.201 C
ENDBRANCH  17  18
ENDBRANCH  16  17
ENDBRANCH  15  16
ENDBRANCH  14  15
ENDBRANCH  12  14
ENDBRANCH  10  12
ENDBRANCH   1   2
BRANCH   1  20
HETATM   20  C14 UNL     1      13.192  23.248  18.498  1.00  0.00     0.010 C
BRANCH  20  21
HETATM   21  C15 UNL     1      14.466  23.948  18.663  1.00  0.00    -0.081 C
HETATM   22  C16 UNL     1      14.426  25.445  18.606  1.00  0.00     0.034 C
HETATM   23  C17 UNL     1      15.857  25.963  18.578  1.00  0.00     0.004 C
HETATM   24  C18 UNL     1      16.490  25.492  19.885  1.00  0.00     0.001 C
HETATM   25  C19 UNL     1      16.723  24.001  19.734  1.00  0.00     0.004 C
HETATM   26  C20 UNL     1      15.334  23.364  19.724  1.00  0.00     0.034 C
ENDBRANCH  20  21
ENDBRANCH   1  20
BRANCH   1  27
HETATM   27  N2  UNL     1      14.087  22.547  16.451  1.00  0.00    -0.320 N
HETATM   28  C21 UNL     1      14.080  22.057  15.132  1.00  0.00     0.362 C
HETATM   29  O5  UNL     1      13.085  21.421  14.702  1.00  0.00    -0.238 OA
ATOM     30  H2  UNL     1      14.900  23.065  16.786  1.00  0.00     0.166 HD
BRANCH  28  31
HETATM   31  O6  UNL     1      15.132  22.248  14.290  1.00  0.00    -0.284 OA
BRANCH  31  32
HETATM   32  C22 UNL     1      16.467  22.372  14.624  1.00  0.00     0.146 C
HETATM   33  C23 UNL     1      17.296  21.135  14.438  1.00  0.00     0.057 C
HETATM   34  C24 UNL     1      16.663  22.783  16.088  1.00  0.00     0.057 C
BRANCH  32  35
HETATM   35  C25 UNL     1      17.079  23.463  13.829  1.00  0.00     0.260 C
HETATM   36  O7  UNL     1      18.341  23.467  13.719  1.00  0.00    -0.270 OA
HETATM   37  N3  UNL     1      16.334  24.475  13.200  1.00  0.00    -0.279 N
HETATM   38  C26 UNL     1      16.965  25.474  12.431  1.00  0.00     0.335 C
ATOM     39  H3  UNL     1      15.320  24.486  13.301  1.00  0.00     0.173 HD
HETATM   40  N4  UNL     1      18.372  25.468  12.275  1.00  0.00    -0.040 NA
HETATM   41  O8  UNL     1      16.247  26.369  11.889  1.00  0.00    -0.251 OA
ENDBRANCH  32  35
ENDBRANCH  31  32
ENDBRANCH  28  31
ENDBRANCH   1  27
TORSDOF 13
ENDMDL