MODEL 3
REMARK VINA RESULT: -9.367566259      2.367      4.536
REMARK  11 active torsions:
REMARK  status: ('A' for Active; 'I' for Inactive)
REMARK    1  A    between atoms: C2_2  and  C3_3
REMARK    2  A    between atoms: C3_3  and  N1_4
REMARK    3  A    between atoms: C6_10  and  C7_11
REMARK    4  A    between atoms: C12_16  and  N3_17
REMARK       I    between atoms: N3_17  and  C13_19
REMARK    5  A    between atoms: C13_19  and  C14_21
REMARK    6  A    between atoms: C14_21  and  C15_22
REMARK    7  A    between atoms: C15_22  and  C16_23
REMARK    8  A    between atoms: C16_23  and  C17_25
REMARK    9  A    between atoms: C17_25  and  N4_26
REMARK   10  A    between atoms: N7_38  and  C24_39
REMARK   11  A    between atoms: C24_39  and  C25_40
ROOT
HETATM    1  C7  UNL     1      11.111  17.929  15.614  1.00  0.00     0.010 A
HETATM    2  C8  UNL     1      11.436  17.097  14.574  1.00  0.00     0.016 A
HETATM    3  C9  UNL     1      10.575  16.113  14.170  1.00  0.00     0.010 A
HETATM    4  C10 UNL     1       9.374  15.980  14.833  1.00  0.00    -0.035 A
HETATM    5  C11 UNL     1       8.420  14.918  14.413  1.00  0.00     0.050 C
HETATM    6  C12 UNL     1       8.986  16.795  15.898  1.00  0.00     0.041 A
HETATM    7  C22 UNL     1       9.881  17.765  16.267  1.00  0.00     0.045 A
ENDROOT
BRANCH   1   8
HETATM    8  C6  UNL     1      12.005  18.985  16.070  1.00  0.00     0.117 A
HETATM    9  N2  UNL     1      11.911  19.692  17.203  1.00  0.00    -0.334 N
HETATM   10  C5  UNL     1      12.926  20.576  17.266  1.00  0.00     0.147 A
ATOM     11  H2  UNL     1      11.184  19.578  17.909  1.00  0.00     0.168 HD
HETATM   12  C4  UNL     1      13.302  21.537  18.203  1.00  0.00     0.282 A
HETATM   13  C23 UNL     1      13.699  20.433  16.134  1.00  0.00     0.146 A
HETATM   14  N1  UNL     1      14.378  22.300  18.016  1.00  0.00    -0.264 N
HETATM   15  O1  UNL     1      12.610  21.669  19.224  1.00  0.00    -0.265 OA
HETATM   16  C27 UNL     1      15.111  22.130  16.892  1.00  0.00     0.333 A
HETATM   17  N7  UNL     1      14.781  21.214  15.965  1.00  0.00    -0.283 N
HETATM   18  O5  UNL     1      16.119  22.867  16.751  1.00  0.00    -0.246 OA
HETATM   19  N6  UNL     1      13.107  19.456  15.430  1.00  0.00    -0.326 N
ATOM     20  H6  UNL     1      13.442  19.111  14.531  1.00  0.00     0.169 HD
BRANCH  14  21
HETATM   21  C3  UNL     1      14.723  23.281  19.021  1.00  0.00     0.137 C
BRANCH  21  22
HETATM   22  C2  UNL     1      14.142  24.617  18.550  1.00  0.00     0.016 C
HETATM   23  C1  UNL     1      15.220  25.656  18.807  1.00  0.00     0.006 C
ENDBRANCH  21  22
ENDBRANCH  14  21
BRANCH  17  24
HETATM   24  C24 UNL     1      15.594  21.067  14.778  1.00  0.00     0.135 C
BRANCH  24  25
HETATM   25  C25 UNL     1      15.061  21.952  13.675  1.00  0.00     0.016 C
HETATM   26  C26 UNL     1      14.666  21.075  12.498  1.00  0.00     0.006 C
ENDBRANCH  24  25
ENDBRANCH  17  24
ENDBRANCH   1   8
BRANCH   6  27
HETATM   27  N3  UNL     1       7.737  16.576  16.511  1.00  0.00    -0.327 N
HETATM   28  C13 UNL     1       7.421  15.809  17.635  1.00  0.00     0.222 C
HETATM   29  O2  UNL     1       8.267  15.178  18.278  1.00  0.00    -0.273 OA
ATOM     30  H3  UNL     1       6.948  17.047  16.069  1.00  0.00     0.169 HD
BRANCH  28  31
HETATM   31  C14 UNL     1       6.014  15.718  18.115  1.00  0.00     0.110 C
BRANCH  31  32
HETATM   32  C15 UNL     1       5.535  17.049  18.626  1.00  0.00     0.089 C
BRANCH  32  33
HETATM   33  C16 UNL     1       5.490  17.020  20.106  1.00  0.00     0.145 C
HETATM   34  O3  UNL     1       4.993  16.081  20.683  1.00  0.00    -0.296 OA
BRANCH  33  35
HETATM   35  C17 UNL     1       6.051  18.136  20.905  1.00  0.00     0.206 C
BRANCH  35  36
HETATM   36  N4  UNL     1       7.475  18.230  20.774  1.00  0.00    -0.321 N
HETATM   37  C18 UNL     1       8.489  17.270  21.119  1.00  0.00     0.319 C
HETATM   38  O4  UNL     1       8.234  16.055  21.344  1.00  0.00    -0.247 OA
HETATM   39  N5  UNL     1       9.741  17.941  21.148  1.00  0.00    -0.341 N
HETATM   40  C19 UNL     1       9.426  19.375  21.144  1.00  0.00     0.149 C
ATOM     41  H5  UNL     1      10.667  17.515  21.167  1.00  0.00     0.164 HD
HETATM   42  C20 UNL     1       8.186  19.367  20.243  1.00  0.00     0.103 C
HETATM   43  C21 UNL     1       8.607  19.130  18.816  1.00  0.00     0.034 C
ENDBRANCH  35  36
ENDBRANCH  33  35
ENDBRANCH  32  33
ENDBRANCH  31  32
ENDBRANCH  28  31
ENDBRANCH   6  27
TORSDOF 11
ENDMDL