MODEL 4
REMARK VINA RESULT: -8.889514266      2.363      8.001
REMARK  12 active torsions:
REMARK  status: ('A' for Active; 'I' for Inactive)
REMARK    1  A    between atoms: C2_2  and  N1_3
REMARK    2  A    between atoms: N1_3  and  C3_5
REMARK    3  A    between atoms: C3_5  and  C5_7
REMARK    4  A    between atoms: C8_10  and  C9_11
REMARK    5  A    between atoms: C9_11  and  C10_12
REMARK       I    between atoms: C10_12  and  N2_14
REMARK    6  A    between atoms: N2_14  and  C11_16
REMARK    7  A    between atoms: C12_21  and  C13_22
REMARK    8  A    between atoms: C13_22  and  C14_23
REMARK    9  A    between atoms: C14_23  and  C15_24
REMARK   10  A    between atoms: C15_24  and  C16_25
REMARK   11  A    between atoms: C16_25  and  C17_26
REMARK       I    between atoms: N7_32  and  C19_34
REMARK   12  A    between atoms: C19_34  and  C20_36
REMARK       I    between atoms: C20_36  and  N8_38
ROOT
HETATM    1  C11 UNL     1      10.812  18.743  18.549  1.00  0.00     0.167 A
HETATM    2  N3  UNL     1      11.653  17.816  18.405  1.00  0.00    -0.279 N
ATOM      3  H3  UNL     1      12.200  17.528  19.217  1.00  0.00     0.189 HD
HETATM    4  N4  UNL     1      11.857  17.213  17.290  1.00  0.00    -0.296 N
ATOM      5  H4  UNL     1      12.549  16.466  17.232  1.00  0.00     0.187 HD
HETATM    6  C12 UNL     1      11.181  17.557  16.229  1.00  0.00     0.069 A
HETATM    7  S2  UNL     1      10.183  18.826  16.878  1.00  0.00    -0.038 SA
ENDROOT
BRANCH   6   8
HETATM    8  C13 UNL     1      11.027  17.047  14.830  1.00  0.00     0.066 C
BRANCH   8   9
HETATM    9  C14 UNL     1       9.702  16.586  14.464  1.00  0.00     0.007 C
BRANCH   9  10
HETATM   10  C15 UNL     1       9.324  15.191  14.886  1.00  0.00     0.007 C
BRANCH  10  11
HETATM   11  C16 UNL     1       7.807  15.027  14.821  1.00  0.00     0.066 C
BRANCH  11  12
HETATM   12  C17 UNL     1       7.192  15.444  16.130  1.00  0.00     0.069 A
HETATM   13  N5  UNL     1       6.275  14.737  16.773  1.00  0.00    -0.296 N
HETATM   14  N6  UNL     1       5.816  15.112  17.885  1.00  0.00    -0.279 N
ATOM     15  H5  UNL     1       5.933  13.870  16.359  1.00  0.00     0.187 HD
HETATM   16  C18 UNL     1       6.270  16.244  18.409  1.00  0.00     0.168 A
ATOM     17  H6  UNL     1       5.110  14.557  18.371  1.00  0.00     0.189 HD
HETATM   18  N7  UNL     1       5.950  16.840  19.555  1.00  0.00    -0.298 N
HETATM   19  S1  UNL     1       7.411  16.733  17.199  1.00  0.00    -0.038 SA
HETATM   20  C19 UNL     1       6.670  18.068  19.785  1.00  0.00     0.315 C
ATOM     21  H7  UNL     1       5.261  16.465  20.207  1.00  0.00     0.171 HD
HETATM   22  O2  UNL     1       7.213  19.013  19.947  1.00  0.00    -0.262 OA
BRANCH  20  23
HETATM   23  C20 UNL     1       7.468  17.373  21.209  1.00  0.00     0.311 C
HETATM   24  O3  UNL     1       8.582  17.074  20.985  1.00  0.00    -0.262 OA
HETATM   25  N8  UNL     1       6.618  17.311  22.259  1.00  0.00    -0.353 N
HETATM   26  C21 UNL     1       6.772  16.329  23.353  1.00  0.00     0.152 C
HETATM   27  C22 UNL     1       5.584  18.349  22.536  1.00  0.00     0.152 C
ENDBRANCH  20  23
ENDBRANCH  11  12
ENDBRANCH  10  11
ENDBRANCH   9  10
ENDBRANCH   8   9
ENDBRANCH   6   8
BRANCH   1  28
HETATM   28  N2  UNL     1      10.185  19.500  19.445  1.00  0.00    -0.306 N
HETATM   29  C10 UNL     1      10.774  20.848  19.560  1.00  0.00     0.228 C
HETATM   30  O1  UNL     1      10.075  21.812  19.362  1.00  0.00    -0.273 OA
ATOM     31  H2  UNL     1       9.385  19.183  19.993  1.00  0.00     0.171 HD
BRANCH  29  32
HETATM   32  C9  UNL     1      12.183  20.835  19.911  1.00  0.00     0.149 C
BRANCH  32  33
HETATM   33  C8  UNL     1      13.008  21.546  18.887  1.00  0.00    -0.008 A
HETATM   34  C7  UNL     1      13.517  22.799  18.879  1.00  0.00     0.016 A
HETATM   35  C6  UNL     1      14.256  23.173  17.811  1.00  0.00     0.018 A
HETATM   36  C5  UNL     1      14.441  22.238  16.815  1.00  0.00     0.005 A
HETATM   37  S3  UNL     1      13.584  20.884  17.384  1.00  0.00    -0.097 SA
BRANCH  36  38
HETATM   38  C3  UNL     1      15.239  22.343  15.533  1.00  0.00     0.116 C
HETATM   39  C4  UNL     1      15.738  20.985  15.236  1.00  0.00     0.038 C
BRANCH  38  40
HETATM   40  N1  UNL     1      16.256  23.312  15.648  1.00  0.00    -0.394 N
ATOM     41  H1  UNL     1      16.022  24.283  15.441  1.00  0.00     0.159 HD
BRANCH  40  42
HETATM   42  C2  UNL     1      17.565  23.018  16.029  1.00  0.00     0.052 C
HETATM   43  C1  UNL     1      18.045  23.422  17.371  1.00  0.00     0.054 C
ENDBRANCH  40  42
ENDBRANCH  38  40
ENDBRANCH  36  38
ENDBRANCH  32  33
ENDBRANCH  29  32
ENDBRANCH   1  28
TORSDOF 12
ENDMDL