MODEL 3
REMARK VINA RESULT: -8.521842206      2.380      5.183
REMARK  15 active torsions:
REMARK  status: ('A' for Active; 'I' for Inactive)
REMARK    1  A    between atoms: C2_2  and  C3_3
REMARK    2  A    between atoms: C3_3  and  C4_4
REMARK    3  A    between atoms: C4_4  and  C5_5
REMARK    4  A    between atoms: C5_5  and  O1_6
REMARK    5  A    between atoms: O1_6  and  C6_7
REMARK       I    between atoms: C6_7  and  N1_9
REMARK    6  A    between atoms: C10_13  and  C11_14
REMARK       I    between atoms: C11_14  and  N2_16
REMARK    7  A    between atoms: N2_16  and  C12_18
REMARK    8  A    between atoms: C13_22  and  C14_23
REMARK    9  A    between atoms: C14_23  and  C17_26
REMARK   10  A    between atoms: C19_28  and  N4_29
REMARK       I    between atoms: N4_29  and  C20_31
REMARK   11  A    between atoms: C20_31  and  C21_33
REMARK       I    between atoms: C21_33  and  N5_35
REMARK   12  A    between atoms: N5_35  and  C22_37
REMARK   13  A    between atoms: C22_37  and  C23_38
REMARK   14  A    between atoms: C23_38  and  C24_39
REMARK   15  A    between atoms: C24_39  and  O8_41
ROOT
HETATM    1  C12 UNL     1      12.676  20.328  17.500  1.00  0.00     0.158 A
HETATM    2  N3  UNL     1      13.246  20.864  18.587  1.00  0.00    -0.242 N
ATOM      3  H3  UNL     1      14.177  21.277  18.625  1.00  0.00     0.196 HD
HETATM    4  O4  UNL     1      12.441  20.773  19.562  1.00  0.00    -0.237 OA
HETATM    5  C13 UNL     1      11.297  20.194  19.252  1.00  0.00     0.115 A
HETATM    6  C19 UNL     1      11.416  19.894  17.923  1.00  0.00     0.114 A
ENDROOT
BRANCH   1   7
HETATM    7  N2  UNL     1      13.112  20.165  16.304  1.00  0.00    -0.308 N
HETATM    8  C11 UNL     1      14.031  20.994  15.631  1.00  0.00     0.246 C
HETATM    9  O3  UNL     1      13.643  21.952  14.922  1.00  0.00    -0.271 OA
ATOM     10  H2  UNL     1      12.759  19.357  15.791  1.00  0.00     0.170 HD
BRANCH   8  11
HETATM   11  C10 UNL     1      15.507  20.769  15.731  1.00  0.00     0.182 C
HETATM   12  N1  UNL     1      16.222  21.975  15.951  1.00  0.00    -0.315 N
HETATM   13  C6  UNL     1      16.155  22.815  17.093  1.00  0.00     0.363 C
HETATM   14  C7  UNL     1      17.039  22.247  14.793  1.00  0.00     0.129 C
HETATM   15  O2  UNL     1      15.449  22.530  18.090  1.00  0.00    -0.238 OA
HETATM   16  C8  UNL     1      16.998  21.075  13.877  1.00  0.00     0.022 C
HETATM   17  C9  UNL     1      16.027  20.110  14.484  1.00  0.00     0.037 C
BRANCH  13  18
HETATM   18  O1  UNL     1      16.875  24.010  17.174  1.00  0.00    -0.304 OA
BRANCH  18  19
HETATM   19  C5  UNL     1      18.126  24.127  17.816  1.00  0.00     0.180 C
BRANCH  19  20
HETATM   20  C4  UNL     1      18.168  25.546  18.390  1.00  0.00     0.027 C
BRANCH  20  21
HETATM   21  C3  UNL     1      16.974  25.783  19.283  1.00  0.00     0.002 C
BRANCH  21  22
HETATM   22  C2  UNL     1      17.019  24.885  20.500  1.00  0.00    -0.004 C
HETATM   23  C1  UNL     1      15.636  24.414  20.876  1.00  0.00     0.005 C
ENDBRANCH  21  22
ENDBRANCH  20  21
ENDBRANCH  19  20
ENDBRANCH  18  19
ENDBRANCH  13  18
ENDBRANCH   8  11
ENDBRANCH   1   7
BRANCH   6  24
HETATM   24  N4  UNL     1      10.500  19.260  17.089  1.00  0.00    -0.314 N
HETATM   25  C20 UNL     1      10.636  18.014  16.454  1.00  0.00     0.314 C
HETATM   26  O5  UNL     1      11.718  17.343  16.619  1.00  0.00    -0.262 OA
ATOM     27  H4  UNL     1       9.627  19.759  16.919  1.00  0.00     0.169 HD
BRANCH  25  28
HETATM   28  C21 UNL     1       9.616  17.421  15.605  1.00  0.00     0.309 C
HETATM   29  O6  UNL     1      10.010  16.733  14.644  1.00  0.00    -0.262 OA
HETATM   30  N5  UNL     1       8.252  17.607  15.847  1.00  0.00    -0.352 N
ATOM     31  H5  UNL     1       7.979  18.173  16.650  1.00  0.00     0.162 HD
BRANCH  30  32
HETATM   32  C22 UNL     1       7.212  17.045  15.027  1.00  0.00     0.133 C
BRANCH  32  33
HETATM   33  C23 UNL     1       6.470  15.988  15.763  1.00  0.00     0.130 C
BRANCH  33  34
HETATM   34  C24 UNL     1       7.458  15.017  16.356  1.00  0.00     0.259 C
HETATM   35  O7  UNL     1       8.079  14.211  15.638  1.00  0.00    -0.265 OA
BRANCH  34  36
HETATM   36  O8  UNL     1       7.656  15.049  17.721  1.00  0.00    -0.326 OA
HETATM   37  C25 UNL     1       6.784  15.822  18.523  1.00  0.00     0.213 C
ENDBRANCH  34  36
ENDBRANCH  33  34
ENDBRANCH  32  33
ENDBRANCH  30  32
ENDBRANCH  25  28
ENDBRANCH   6  24
BRANCH   5  38
HETATM   38  C14 UNL     1      10.201  19.966  20.193  1.00  0.00     0.006 C
HETATM   39  C15 UNL     1      10.496  18.772  21.117  1.00  0.00     0.022 C
HETATM   40  C16 UNL     1      10.164  21.171  21.161  1.00  0.00     0.022 C
BRANCH  38  41
HETATM   41  C17 UNL     1       8.831  19.903  19.616  1.00  0.00     0.011 C
HETATM   42  C18 UNL     1       8.057  18.842  20.416  1.00  0.00     0.006 C
ENDBRANCH  38  41
ENDBRANCH   5  38
TORSDOF 15
ENDMDL