MODEL 1
REMARK VINA RESULT: -9.304682894      0.000      0.000
REMARK  14 active torsions:
REMARK  status: ('A' for Active; 'I' for Inactive)
REMARK    1  A    between atoms: O1_2  and  C2_3
REMARK    2  A    between atoms: C5_6  and  C6_7
REMARK    3  A    between atoms: C6_7  and  C7_8
REMARK    4  A    between atoms: C7_8  and  N1_9
REMARK    5  A    between atoms: N1_9  and  C8_10
REMARK    6  A    between atoms: C9_13  and  N3_14
REMARK    7  A    between atoms: N3_14  and  C10_16
REMARK    8  A    between atoms: C10_16  and  C11_17
REMARK    9  A    between atoms: C11_17  and  C12_18
REMARK   10  A    between atoms: C12_18  and  C13_19
REMARK   11  A    between atoms: C13_19  and  N4_20
REMARK   12  A    between atoms: C18_28  and  N6_29
REMARK   13  A    between atoms: N6_29  and  C19_31
REMARK   14  A    between atoms: C28_43  and  O3_44
ROOT
HETATM    1  C19 UNL     1       8.405  18.410  20.724  1.00  0.00     0.051 A
HETATM    2  C20 UNL     1       7.335  18.972  20.028  1.00  0.00     0.037 A
HETATM    3  C21 UNL     1       6.039  18.726  20.370  1.00  0.00    -0.058 A
HETATM    4  C22 UNL     1       4.887  19.344  19.641  1.00  0.00     0.048 C
HETATM    5  C23 UNL     1       5.747  17.899  21.430  1.00  0.00     0.029 A
HETATM    6  C24 UNL     1       6.783  17.320  22.147  1.00  0.00     0.047 A
HETATM    7  C25 UNL     1       6.525  16.457  23.253  1.00  0.00     0.099 C
HETATM    8  N7  UNL     1       6.288  15.755  24.148  1.00  0.00    -0.191 NA
HETATM    9  C26 UNL     1       8.086  17.591  21.774  1.00  0.00     0.052 A
ENDROOT
BRANCH   1  10
HETATM   10  N6  UNL     1       9.721  18.691  20.381  1.00  0.00    -0.191 N
ATOM     11  H6  UNL     1      10.224  19.276  21.048  1.00  0.00     0.184 HD
BRANCH  10  12
HETATM   12  C18 UNL     1      10.396  18.332  19.366  1.00  0.00     0.700 A
HETATM   13  N5  UNL     1      11.735  18.523  19.442  1.00  0.00    -0.022 N
HETATM   14  C9  UNL     1      12.603  18.192  18.477  1.00  0.00     0.700 A
ATOM     15  H5  UNL     1      12.108  18.945  20.292  1.00  0.00     0.203 HD
HETATM   16  N2  UNL     1      12.029  17.622  17.367  1.00  0.00    -0.148 N
HETATM   17  C8  UNL     1      10.728  17.404  17.207  1.00  0.00     0.287 A
ATOM     18  H2  UNL     1      12.649  17.346  16.606  1.00  0.00     0.188 HD
HETATM   19  N8  UNL     1       9.922  17.787  18.270  1.00  0.00    -0.148 N
ATOM     20  H8  UNL     1       8.916  17.638  18.196  1.00  0.00     0.188 HD
BRANCH  14  21
HETATM   21  N3  UNL     1      13.859  18.376  18.476  1.00  0.00    -0.205 N
ATOM     22  H3  UNL     1      14.384  17.567  18.812  1.00  0.00     0.183 HD
BRANCH  21  23
HETATM   23  C10 UNL     1      14.680  19.455  18.113  1.00  0.00     0.079 C
BRANCH  23  24
HETATM   24  C11 UNL     1      14.023  20.778  17.921  1.00  0.00     0.047 C
BRANCH  24  25
HETATM   25  C12 UNL     1      14.640  21.818  18.882  1.00  0.00     0.035 C
BRANCH  25  26
HETATM   26  C13 UNL     1      14.551  23.148  18.220  1.00  0.00     0.273 C
BRANCH  26  27
HETATM   27  N4  UNL     1      15.159  24.202  18.944  1.00  0.00     0.092 N
HETATM   28  C14 UNL     1      15.485  23.818  20.269  1.00  0.00     0.298 C
HETATM   29  C15 UNL     1      16.674  24.494  20.883  1.00  0.00     0.198 C
HETATM   30  O2  UNL     1      17.804  24.445  20.099  1.00  0.00    -0.388 OA
HETATM   31  C16 UNL     1      17.527  24.252  18.757  1.00  0.00     0.198 C
HETATM   32  C17 UNL     1      16.226  24.897  18.343  1.00  0.00     0.298 C
ENDBRANCH  26  27
ENDBRANCH  25  26
ENDBRANCH  24  25
ENDBRANCH  23  24
ENDBRANCH  21  23
ENDBRANCH  14  21
BRANCH  17  33
HETATM   33  N1  UNL     1      10.215  16.941  16.193  1.00  0.00    -0.387 NA
BRANCH  33  34
HETATM   34  C7  UNL     1       9.660  16.462  15.143  1.00  0.00     0.163 C
BRANCH  34  35
HETATM   35  C6  UNL     1       8.846  15.143  15.171  1.00  0.00     0.098 C
BRANCH  35  36
HETATM   36  C5  UNL     1       7.648  15.407  15.976  1.00  0.00    -0.050 A
HETATM   37  C4  UNL     1       7.702  15.368  17.352  1.00  0.00     0.010 A
HETATM   38  C3  UNL     1       6.559  15.703  18.084  1.00  0.00     0.040 A
HETATM   39  C2  UNL     1       5.395  16.063  17.426  1.00  0.00     0.101 A
HETATM   40  C28 UNL     1       5.322  16.100  16.037  1.00  0.00     0.102 A
HETATM   41  C27 UNL     1       6.460  15.767  15.381  1.00  0.00     0.047 A
BRANCH  39  42
HETATM   42  O1  UNL     1       4.292  16.408  18.256  1.00  0.00    -0.353 OA
HETATM   43  C1  UNL     1       3.491  15.383  18.765  1.00  0.00     0.210 C
ENDBRANCH  39  42
BRANCH  40  44
HETATM   44  O3  UNL     1       4.124  16.465  15.489  1.00  0.00    -0.353 OA
HETATM   45  C29 UNL     1       3.114  15.566  15.100  1.00  0.00     0.210 C
ENDBRANCH  40  44
ENDBRANCH  35  36
ENDBRANCH  34  35
ENDBRANCH  33  34
ENDBRANCH  17  33
ENDBRANCH  10  12
ENDBRANCH   1  10
TORSDOF 14
ENDMDL