MODEL 2
REMARK VINA RESULT: -7.773117482      0.844      1.455
REMARK  11 active torsions:
REMARK  status: ('A' for Active; 'I' for Inactive)
REMARK    1  A    between atoms: C2_2  and  C3_3
REMARK    2  A    between atoms: C3_3  and  C4_4
REMARK    3  A    between atoms: C4_4  and  C5_5
REMARK    4  A    between atoms: C5_5  and  C6_6
REMARK    5  A    between atoms: C6_6  and  C7_7
REMARK    6  A    between atoms: C7_7  and  C8_8
REMARK       I    between atoms: C8_8  and  N1_10
REMARK    7  A    between atoms: N1_10  and  C9_12
REMARK    8  A    between atoms: C11_14  and  O2_15
REMARK    9  A    between atoms: C15_24  and  C16_25
REMARK   10  A    between atoms: C16_25  and  C17_26
REMARK   11  A    between atoms: C17_26  and  S1_27
ROOT
HETATM    1  C9  UNL     1      13.346  20.691  18.612  1.00  0.00     0.137 C
HETATM    2  C10 UNL     1      14.540  19.893  18.917  1.00  0.00     0.055 C
HETATM    3  C11 UNL     1      13.322  22.122  18.846  1.00  0.00     0.148 C
HETATM    4  N2  UNL     1      14.295  23.134  18.823  1.00  0.00    -0.359 N
HETATM    5  C12 UNL     1      13.923  24.463  18.284  1.00  0.00     0.152 C
HETATM    6  C13 UNL     1      15.664  23.030  19.281  1.00  0.00     0.227 C
HETATM    7  C14 UNL     1      16.365  24.311  19.465  1.00  0.00     0.236 C
HETATM    8  O3  UNL     1      15.955  25.041  20.435  1.00  0.00    -0.272 OA
HETATM    9  N3  UNL     1      17.437  24.785  18.664  1.00  0.00    -0.346 N
ATOM     10  H3  UNL     1      18.194  25.271  19.142  1.00  0.00     0.163 HD
HETATM   11  C15 UNL     1      17.548  24.640  17.232  1.00  0.00     0.177 C
HETATM   12  C19 UNL     1      18.052  23.345  16.770  1.00  0.00     0.240 C
HETATM   13  O4  UNL     1      19.080  22.880  17.359  1.00  0.00    -0.271 OA
HETATM   14  N4  UNL     1      17.486  22.565  15.720  1.00  0.00    -0.359 N
ATOM     15  H4  UNL     1      18.056  21.807  15.346  1.00  0.00     0.162 HD
HETATM   16  C20 UNL     1      16.195  22.750  15.145  1.00  0.00     0.123 C
HETATM   17  C21 UNL     1      15.465  21.498  14.769  1.00  0.00     0.025 C
HETATM   18  C22 UNL     1      15.124  20.618  15.966  1.00  0.00     0.050 C
HETATM   19  C23 UNL     1      13.693  20.374  16.138  1.00  0.00     0.009 A
HETATM   20  S2  UNL     1      12.625  19.980  14.834  1.00  0.00    -0.087 SA
HETATM   21  C24 UNL     1      11.170  19.843  15.712  1.00  0.00     0.138 A
HETATM   22  N5  UNL     1      11.580  20.104  16.938  1.00  0.00    -0.360 N
ATOM     23  H5  UNL     1      10.909  20.097  17.706  1.00  0.00     0.165 HD
HETATM   24  C25 UNL     1      12.853  20.376  17.184  1.00  0.00     0.059 A
ENDROOT
BRANCH   1  25
HETATM   25  N1  UNL     1      12.347  20.156  19.585  1.00  0.00    -0.339 N
HETATM   26  C8  UNL     1      11.983  18.809  19.591  1.00  0.00     0.218 C
HETATM   27  O1  UNL     1      12.464  17.952  18.785  1.00  0.00    -0.274 OA
ATOM     28  H1  UNL     1      11.922  20.790  20.262  1.00  0.00     0.164 HD
BRANCH  26  29
HETATM   29  C7  UNL     1      10.984  18.350  20.585  1.00  0.00     0.103 C
BRANCH  29  30
HETATM   30  C6  UNL     1      10.067  19.498  20.914  1.00  0.00     0.009 C
BRANCH  30  31
HETATM   31  C5  UNL     1       8.745  19.340  20.216  1.00  0.00     0.000 C
BRANCH  31  32
HETATM   32  C4  UNL     1       8.283  17.923  20.283  1.00  0.00     0.000 C
BRANCH  32  33
HETATM   33  C3  UNL     1       7.804  17.363  18.983  1.00  0.00    -0.000 C
BRANCH  33  34
HETATM   34  C2  UNL     1       8.610  17.964  17.819  1.00  0.00    -0.005 C
HETATM   35  C1  UNL     1       9.444  16.852  17.245  1.00  0.00     0.005 C
ENDBRANCH  33  34
ENDBRANCH  32  33
ENDBRANCH  31  32
ENDBRANCH  30  31
ENDBRANCH  29  30
ENDBRANCH  26  29
ENDBRANCH   1  25
BRANCH   3  36
HETATM   36  O2  UNL     1      12.158  22.619  19.146  1.00  0.00    -0.347 OA
ATOM     37  H2  UNL     1      12.112  23.568  19.159  1.00  0.00     0.219 HD
ENDBRANCH   3  36
BRANCH  11  38
HETATM   38  C16 UNL     1      18.518  25.696  16.676  1.00  0.00     0.045 C
BRANCH  38  39
HETATM   39  C17 UNL     1      18.826  26.648  17.792  1.00  0.00     0.076 C
BRANCH  39  40
HETATM   40  S1  UNL     1      18.830  28.328  17.077  1.00  0.00    -0.173 SA
HETATM   41  C18 UNL     1      19.694  29.419  18.250  1.00  0.00     0.089 C
ENDBRANCH  39  40
ENDBRANCH  38  39
ENDBRANCH  11  38
TORSDOF 11
ENDMDL