MODEL 1
REMARK VINA RESULT: -9.095556003      0.000      0.000
REMARK  12 active torsions:
REMARK  status: ('A' for Active; 'I' for Inactive)
REMARK       I    between atoms: N1_2  and  C2_4
REMARK    1  A    between atoms: C2_4  and  C3_6
REMARK    2  A    between atoms: C5_8  and  C6_9
REMARK    3  A    between atoms: C6_9  and  C7_10
REMARK       I    between atoms: C7_10  and  N2_12
REMARK    4  A    between atoms: N2_12  and  C8_14
REMARK    5  A    between atoms: C9_19  and  C10_20
REMARK    6  A    between atoms: C10_20  and  C11_21
REMARK    7  A    between atoms: C11_21  and  C12_22
REMARK    8  A    between atoms: C12_22  and  C13_23
REMARK    9  A    between atoms: C13_23  and  C14_24
REMARK       I    between atoms: N7_30  and  C16_32
REMARK   10  A    between atoms: C16_32  and  C17_34
REMARK   11  A    between atoms: C17_34  and  C18_35
REMARK   12  A    between atoms: C18_35  and  C19_36
ROOT
HETATM    1  C8  UNL     1      11.968  18.039  16.258  1.00  0.00     0.167 A
HETATM    2  N3  UNL     1      11.947  17.594  17.517  1.00  0.00    -0.279 N
ATOM      3  H3  UNL     1      12.817  17.397  18.011  1.00  0.00     0.189 HD
HETATM    4  N4  UNL     1      10.831  17.422  18.086  1.00  0.00    -0.296 N
ATOM      5  H4  UNL     1      10.808  17.083  19.048  1.00  0.00     0.187 HD
HETATM    6  C9  UNL     1       9.695  17.671  17.461  1.00  0.00     0.069 A
HETATM    7  S2  UNL     1      10.301  18.200  15.920  1.00  0.00    -0.038 SA
ENDROOT
BRANCH   6   8
HETATM    8  C10 UNL     1       8.265  17.564  17.885  1.00  0.00     0.066 C
BRANCH   8   9
HETATM    9  C11 UNL     1       8.130  17.202  19.330  1.00  0.00     0.007 C
BRANCH   9  10
HETATM   10  C12 UNL     1       7.886  18.416  20.169  1.00  0.00     0.007 C
BRANCH  10  11
HETATM   11  C13 UNL     1       8.962  18.699  21.187  1.00  0.00     0.066 C
BRANCH  11  12
HETATM   12  C14 UNL     1      10.081  19.502  20.645  1.00  0.00     0.069 A
HETATM   13  N5  UNL     1      11.365  19.292  20.785  1.00  0.00    -0.296 N
HETATM   14  N6  UNL     1      12.228  20.070  20.270  1.00  0.00    -0.279 N
ATOM     15  H5  UNL     1      11.681  18.484  21.322  1.00  0.00     0.187 HD
HETATM   16  C15 UNL     1      11.817  21.124  19.570  1.00  0.00     0.167 A
ATOM     17  H6  UNL     1      13.224  19.889  20.391  1.00  0.00     0.189 HD
HETATM   18  N7  UNL     1      12.431  22.068  18.949  1.00  0.00    -0.306 N
HETATM   19  S1  UNL     1      10.086  20.924  19.700  1.00  0.00    -0.038 SA
HETATM   20  C16 UNL     1      13.802  22.236  18.845  1.00  0.00     0.223 C
ATOM     21  H7  UNL     1      11.849  22.765  18.485  1.00  0.00     0.171 HD
HETATM   22  O3  UNL     1      14.607  21.603  19.551  1.00  0.00    -0.273 OA
BRANCH  20  23
HETATM   23  C17 UNL     1      14.429  23.197  17.874  1.00  0.00     0.104 C
BRANCH  23  24
HETATM   24  C18 UNL     1      15.736  23.726  18.373  1.00  0.00     0.017 C
BRANCH  24  25
HETATM   25  C19 UNL     1      15.624  25.095  18.977  1.00  0.00    -0.051 C
HETATM   26  C20 UNL     1      16.759  25.944  18.401  1.00  0.00     0.014 C
HETATM   27  C21 UNL     1      14.336  25.792  18.675  1.00  0.00     0.014 C
HETATM   28  C22 UNL     1      15.862  24.999  20.476  1.00  0.00     0.014 C
ENDBRANCH  24  25
ENDBRANCH  23  24
ENDBRANCH  20  23
ENDBRANCH  11  12
ENDBRANCH  10  11
ENDBRANCH   9  10
ENDBRANCH   8   9
ENDBRANCH   6   8
BRANCH   1  29
HETATM   29  N2  UNL     1      13.019  18.273  15.516  1.00  0.00    -0.306 N
HETATM   30  C7  UNL     1      13.814  19.403  15.831  1.00  0.00     0.229 C
HETATM   31  O2  UNL     1      13.372  20.279  16.581  1.00  0.00    -0.273 OA
ATOM     32  H2  UNL     1      13.260  17.661  14.736  1.00  0.00     0.171 HD
BRANCH  30  33
HETATM   33  C6  UNL     1      15.159  19.481  15.236  1.00  0.00     0.160 C
BRANCH  33  34
HETATM   34  C5  UNL     1      15.490  20.848  14.766  1.00  0.00     0.020 A
HETATM   35  C4  UNL     1      16.516  21.659  15.199  1.00  0.00     0.044 A
HETATM   36  C3  UNL     1      16.495  22.858  14.522  1.00  0.00     0.049 A
HETATM   37  C24 UNL     1      15.409  22.755  13.649  1.00  0.00     0.107 A
HETATM   38  N8  UNL     1      14.825  21.555  13.808  1.00  0.00    -0.363 N
HETATM   39  C23 UNL     1      13.665  21.087  13.072  1.00  0.00     0.155 C
BRANCH  36  40
HETATM   40  C2  UNL     1      17.391  24.013  14.654  1.00  0.00     0.252 C
HETATM   41  N1  UNL     1      17.383  24.989  13.639  1.00  0.00    -0.361 N
HETATM   42  C1  UNL     1      18.250  26.140  13.731  1.00  0.00     0.149 C
ATOM     43  H1  UNL     1      16.762  24.883  12.837  1.00  0.00     0.162 HD
HETATM   44  O1  UNL     1      18.154  24.136  15.649  1.00  0.00    -0.268 OA
ENDBRANCH  36  40
ENDBRANCH  33  34
ENDBRANCH  30  33
ENDBRANCH   1  29
TORSDOF 12
ENDMDL