MODEL 3
REMARK VINA RESULT: -8.549231241      0.712      1.064
REMARK  14 active torsions:
REMARK  status: ('A' for Active; 'I' for Inactive)
REMARK    1  A    between atoms: C2_2  and  C3_3
REMARK    2  A    between atoms: C3_3  and  C5_5
REMARK    3  A    between atoms: C7_10  and  C8_11
REMARK    4  A    between atoms: C8_11  and  C9_12
REMARK    5  A    between atoms: C9_12  and  C10_13
REMARK    6  A    between atoms: C10_13  and  C11_14
REMARK    7  A    between atoms: C11_14  and  C12_15
REMARK    8  A    between atoms: C12_15  and  C13_16
REMARK    9  A    between atoms: C13_16  and  C14_18
REMARK   10  A    between atoms: C14_18  and  C15_19
REMARK   11  A    between atoms: C15_19  and  C19_25
REMARK   12  A    between atoms: C16_20  and  C17_21
REMARK   13  A    between atoms: C17_21  and  O4_23
REMARK   14  A    between atoms: C24_30  and  O5_31
ROOT
HETATM    1  C5  UNL     1      15.040  21.674  15.786  1.00  0.00     0.181 C
HETATM    2  N1  UNL     1      15.536  21.314  17.066  1.00  0.00    -0.347 N
ATOM      3  H1  UNL     1      16.446  20.853  17.043  1.00  0.00     0.163 HD
HETATM    4  C6  UNL     1      15.014  21.473  18.353  1.00  0.00     0.223 C
HETATM    5  O1  UNL     1      15.199  20.437  19.115  1.00  0.00    -0.273 OA
HETATM    6  C7  UNL     1      14.302  22.582  18.992  1.00  0.00     0.085 C
HETATM    7  C23 UNL     1      15.240  23.424  19.856  1.00  0.00     0.098 C
HETATM    8  C24 UNL     1      15.891  24.533  19.177  1.00  0.00     0.126 C
HETATM    9  N2  UNL     1      16.313  24.701  17.871  1.00  0.00    -0.251 N
ATOM     10  H2  UNL     1      15.813  25.427  17.358  1.00  0.00     0.182 HD
HETATM   11  S1  UNL     1      17.526  23.908  16.964  1.00  0.00     0.327 S
HETATM   12  O6  UNL     1      18.306  22.888  17.724  1.00  0.00    -0.182 OA
HETATM   13  O7  UNL     1      18.573  25.018  16.731  1.00  0.00    -0.182 OA
HETATM   14  N3  UNL     1      16.996  23.334  15.429  1.00  0.00    -0.235 N
ATOM     15  H3  UNL     1      17.668  23.404  14.664  1.00  0.00     0.183 HD
HETATM   16  C25 UNL     1      15.744  22.781  15.109  1.00  0.00     0.255 C
HETATM   17  O8  UNL     1      15.131  23.291  14.111  1.00  0.00    -0.270 OA
ENDROOT
BRANCH   6  18
HETATM   18  C8  UNL     1      13.383  23.389  18.152  1.00  0.00     0.014 C
BRANCH  18  19
HETATM   19  C9  UNL     1      12.050  22.688  17.867  1.00  0.00     0.001 C
BRANCH  19  20
HETATM   20  C10 UNL     1      11.826  21.648  18.929  1.00  0.00     0.000 C
BRANCH  20  21
HETATM   21  C11 UNL     1      10.358  21.446  19.141  1.00  0.00     0.007 C
BRANCH  21  22
HETATM   22  C12 UNL     1      10.009  20.471  20.229  1.00  0.00     0.078 C
BRANCH  22  23
HETATM   23  C13 UNL     1       9.673  19.136  19.660  1.00  0.00     0.130 C
HETATM   24  O2  UNL     1       9.881  18.155  20.335  1.00  0.00    -0.298 OA
BRANCH  23  25
HETATM   25  C14 UNL     1       9.103  19.008  18.313  1.00  0.00     0.113 C
BRANCH  25  26
HETATM   26  C15 UNL     1       9.652  17.969  17.447  1.00  0.00    -0.060 C
HETATM   27  C16 UNL     1       9.100  16.796  17.311  1.00  0.00     0.086 C
BRANCH  27  28
HETATM   28  C17 UNL     1       7.903  16.312  17.953  1.00  0.00     0.282 C
HETATM   29  O3  UNL     1       6.717  16.496  17.667  1.00  0.00    -0.260 OA
BRANCH  28  30
HETATM   30  O4  UNL     1       8.113  15.494  19.094  1.00  0.00    -0.323 OA
HETATM   31  C18 UNL     1       7.311  15.679  20.242  1.00  0.00     0.213 C
ENDBRANCH  28  30
ENDBRANCH  27  28
BRANCH  26  32
HETATM   32  C19 UNL     1      10.895  18.269  16.669  1.00  0.00    -0.027 C
HETATM   33  C20 UNL     1      11.050  17.311  15.508  1.00  0.00     0.019 C
HETATM   34  C21 UNL     1      12.154  18.196  17.465  1.00  0.00     0.019 C
HETATM   35  C22 UNL     1      10.796  19.666  16.042  1.00  0.00     0.019 C
ENDBRANCH  26  32
ENDBRANCH  25  26
ENDBRANCH  23  25
ENDBRANCH  22  23
ENDBRANCH  21  22
ENDBRANCH  20  21
ENDBRANCH  19  20
ENDBRANCH  18  19
ENDBRANCH   6  18
BRANCH   8  36
HETATM   36  O5  UNL     1      16.116  25.562  19.950  1.00  0.00    -0.349 OA
ATOM     37  H5  UNL     1      16.275  26.368  19.473  1.00  0.00     0.219 HD
ENDBRANCH   8  36
BRANCH   1  38
HETATM   38  C3  UNL     1      14.807  20.517  14.851  1.00  0.00     0.013 C
HETATM   39  C4  UNL     1      16.025  20.313  13.932  1.00  0.00     0.012 C
BRANCH  38  40
HETATM   40  C2  UNL     1      13.615  20.529  13.989  1.00  0.00     0.002 C
HETATM   41  C1  UNL     1      13.810  20.930  12.559  1.00  0.00     0.005 C
ENDBRANCH  38  40
ENDBRANCH   1  38
TORSDOF 14
ENDMDL