MODEL 5
REMARK VINA RESULT: -7.330878318      3.646      5.617
REMARK  15 active torsions:
REMARK  status: ('A' for Active; 'I' for Inactive)
REMARK    1  A    between atoms: C2_2  and  C3_3
REMARK    2  A    between atoms: C3_3  and  C4_4
REMARK    3  A    between atoms: C4_4  and  C5_5
REMARK    4  A    between atoms: C7_10  and  C8_11
REMARK    5  A    between atoms: C8_11  and  C9_12
REMARK    6  A    between atoms: C13_19  and  C14_20
REMARK    7  A    between atoms: C14_20  and  C15_21
REMARK    8  A    between atoms: C18_26  and  O3_27
REMARK    9  A    between atoms: N5_36  and  C24_37
REMARK   10  A    between atoms: C24_37  and  C25_38
REMARK   11  A    between atoms: C30_47  and  C31_48
REMARK   12  A    between atoms: C32_49  and  C33_50
REMARK   13  A    between atoms: C33_50  and  C34_51
REMARK   14  A    between atoms: C34_51  and  C35_52
REMARK   15  A    between atoms: C35_52  and  N7_53
ROOT
HETATM    1  C5  UNL     1      -6.436   1.599   7.482  1.00  0.00     0.178 C
HETATM    2  N1  UNL     1      -5.547   2.332   6.654  1.00  0.00    -0.346 N
ATOM      3  H1  UNL     1      -5.842   2.334   5.678  1.00  0.00     0.163 HD
HETATM    4  C6  UNL     1      -4.385   3.040   6.845  1.00  0.00     0.241 C
HETATM    5  O1  UNL     1      -3.355   2.712   6.136  1.00  0.00    -0.271 OA
HETATM    6  C7  UNL     1      -4.054   4.185   7.763  1.00  0.00     0.177 C
HETATM    7  N2  UNL     1      -5.137   5.089   7.659  1.00  0.00    -0.346 N
ATOM      8  H2  UNL     1      -5.892   4.917   8.323  1.00  0.00     0.163 HD
HETATM    9  C12 UNL     1      -5.358   6.189   6.796  1.00  0.00     0.241 C
HETATM   10  O2  UNL     1      -6.185   7.046   7.308  1.00  0.00    -0.271 OA
HETATM   11  C13 UNL     1      -4.828   6.486   5.489  1.00  0.00     0.175 C
HETATM   12  N3  UNL     1      -4.896   5.407   4.513  1.00  0.00    -0.361 N
ATOM     13  H3  UNL     1      -3.979   4.989   4.353  1.00  0.00     0.162 HD
HETATM   14  C18 UNL     1      -5.852   4.810   3.759  1.00  0.00     0.117 C
HETATM   15  C19 UNL     1      -7.285   4.993   3.466  1.00  0.00     0.071 C
HETATM   16  C20 UNL     1      -7.990   6.143   4.054  1.00  0.00     0.013 C
HETATM   17  C21 UNL     1      -9.479   5.901   3.762  1.00  0.00     0.004 C
HETATM   18  C22 UNL     1      -9.899   4.842   4.748  1.00  0.00     0.043 C
HETATM   19  C23 UNL     1      -8.981   3.647   4.794  1.00  0.00     0.134 C
HETATM   20  N4  UNL     1      -8.198   3.466   5.926  1.00  0.00    -0.311 N
ATOM     21  H4  UNL     1      -7.200   3.635   5.803  1.00  0.00     0.182 HD
HETATM   22  N5  UNL     1      -8.578   3.099   7.163  1.00  0.00    -0.262 N
HETATM   23  C28 UNL     1      -7.763   2.110   7.800  1.00  0.00     0.260 C
HETATM   24  O4  UNL     1      -8.296   1.569   8.845  1.00  0.00    -0.269 OA
HETATM   25  C29 UNL     1      -9.804   2.423   4.615  1.00  0.00     0.253 C
HETATM   26  O5  UNL     1      -9.981   1.587   5.584  1.00  0.00    -0.270 OA
HETATM   27  N6  UNL     1     -10.413   2.145   3.370  1.00  0.00    -0.318 N
ATOM     28  H6  UNL     1     -11.272   1.598   3.322  1.00  0.00     0.169 HD
HETATM   29  C30 UNL     1      -9.806   2.641   2.193  1.00  0.00     0.086 C
HETATM   30  C36 UNL     1      -8.711   3.335   2.332  1.00  0.00     0.021 C
HETATM   31  C37 UNL     1      -8.020   3.673   3.599  1.00  0.00     0.062 C
ENDROOT
BRANCH  29  32
HETATM   32  C31 UNL     1     -10.413   2.356   0.919  1.00  0.00    -0.049 C
HETATM   33  C32 UNL     1     -10.950   2.104  -0.156  1.00  0.00    -0.100 C
BRANCH  33  34
HETATM   34  C33 UNL     1     -11.581   1.846  -1.440  1.00  0.00     0.096 C
BRANCH  34  35
HETATM   35  C34 UNL     1     -13.019   2.172  -1.399  1.00  0.00     0.039 C
BRANCH  35  36
HETATM   36  C35 UNL     1     -13.714   2.048  -0.095  1.00  0.00     0.230 C
BRANCH  36  37
HETATM   37  N7  UNL     1     -14.461   0.820  -0.034  1.00  0.00    -0.079 N
ATOM     38  H73 UNL     1     -13.934   0.078   0.428  1.00  0.00     0.274 HD
ATOM     39  H72 UNL     1     -15.242   0.884   0.620  1.00  0.00     0.274 HD
ATOM     40  H71 UNL     1     -14.770   0.541  -0.965  1.00  0.00     0.274 HD
ENDBRANCH  36  37
ENDBRANCH  35  36
ENDBRANCH  34  35
ENDBRANCH  33  34
ENDBRANCH  29  32
BRANCH  14  41
HETATM   41  O3  UNL     1      -5.484   3.759   3.057  1.00  0.00    -0.349 OA
ATOM     42  H3  UNL     1      -5.331   3.897   2.129  1.00  0.00     0.219 HD
ENDBRANCH  14  41
BRANCH  22  43
HETATM   43  C24 UNL     1      -9.741   3.590   7.906  1.00  0.00     0.156 C
BRANCH  43  44
HETATM   44  C25 UNL     1      -9.741   5.034   8.255  1.00  0.00     0.006 A
HETATM   45  C26 UNL     1     -10.398   5.649   9.409  1.00  0.00     0.007 A
HETATM   46  C27 UNL     1     -11.082   5.730   8.095  1.00  0.00     0.007 A
ENDBRANCH  43  44
ENDBRANCH  22  43
BRANCH  11  47
HETATM   47  C14 UNL     1      -3.466   7.152   5.424  1.00  0.00     0.038 C
BRANCH  47  48
HETATM   48  C15 UNL     1      -3.279   8.422   6.134  1.00  0.00    -0.020 C
HETATM   49  C16 UNL     1      -3.313   9.688   5.368  1.00  0.00     0.009 C
HETATM   50  C17 UNL     1      -2.010   8.326   6.983  1.00  0.00     0.009 C
ENDBRANCH  47  48
ENDBRANCH  11  47
BRANCH   1  51
HETATM   51  C4  UNL     1      -6.526   0.183   6.861  1.00  0.00     0.035 C
BRANCH  51  52
HETATM   52  C3  UNL     1      -5.285  -0.614   7.124  1.00  0.00     0.002 C
BRANCH  52  53
HETATM   53  C2  UNL     1      -4.779  -0.556   8.534  1.00  0.00    -0.004 C
HETATM   54  C1  UNL     1      -3.297  -0.130   8.545  1.00  0.00     0.005 C
ENDBRANCH  52  53
ENDBRANCH  51  52
ENDBRANCH   1  51
BRANCH   6  55
HETATM   55  C8  UNL     1      -3.859   3.714   9.166  1.00  0.00     0.038 C
BRANCH  55  56
HETATM   56  C9  UNL     1      -2.496   3.380   9.621  1.00  0.00    -0.020 C
HETATM   57  C10 UNL     1      -2.673   2.700  10.999  1.00  0.00     0.009 C
HETATM   58  C11 UNL     1      -1.634   4.587   9.934  1.00  0.00     0.009 C
ENDBRANCH  55  56
ENDBRANCH   6  55
TORSDOF 15
ENDMDL