MODEL 5
REMARK VINA RESULT: -7.687733622      2.783      6.489
REMARK  16 active torsions:
REMARK  status: ('A' for Active; 'I' for Inactive)
REMARK    1  A    between atoms: N1_2  and  C2_5
REMARK    2  A    between atoms: C2_5  and  C3_6
REMARK    3  A    between atoms: C3_6  and  C4_7
REMARK    4  A    between atoms: C4_7  and  C5_8
REMARK    5  A    between atoms: C5_8  and  C6_9
REMARK    6  A    between atoms: C6_9  and  N2_10
REMARK       I    between atoms: N2_10  and  C7_12
REMARK       I    between atoms: C7_12  and  N3_14
REMARK    7  A    between atoms: C8_15  and  O2_16
REMARK    8  A    between atoms: C13_27  and  C14_28
REMARK    9  A    between atoms: C14_28  and  C15_29
REMARK   10  A    between atoms: C18_32  and  O4_33
REMARK   11  A    between atoms: C19_37  and  C20_38
REMARK   12  A    between atoms: C20_38  and  C21_39
REMARK   13  A    between atoms: C24_42  and  O5_43
REMARK   14  A    between atoms: C25_47  and  C26_48
REMARK   15  A    between atoms: C26_48  and  C27_49
REMARK   16  A    between atoms: C30_52  and  O6_53
ROOT
HETATM    1  N2  UNL     1     -10.845   5.461   6.468  1.00  0.00    -0.343 N
ATOM      2  H2  UNL     1     -10.503   4.989   7.305  1.00  0.00     0.164 HD
HETATM    3  C7  UNL     1      -9.991   5.542   5.355  1.00  0.00     0.327 C
HETATM    4  O1  UNL     1     -10.413   6.123   4.296  1.00  0.00    -0.247 OA
HETATM    5  N3  UNL     1      -8.660   5.024   5.289  1.00  0.00    -0.238 N
HETATM    6  C8  UNL     1      -8.127   4.431   6.467  1.00  0.00     0.226 C
HETATM    7  N4  UNL     1      -7.638   3.150   6.746  1.00  0.00    -0.339 N
ATOM      8  H4  UNL     1      -6.627   3.068   6.639  1.00  0.00     0.164 HD
HETATM    9  C9  UNL     1      -8.276   1.917   7.158  1.00  0.00     0.107 C
HETATM   10  C10 UNL     1      -7.666   0.765   6.431  1.00  0.00     0.048 C
HETATM   11  C11 UNL     1      -9.739   1.869   6.734  1.00  0.00     0.048 C
HETATM   12  C12 UNL     1      -8.176   1.764   8.658  1.00  0.00     0.249 C
HETATM   13  O3  UNL     1      -9.314   1.784   9.218  1.00  0.00    -0.270 OA
HETATM   14  N5  UNL     1      -7.054   1.617   9.459  1.00  0.00    -0.325 N
ATOM     15  H5  UNL     1      -6.922   2.414  10.083  1.00  0.00     0.169 HD
HETATM   16  C13 UNL     1      -6.046   0.638   9.629  1.00  0.00     0.063 C
HETATM   17  C18 UNL     1      -4.789   0.732   8.882  1.00  0.00     0.163 C
HETATM   18  N6  UNL     1      -4.175   1.568   7.997  1.00  0.00    -0.335 N
ATOM     19  H6  UNL     1      -3.982   1.057   7.135  1.00  0.00     0.168 HD
HETATM   20  C19 UNL     1      -3.713   2.895   7.858  1.00  0.00     0.062 C
HETATM   21  C24 UNL     1      -3.453   3.268   6.450  1.00  0.00     0.160 C
HETATM   22  N7  UNL     1      -3.521   4.459   5.750  1.00  0.00    -0.354 N
ATOM     23  H7  UNL     1      -2.640   4.767   5.339  1.00  0.00     0.162 HD
HETATM   24  C25 UNL     1      -4.673   5.358   5.504  1.00  0.00     0.181 C
HETATM   25  C30 UNL     1      -5.363   4.830   4.326  1.00  0.00     0.142 C
HETATM   26  N8  UNL     1      -6.670   4.449   4.003  1.00  0.00    -0.341 N
HETATM   27  C31 UNL     1      -6.868   3.065   3.490  1.00  0.00     0.154 C
HETATM   28  C32 UNL     1      -7.916   5.192   4.040  1.00  0.00     0.114 C
HETATM   29  C33 UNL     1      -8.843   4.717   2.919  1.00  0.00     0.064 C
HETATM   30  C34 UNL     1      -7.721   6.674   3.738  1.00  0.00     0.064 C
ENDROOT
BRANCH   6  31
HETATM   31  O2  UNL     1      -8.105   5.314   7.470  1.00  0.00    -0.332 OA
ATOM     32  H2  UNL     1      -7.812   6.163   7.163  1.00  0.00     0.220 HD
ENDBRANCH   6  31
BRANCH   1  33
HETATM   33  C6  UNL     1     -12.158   6.002   6.493  1.00  0.00     0.124 C
BRANCH  33  34
HETATM   34  C5  UNL     1     -13.188   4.965   6.731  1.00  0.00     0.020 C
BRANCH  34  35
HETATM   35  C4  UNL     1     -13.377   4.033   5.551  1.00  0.00     0.003 C
BRANCH  35  36
HETATM   36  C3  UNL     1     -13.898   4.731   4.342  1.00  0.00     0.027 C
BRANCH  36  37
HETATM   37  C2  UNL     1     -13.159   4.257   3.109  1.00  0.00     0.231 C
BRANCH  37  38
HETATM   38  N1  UNL     1     -12.618   5.372   2.352  1.00  0.00    -0.079 N
HETATM   39  C1  UNL     1     -12.069   4.949   1.085  1.00  0.00     0.266 C
ATOM     40  H12 UNL     1     -11.932   5.892   2.898  1.00  0.00     0.276 HD
ATOM     41  H11 UNL     1     -13.314   6.108   2.228  1.00  0.00     0.276 HD
ENDBRANCH  37  38
ENDBRANCH  36  37
ENDBRANCH  35  36
ENDBRANCH  34  35
ENDBRANCH  33  34
ENDBRANCH   1  33
BRANCH  25  42
HETATM   42  O6  UNL     1      -4.518   4.678   3.326  1.00  0.00    -0.348 OA
ATOM     43  H6  UNL     1      -3.878   5.380   3.321  1.00  0.00     0.219 HD
ENDBRANCH  25  42
BRANCH  24  44
HETATM   44  C26 UNL     1      -4.352   6.774   5.608  1.00  0.00     0.008 C
BRANCH  44  45
HETATM   45  C27 UNL     1      -3.149   7.356   6.177  1.00  0.00    -0.089 C
HETATM   46  C28 UNL     1      -2.983   7.411   7.662  1.00  0.00     0.042 C
HETATM   47  C29 UNL     1      -2.637   8.637   5.542  1.00  0.00     0.042 C
ENDBRANCH  44  45
ENDBRANCH  24  44
BRANCH  16  48
HETATM   48  C14 UNL     1      -6.552  -0.798   9.682  1.00  0.00     0.065 C
BRANCH  48  49
HETATM   49  C15 UNL     1      -6.999  -1.163  11.064  1.00  0.00    -0.017 C
HETATM   50  C16 UNL     1      -6.902   0.010  12.021  1.00  0.00     0.010 C
HETATM   51  C17 UNL     1      -6.064  -2.233  11.645  1.00  0.00     0.010 C
ENDBRANCH  48  49
ENDBRANCH  16  48
BRANCH  21  52
HETATM   52  O5  UNL     1      -3.077   2.231   5.749  1.00  0.00    -0.345 OA
ATOM     53  H5  UNL     1      -2.333   2.442   5.196  1.00  0.00     0.219 HD
ENDBRANCH  21  52
BRANCH  17  54
HETATM   54  O4  UNL     1      -4.059  -0.332   9.180  1.00  0.00    -0.345 OA
ATOM     55  H4  UNL     1      -3.251  -0.280   8.683  1.00  0.00     0.219 HD
ENDBRANCH  17  54
BRANCH  20  56
HETATM   56  C20 UNL     1      -4.243   3.989   8.673  1.00  0.00     0.065 C
BRANCH  56  57
HETATM   57  C21 UNL     1      -3.554   4.362   9.924  1.00  0.00    -0.017 C
HETATM   58  C22 UNL     1      -3.733   3.432  11.077  1.00  0.00     0.010 C
HETATM   59  C23 UNL     1      -2.043   4.332   9.603  1.00  0.00     0.010 C
ENDBRANCH  56  57
ENDBRANCH  20  56
TORSDOF 16
ENDMDL