MODEL 2
REMARK VINA RESULT: -9.191124235      1.280      1.522
REMARK  14 active torsions:
REMARK  status: ('A' for Active; 'I' for Inactive)
REMARK    1  A    between atoms: C2_2  and  C3_3
REMARK    2  A    between atoms: C3_3  and  C5_5
REMARK    3  A    between atoms: C7_10  and  C8_11
REMARK    4  A    between atoms: C8_11  and  C9_12
REMARK    5  A    between atoms: C9_12  and  C10_13
REMARK    6  A    between atoms: C10_13  and  C11_14
REMARK    7  A    between atoms: C11_14  and  N2_15
REMARK    8  A    between atoms: C12_18  and  C13_19
REMARK    9  A    between atoms: C13_19  and  C14_20
REMARK   10  A    between atoms: C17_23  and  O2_24
REMARK   11  A    between atoms: C22_34  and  C23_35
REMARK   12  A    between atoms: C23_35  and  C25_37
REMARK   13  A    between atoms: C29_46  and  C30_47
REMARK   14  A    between atoms: C30_47  and  C31_48
ROOT
HETATM    1  N2  UNL     1      -3.585   3.495   8.810  1.00  0.00    -0.243 N
HETATM    2  N3  UNL     1      -3.900   2.143   8.911  1.00  0.00    -0.294 N
ATOM      3  H3  UNL     1      -3.459   1.434   8.325  1.00  0.00     0.187 HD
HETATM    4  C12 UNL     1      -4.907   1.808   9.914  1.00  0.00     0.077 C
HETATM    5  C17 UNL     1      -6.197   1.477   9.332  1.00  0.00     0.167 C
HETATM    6  N4  UNL     1      -6.618   0.557   8.374  1.00  0.00    -0.330 N
HETATM    7  C18 UNL     1      -8.110   0.352   8.382  1.00  0.00     0.158 C
HETATM    8  C19 UNL     1      -5.949  -0.224   7.387  1.00  0.00     0.077 C
HETATM    9  C20 UNL     1      -4.720  -0.998   7.810  1.00  0.00     0.074 C
HETATM   10  C21 UNL     1      -5.733   0.443   6.068  1.00  0.00     0.265 C
HETATM   11  O3  UNL     1      -6.208  -0.196   5.045  1.00  0.00    -0.266 OA
HETATM   12  N5  UNL     1      -5.098   1.639   5.777  1.00  0.00    -0.334 N
ATOM     13  H5  UNL     1      -4.221   1.527   5.268  1.00  0.00     0.165 HD
HETATM   14  C22 UNL     1      -5.438   3.011   6.055  1.00  0.00     0.201 C
HETATM   15  N7  UNL     1      -4.269   3.803   6.387  1.00  0.00    -0.320 N
ATOM     16  H7  UNL     1      -3.683   4.065   5.594  1.00  0.00     0.166 HD
HETATM   17  C26 UNL     1      -3.831   4.254   7.618  1.00  0.00     0.338 C
HETATM   18  O5  UNL     1      -3.609   5.515   7.723  1.00  0.00    -0.245 OA
ENDROOT
BRANCH   1  19
HETATM   19  C11 UNL     1      -2.965   4.165   9.931  1.00  0.00     0.154 C
BRANCH  19  20
HETATM   20  C10 UNL     1      -1.490   4.147   9.925  1.00  0.00     0.022 C
BRANCH  20  21
HETATM   21  C9  UNL     1      -0.937   5.426  10.509  1.00  0.00     0.002 C
BRANCH  21  22
HETATM   22  C8  UNL     1      -0.554   6.388   9.467  1.00  0.00     0.014 C
BRANCH  22  23
HETATM   23  C7  UNL     1       0.407   7.472   9.798  1.00  0.00     0.078 C
HETATM   24  C6  UNL     1       0.412   8.596   8.838  1.00  0.00     0.222 C
HETATM   25  N1  UNL     1       0.093   9.945   9.114  1.00  0.00    -0.347 N
HETATM   26  O1  UNL     1       0.744   8.288   7.633  1.00  0.00    -0.273 OA
HETATM   27  C5  UNL     1       0.743  10.815  10.062  1.00  0.00     0.180 C
ATOM     28  H1  UNL     1      -0.680  10.348   8.584  1.00  0.00     0.163 HD
HETATM   29  C34 UNL     1       0.816  10.269  11.440  1.00  0.00     0.241 C
HETATM   30  N8  UNL     1       1.891   9.691  12.094  1.00  0.00    -0.355 N
HETATM   31  O6  UNL     1      -0.301  10.369  12.075  1.00  0.00    -0.271 OA
HETATM   32  C29 UNL     1       2.792   8.640  11.710  1.00  0.00     0.084 C
ATOM     33  H8  UNL     1       2.079  10.084  13.016  1.00  0.00     0.162 HD
HETATM   34  C28 UNL     1       2.723   8.134  10.332  1.00  0.00     0.026 C
HETATM   35  C27 UNL     1       1.831   6.976  10.052  1.00  0.00     0.016 C
BRANCH  27  36
HETATM   36  C3  UNL     1      -0.046  12.139  10.119  1.00  0.00     0.013 C
HETATM   37  C4  UNL     1      -1.265  12.091   9.265  1.00  0.00     0.012 C
BRANCH  36  38
HETATM   38  C2  UNL     1       0.881  13.201   9.564  1.00  0.00     0.002 C
HETATM   39  C1  UNL     1       2.330  12.818   9.733  1.00  0.00     0.005 C
ENDBRANCH  36  38
ENDBRANCH  27  36
BRANCH  32  40
HETATM   40  C30 UNL     1       2.773   7.501  12.738  1.00  0.00     0.029 C
BRANCH  40  41
HETATM   41  C31 UNL     1       3.018   8.011  14.136  1.00  0.00    -0.021 C
HETATM   42  C32 UNL     1       2.120   7.160  15.045  1.00  0.00     0.009 C
HETATM   43  C33 UNL     1       4.430   7.929  14.598  1.00  0.00     0.009 C
ENDBRANCH  40  41
ENDBRANCH  32  40
ENDBRANCH  22  23
ENDBRANCH  21  22
ENDBRANCH  20  21
ENDBRANCH  19  20
ENDBRANCH   1  19
BRANCH   4  44
HETATM   44  C13 UNL     1      -4.346   0.985  11.018  1.00  0.00     0.067 C
BRANCH  44  45
HETATM   45  C14 UNL     1      -2.929   0.605  11.029  1.00  0.00    -0.017 C
HETATM   46  C15 UNL     1      -2.131   1.249  12.091  1.00  0.00     0.010 C
HETATM   47  C16 UNL     1      -2.866  -0.910  11.209  1.00  0.00     0.010 C
ENDBRANCH  44  45
ENDBRANCH   4  44
BRANCH   5  48
HETATM   48  O2  UNL     1      -7.170   2.220   9.825  1.00  0.00    -0.344 OA
ATOM     49  H2  UNL     1      -6.839   2.995  10.265  1.00  0.00     0.219 HD
ENDBRANCH   5  48
BRANCH  14  50
HETATM   50  C23 UNL     1      -6.048   3.714   4.820  1.00  0.00     0.113 C
HETATM   51  C24 UNL     1      -7.418   4.229   5.284  1.00  0.00     0.023 C
BRANCH  50  52
HETATM   52  C25 UNL     1      -5.269   4.870   4.377  1.00  0.00     0.238 C
HETATM   53  N6  UNL     1      -4.235   4.815   3.406  1.00  0.00    -0.062 NA
HETATM   54  O4  UNL     1      -5.478   6.042   4.854  1.00  0.00    -0.276 OA
ENDBRANCH  50  52
ENDBRANCH  14  50
TORSDOF 14
ENDMDL