MODEL 1
REMARK VINA RESULT: -8.047332526      0.000      0.000
REMARK  12 active torsions:
REMARK  status: ('A' for Active; 'I' for Inactive)
REMARK    1  A    between atoms: C2_2  and  C3_3
REMARK    2  A    between atoms: C3_3  and  C6_6
REMARK    3  A    between atoms: C8_11  and  C9_12
REMARK    4  A    between atoms: C9_12  and  C10_13
REMARK    5  A    between atoms: C14_20  and  C15_21
REMARK    6  A    between atoms: C15_21  and  C16_22
REMARK    7  A    between atoms: C16_22  and  C17_23
REMARK    8  A    between atoms: C20_29  and  C21_30
REMARK    9  A    between atoms: C21_30  and  C23_32
REMARK   10  A    between atoms: C26_38  and  C27_39
REMARK   11  A    between atoms: C27_39  and  C28_40
REMARK   12  A    between atoms: C32_47  and  C33_48
ROOT
HETATM    1  C6  UNL     1      -9.507   1.490   6.057  1.00  0.00     0.198 C
HETATM    2  N1  UNL     1      -9.982   1.440   7.421  1.00  0.00    -0.337 N
ATOM      3  H1  UNL     1     -10.875   1.909   7.569  1.00  0.00     0.164 HD
HETATM    4  C7  UNL     1      -9.442   0.867   8.574  1.00  0.00     0.242 C
HETATM    5  O1  UNL     1      -9.124   1.679   9.520  1.00  0.00    -0.271 OA
HETATM    6  C8  UNL     1      -9.178  -0.536   8.880  1.00  0.00     0.177 C
HETATM    7  N2  UNL     1      -8.141  -0.753   9.865  1.00  0.00    -0.346 N
ATOM      8  H2  UNL     1      -8.142  -1.707  10.225  1.00  0.00     0.163 HD
HETATM    9  C13 UNL     1      -7.164   0.010  10.426  1.00  0.00     0.241 C
HETATM   10  O2  UNL     1      -7.274   0.355  11.663  1.00  0.00    -0.271 OA
HETATM   11  C14 UNL     1      -5.880   0.565   9.824  1.00  0.00     0.176 C
HETATM   12  N3  UNL     1      -5.618   1.848  10.413  1.00  0.00    -0.346 N
ATOM     13  H3  UNL     1      -6.470   2.310  10.730  1.00  0.00     0.163 HD
HETATM   14  C19 UNL     1      -4.485   2.609  10.652  1.00  0.00     0.241 C
HETATM   15  O3  UNL     1      -4.198   2.777  11.901  1.00  0.00    -0.271 OA
HETATM   16  C20 UNL     1      -3.532   3.280   9.756  1.00  0.00     0.180 C
HETATM   17  N4  UNL     1      -3.160   2.580   8.566  1.00  0.00    -0.346 N
ATOM     18  H4  UNL     1      -2.483   1.826   8.685  1.00  0.00     0.163 HD
HETATM   19  C25 UNL     1      -3.609   2.797   7.251  1.00  0.00     0.241 C
HETATM   20  O4  UNL     1      -3.703   1.715   6.552  1.00  0.00    -0.271 OA
HETATM   21  C26 UNL     1      -3.965   4.057   6.626  1.00  0.00     0.177 C
HETATM   22  N5  UNL     1      -5.282   4.546   7.073  1.00  0.00    -0.347 N
ATOM     23  H5  UNL     1      -5.299   5.362   7.686  1.00  0.00     0.163 HD
HETATM   24  C31 UNL     1      -6.506   3.979   6.722  1.00  0.00     0.238 C
HETATM   25  O5  UNL     1      -7.382   3.813   7.609  1.00  0.00    -0.272 OA
HETATM   26  C32 UNL     1      -6.892   3.530   5.335  1.00  0.00     0.238 C
HETATM   27  C35 UNL     1      -7.153   2.100   5.254  1.00  0.00     0.239 C
HETATM   28  O7  UNL     1      -6.355   1.450   4.466  1.00  0.00    -0.272 OA
HETATM   29  N6  UNL     1      -8.107   1.293   5.874  1.00  0.00    -0.338 N
ATOM     30  H6  UNL     1      -7.744   0.420   6.258  1.00  0.00     0.164 HD
ENDROOT
BRANCH   1  31
HETATM   31  C3  UNL     1     -10.354   0.708   5.105  1.00  0.00     0.008 C
HETATM   32  C4  UNL     1      -9.703  -0.672   4.831  1.00  0.00     0.023 C
HETATM   33  C5  UNL     1     -10.613   1.301   3.775  1.00  0.00     0.023 C
BRANCH  31  34
HETATM   34  C2  UNL     1     -11.668   0.376   5.712  1.00  0.00    -0.024 C
HETATM   35  C1  UNL     1     -12.423  -0.653   5.306  1.00  0.00     0.008 C
ENDBRANCH  31  34
ENDBRANCH   1  31
BRANCH   6  36
HETATM   36  C9  UNL     1     -10.383  -1.361   9.258  1.00  0.00     0.038 C
BRANCH  36  37
HETATM   37  C10 UNL     1     -10.932  -2.284   8.246  1.00  0.00    -0.020 C
HETATM   38  C11 UNL     1     -11.859  -3.241   9.053  1.00  0.00     0.009 C
HETATM   39  C12 UNL     1      -9.960  -3.205   7.564  1.00  0.00     0.009 C
ENDBRANCH  36  37
ENDBRANCH   6  36
BRANCH  26  40
HETATM   40  C33 UNL     1      -7.914   4.451   4.846  1.00  0.00     0.145 C
HETATM   41  C34 UNL     1      -7.813   5.933   4.923  1.00  0.00     0.092 C
HETATM   42  O6  UNL     1      -8.948   4.040   4.329  1.00  0.00    -0.297 OA
ENDBRANCH  26  40
BRANCH  11  43
HETATM   43  C15 UNL     1      -4.784  -0.446  10.010  1.00  0.00     0.035 C
BRANCH  43  44
HETATM   44  C16 UNL     1      -4.267  -1.026   8.727  1.00  0.00     0.002 C
BRANCH  44  45
HETATM   45  C17 UNL     1      -5.263  -0.860   7.587  1.00  0.00    -0.004 C
HETATM   46  C18 UNL     1      -6.034  -2.151   7.364  1.00  0.00     0.005 C
ENDBRANCH  44  45
ENDBRANCH  43  44
ENDBRANCH  11  43
BRANCH  21  47
HETATM   47  C27 UNL     1      -2.989   5.171   6.654  1.00  0.00     0.038 C
BRANCH  47  48
HETATM   48  C28 UNL     1      -3.505   6.560   6.699  1.00  0.00    -0.020 C
HETATM   49  C29 UNL     1      -3.875   7.191   5.410  1.00  0.00     0.009 C
HETATM   50  C30 UNL     1      -2.610   7.468   7.544  1.00  0.00     0.009 C
ENDBRANCH  47  48
ENDBRANCH  21  47
BRANCH  16  51
HETATM   51  C21 UNL     1      -2.277   3.755  10.432  1.00  0.00     0.013 C
HETATM   52  C22 UNL     1      -1.262   2.663  10.689  1.00  0.00     0.012 C
BRANCH  51  53
HETATM   53  C23 UNL     1      -1.729   5.063  10.032  1.00  0.00     0.002 C
HETATM   54  C24 UNL     1      -0.386   5.126   9.416  1.00  0.00     0.005 C
ENDBRANCH  51  53
ENDBRANCH  16  51
TORSDOF 12
ENDMDL