MODEL 2
REMARK VINA RESULT: -8.689629447      1.575      1.864
REMARK  12 active torsions:
REMARK  status: ('A' for Active; 'I' for Inactive)
REMARK    1  A    between atoms: C2_2  and  C4_4
REMARK    2  A    between atoms: C4_4  and  C5_5
REMARK    3  A    between atoms: C8_11  and  C9_12
REMARK    4  A    between atoms: C13_19  and  C14_20
REMARK    5  A    between atoms: N3_25  and  C18_26
REMARK    6  A    between atoms: C18_26  and  C19_27
REMARK    7  A    between atoms: C23_34  and  C24_35
REMARK    8  A    between atoms: C24_35  and  C25_36
REMARK    9  A    between atoms: C25_36  and  C26_37
REMARK   10  A    between atoms: C26_37  and  N5_38
REMARK   11  A    between atoms: C29_47  and  C30_48
REMARK   12  A    between atoms: C30_48  and  C31_49
ROOT
HETATM    1  C5  UNL     1      -1.930   5.119   8.306  1.00  0.00     0.093 C
HETATM    2  C6  UNL     1      -2.669   3.877   8.781  1.00  0.00     0.128 C
HETATM    3  C7  UNL     1      -3.538   4.100   9.946  1.00  0.00     0.220 C
HETATM    4  O1  UNL     1      -3.228   5.093  10.706  1.00  0.00    -0.274 OA
HETATM    5  N1  UNL     1      -4.661   3.382  10.348  1.00  0.00    -0.347 N
ATOM      6  H1  UNL     1      -5.533   3.909  10.382  1.00  0.00     0.163 HD
HETATM    7  C8  UNL     1      -4.758   1.977  10.728  1.00  0.00     0.180 C
HETATM    8  C12 UNL     1      -5.872   1.275  10.050  1.00  0.00     0.241 C
HETATM    9  O2  UNL     1      -7.041   1.498  10.554  1.00  0.00    -0.271 OA
HETATM   10  N2  UNL     1      -5.782   0.411   8.941  1.00  0.00    -0.346 N
ATOM     11  H2  UNL     1      -6.140  -0.535   9.078  1.00  0.00     0.163 HD
HETATM   12  C13 UNL     1      -5.245   0.702   7.634  1.00  0.00     0.180 C
HETATM   13  C17 UNL     1      -6.420   0.606   6.696  1.00  0.00     0.244 C
HETATM   14  O3  UNL     1      -6.566  -0.478   6.037  1.00  0.00    -0.271 OA
HETATM   15  N3  UNL     1      -7.380   1.601   6.471  1.00  0.00    -0.326 N
HETATM   16  C22 UNL     1      -7.048   3.038   6.424  1.00  0.00     0.360 C
HETATM   17  N4  UNL     1      -6.071   3.229   5.419  1.00  0.00    -0.046 N
ATOM     18  H41 UNL     1      -6.324   2.711   4.577  1.00  0.00     0.280 HD
ATOM     19  H42 UNL     1      -5.208   2.746   5.669  1.00  0.00     0.280 HD
HETATM   20  C23 UNL     1      -5.793   4.636   5.089  1.00  0.00     0.279 C
HETATM   21  C28 UNL     1      -4.318   4.816   5.158  1.00  0.00     0.249 C
HETATM   22  O4  UNL     1      -3.623   3.737   5.069  1.00  0.00    -0.271 OA
HETATM   23  N8  UNL     1      -3.573   5.978   5.301  1.00  0.00    -0.346 N
ATOM     24  H8  UNL     1      -2.783   6.058   4.660  1.00  0.00     0.163 HD
HETATM   25  C29 UNL     1      -3.724   7.086   6.198  1.00  0.00     0.177 C
HETATM   26  C34 UNL     1      -3.764   6.764   7.626  1.00  0.00     0.240 C
HETATM   27  O5  UNL     1      -4.905   6.915   8.204  1.00  0.00    -0.271 OA
HETATM   28  N9  UNL     1      -2.729   6.311   8.466  1.00  0.00    -0.354 N
ATOM     29  H9  UNL     1      -2.519   6.891   9.278  1.00  0.00     0.162 HD
ENDROOT
BRANCH  20  30
HETATM   30  C24 UNL     1      -6.274   4.750   3.642  1.00  0.00     0.044 C
BRANCH  30  31
HETATM   31  C25 UNL     1      -7.751   4.742   3.482  1.00  0.00     0.022 C
BRANCH  31  32
HETATM   32  C26 UNL     1      -8.373   6.129   3.510  1.00  0.00     0.122 C
BRANCH  32  33
HETATM   33  N5  UNL     1      -7.732   6.990   2.510  1.00  0.00    -0.367 N
HETATM   34  C27 UNL     1      -8.286   8.065   2.085  1.00  0.00     0.196 C
HETATM   35  N6  UNL     1      -9.576   8.402   2.631  1.00  0.00    -0.067 NA
HETATM   36  N7  UNL     1      -7.730   8.929   1.134  1.00  0.00    -0.067 NA
ATOM     37  H5  UNL     1      -6.818   6.725   2.142  1.00  0.00     0.161 HD
ENDBRANCH  32  33
ENDBRANCH  31  32
ENDBRANCH  30  31
ENDBRANCH  20  30
BRANCH  15  38
HETATM   38  C18 UNL     1      -8.762   1.186   6.303  1.00  0.00     0.131 C
BRANCH  38  39
HETATM   39  C19 UNL     1      -9.459   1.765   5.120  1.00  0.00    -0.005 C
HETATM   40  C20 UNL     1      -8.915   1.048   3.866  1.00  0.00     0.011 C
HETATM   41  C21 UNL     1     -10.945   1.569   5.099  1.00  0.00     0.011 C
ENDBRANCH  38  39
ENDBRANCH  15  38
BRANCH  25  42
HETATM   42  C30 UNL     1      -2.657   8.141   5.881  1.00  0.00     0.038 C
BRANCH  42  43
HETATM   43  C31 UNL     1      -3.226   9.497   5.711  1.00  0.00    -0.020 C
HETATM   44  C32 UNL     1      -2.957  10.424   6.872  1.00  0.00     0.009 C
HETATM   45  C33 UNL     1      -4.726   9.372   5.553  1.00  0.00     0.009 C
ENDBRANCH  42  43
ENDBRANCH  25  42
BRANCH  12  46
HETATM   46  C14 UNL     1      -4.207  -0.330   7.281  1.00  0.00     0.009 C
HETATM   47  C15 UNL     1      -2.795   0.133   7.322  1.00  0.00     0.012 C
HETATM   48  C16 UNL     1      -4.327  -1.525   8.249  1.00  0.00     0.012 C
ENDBRANCH  12  46
BRANCH   1  49
HETATM   49  C4  UNL     1      -0.636   5.151   9.016  1.00  0.00     0.029 C
BRANCH  49  50
HETATM   50  C2  UNL     1      -0.246   6.359   9.775  1.00  0.00    -0.021 C
HETATM   51  C1  UNL     1       0.654   6.095  10.961  1.00  0.00     0.009 C
HETATM   52  C3  UNL     1       0.147   7.566   8.971  1.00  0.00     0.009 C
ENDBRANCH  49  50
ENDBRANCH   1  49
BRANCH   7  53
HETATM   53  C9  UNL     1      -3.462   1.246  10.721  1.00  0.00     0.009 C
HETATM   54  C10 UNL     1      -3.773  -0.178  11.197  1.00  0.00     0.012 C
HETATM   55  C11 UNL     1      -2.561   1.850  11.791  1.00  0.00     0.012 C
ENDBRANCH   7  53
TORSDOF 12
ENDMDL