MODEL 5
REMARK VINA RESULT: -9.558973464      1.494      1.937
REMARK  13 active torsions:
REMARK  status: ('A' for Active; 'I' for Inactive)
REMARK    1  A    between atoms: C6_6  and  C7_7
REMARK    2  A    between atoms: C7_7  and  C8_8
REMARK    3  A    between atoms: N2_19  and  C16_20
REMARK    4  A    between atoms: C16_20  and  C17_21
REMARK    5  A    between atoms: C17_21  and  C18_22
REMARK    6  A    between atoms: C18_22  and  C19_23
REMARK    7  A    between atoms: C19_23  and  C20_24
REMARK    8  A    between atoms: C20_24  and  C21_25
REMARK    9  A    between atoms: C21_25  and  N3_26
REMARK   10  A    between atoms: C28_38  and  C29_39
REMARK   11  A    between atoms: C29_39  and  C30_40
REMARK   12  A    between atoms: C30_40  and  N7_41
REMARK   13  A    between atoms: C32_46  and  O3_47
ROOT
HETATM    1  C8  UNL     1      -8.317   3.656   4.391  1.00  0.00     0.032 C
HETATM    2  C9  UNL     1      -9.637   3.088   4.788  1.00  0.00     0.039 C
HETATM    3  C10 UNL     1      -7.913   4.522   5.610  1.00  0.00     0.040 C
HETATM    4  C11 UNL     1      -7.071   5.694   5.327  1.00  0.00     0.105 C
HETATM    5  C12 UNL     1      -5.612   5.481   5.288  1.00  0.00     0.217 C
HETATM    6  O1  UNL     1      -4.977   5.860   4.270  1.00  0.00    -0.274 OA
HETATM    7  N1  UNL     1      -4.843   4.876   6.311  1.00  0.00    -0.361 N
ATOM      8  H1  UNL     1      -4.095   4.251   6.010  1.00  0.00     0.162 HD
HETATM    9  C13 UNL     1      -5.003   5.047   7.718  1.00  0.00     0.124 C
HETATM   10  C14 UNL     1      -3.752   4.619   8.436  1.00  0.00     0.039 C
HETATM   11  C15 UNL     1      -3.570   3.123   8.465  1.00  0.00     0.127 C
HETATM   12  N2  UNL     1      -4.361   2.440   9.453  1.00  0.00    -0.351 N
HETATM   13  C23 UNL     1      -5.356   1.463   9.104  1.00  0.00     0.228 C
HETATM   14  O2  UNL     1      -6.383   1.444   9.840  1.00  0.00    -0.273 OA
HETATM   15  C24 UNL     1      -5.288   0.505   7.990  1.00  0.00     0.112 C
HETATM   16  C25 UNL     1      -3.879   0.069   7.644  1.00  0.00     0.025 C
HETATM   17  C26 UNL     1      -5.964   0.977   6.744  1.00  0.00     0.072 C
HETATM   18  N6  UNL     1      -7.279   0.595   6.485  1.00  0.00    -0.385 N
HETATM   19  C27 UNL     1      -8.159   0.224   7.482  1.00  0.00     0.149 C
HETATM   20  C28 UNL     1      -7.534   0.191   5.118  1.00  0.00     0.158 C
HETATM   21  C32 UNL     1      -7.259   1.272   4.150  1.00  0.00     0.135 C
HETATM   22  N10 UNL     1      -7.296   2.643   4.211  1.00  0.00    -0.364 N
ATOM     23  H10 UNL     1      -6.369   3.053   4.101  1.00  0.00     0.162 HD
ENDROOT
BRANCH   1  24
HETATM   24  C7  UNL     1      -8.456   4.627   3.267  1.00  0.00     0.070 C
BRANCH  24  25
HETATM   25  C6  UNL     1      -9.702   4.765   2.524  1.00  0.00    -0.044 A
HETATM   26  C4  UNL     1     -10.669   5.692   2.858  1.00  0.00    -0.055 A
HETATM   27  C3  UNL     1     -11.856   5.705   2.124  1.00  0.00     0.014 A
HETATM   28  C5  UNL     1     -10.498   6.769   3.890  1.00  0.00     0.049 C
HETATM   29  C2  UNL     1     -12.102   4.844   1.091  1.00  0.00    -0.061 A
HETATM   30  C1  UNL     1     -13.389   4.927   0.367  1.00  0.00     0.048 C
HETATM   31  C35 UNL     1     -11.125   3.952   0.791  1.00  0.00     0.014 A
HETATM   32  C33 UNL     1      -9.903   3.863   1.469  1.00  0.00    -0.055 A
HETATM   33  C34 UNL     1      -8.942   2.871   0.973  1.00  0.00     0.049 C
ENDBRANCH  24  25
ENDBRANCH   1  24
BRANCH  21  34
HETATM   34  O3  UNL     1      -6.901   0.773   3.001  1.00  0.00    -0.348 OA
ATOM     35  H3  UNL     1      -6.335   1.379   2.539  1.00  0.00     0.219 HD
ENDBRANCH  21  34
BRANCH  20  36
HETATM   36  C29 UNL     1      -8.815  -0.522   4.927  1.00  0.00     0.053 C
BRANCH  36  37
HETATM   37  C30 UNL     1      -9.845   0.313   4.226  1.00  0.00     0.124 C
BRANCH  37  38
HETATM   38  N7  UNL     1     -10.051  -0.122   2.843  1.00  0.00    -0.367 N
HETATM   39  C31 UNL     1     -11.090   0.208   2.175  1.00  0.00     0.196 C
HETATM   40  N8  UNL     1     -12.076   1.017   2.779  1.00  0.00    -0.067 NA
HETATM   41  N9  UNL     1     -11.243  -0.233   0.847  1.00  0.00    -0.067 NA
ATOM     42  H7  UNL     1      -9.343  -0.706   2.398  1.00  0.00     0.161 HD
ENDBRANCH  37  38
ENDBRANCH  36  37
ENDBRANCH  20  36
BRANCH  12  43
HETATM   43  C16 UNL     1      -4.210   2.738  10.855  1.00  0.00     0.125 C
BRANCH  43  44
HETATM   44  C17 UNL     1      -3.537   1.717  11.686  1.00  0.00     0.020 C
BRANCH  44  45
HETATM   45  C18 UNL     1      -2.059   1.625  11.637  1.00  0.00     0.002 C
BRANCH  45  46
HETATM   46  C19 UNL     1      -1.395   2.929  11.248  1.00  0.00     0.002 C
BRANCH  46  47
HETATM   47  C20 UNL     1      -0.240   2.701  10.297  1.00  0.00     0.020 C
BRANCH  47  48
HETATM   48  C21 UNL     1       0.503   4.010  10.155  1.00  0.00     0.122 C
BRANCH  48  49
HETATM   49  N3  UNL     1      -0.136   4.833   9.133  1.00  0.00    -0.367 N
HETATM   50  C22 UNL     1      -0.406   6.051   9.428  1.00  0.00     0.196 C
HETATM   51  N4  UNL     1      -0.104   6.602  10.697  1.00  0.00    -0.067 NA
HETATM   52  N5  UNL     1      -1.023   6.869   8.457  1.00  0.00    -0.067 NA
ATOM     53  H3  UNL     1      -0.360   4.453   8.214  1.00  0.00     0.161 HD
ENDBRANCH  48  49
ENDBRANCH  47  48
ENDBRANCH  46  47
ENDBRANCH  45  46
ENDBRANCH  44  45
ENDBRANCH  43  44
ENDBRANCH  12  43
TORSDOF 13
ENDMDL