MODEL 5
REMARK VINA RESULT: -7.283609359      2.191      6.507
REMARK  15 active torsions:
REMARK  status: ('A' for Active; 'I' for Inactive)
REMARK    1  A    between atoms: C2_2  and  C3_3
REMARK    2  A    between atoms: C3_3  and  C5_5
REMARK    3  A    between atoms: C7_10  and  C8_11
REMARK    4  A    between atoms: C11_14  and  O2_15
REMARK    5  A    between atoms: C12_19  and  C13_20
REMARK    6  A    between atoms: C13_20  and  C14_21
REMARK    7  A    between atoms: C17_24  and  O3_25
REMARK    8  A    between atoms: C18_29  and  C19_30
REMARK    9  A    between atoms: C19_30  and  C20_31
REMARK   10  A    between atoms: C24_38  and  C25_39
REMARK   11  A    between atoms: C25_39  and  C26_40
REMARK   12  A    between atoms: C29_43  and  O5_44
REMARK   13  A    between atoms: C30_48  and  C31_49
REMARK   14  A    between atoms: C31_49  and  C32_50
REMARK   15  A    between atoms: C33_53  and  O7_54
ROOT
HETATM    1  C5  UNL     1      -9.385   0.630   7.830  1.00  0.00     0.085 C
HETATM    2  C6  UNL     1      -8.357   1.113   8.696  1.00  0.00     0.265 C
HETATM    3  O1  UNL     1      -8.620   1.870   9.715  1.00  0.00    -0.266 OA
HETATM    4  N1  UNL     1      -6.966   0.848   8.588  1.00  0.00    -0.344 N
ATOM      5  H1  UNL     1      -6.470   0.735   9.472  1.00  0.00     0.163 HD
HETATM    6  C7  UNL     1      -6.165   0.719   7.407  1.00  0.00     0.162 C
HETATM    7  C11 UNL     1      -5.513   1.933   6.908  1.00  0.00     0.135 C
HETATM    8  N2  UNL     1      -5.125   3.125   7.521  1.00  0.00    -0.361 N
ATOM      9  H2  UNL     1      -5.774   3.890   7.341  1.00  0.00     0.162 HD
HETATM   10  C12 UNL     1      -4.027   3.515   8.343  1.00  0.00     0.158 C
HETATM   11  C17 UNL     1      -3.454   4.851   8.098  1.00  0.00     0.135 C
HETATM   12  N3  UNL     1      -3.824   5.989   7.444  1.00  0.00    -0.359 N
ATOM     13  H3  UNL     1      -3.850   6.769   8.101  1.00  0.00     0.162 HD
HETATM   14  C18 UNL     1      -4.186   6.446   6.143  1.00  0.00     0.175 C
HETATM   15  C23 UNL     1      -4.476   5.532   5.074  1.00  0.00     0.241 C
HETATM   16  O4  UNL     1      -3.574   4.673   4.744  1.00  0.00    -0.271 OA
HETATM   17  N4  UNL     1      -5.714   5.551   4.379  1.00  0.00    -0.347 N
ATOM     18  H4  UNL     1      -5.670   5.544   3.360  1.00  0.00     0.163 HD
HETATM   19  C24 UNL     1      -7.046   5.580   4.982  1.00  0.00     0.159 C
HETATM   20  C29 UNL     1      -7.729   4.278   4.809  1.00  0.00     0.135 C
HETATM   21  N5  UNL     1      -8.571   3.603   5.690  1.00  0.00    -0.360 N
ATOM     22  H5  UNL     1      -8.406   2.596   5.697  1.00  0.00     0.162 HD
HETATM   23  C30 UNL     1      -9.596   3.988   6.573  1.00  0.00     0.166 C
HETATM   24  C33 UNL     1     -10.462   2.844   7.002  1.00  0.00     0.141 C
HETATM   25  N7  UNL     1     -10.276   1.479   7.090  1.00  0.00    -0.333 N
HETATM   26  C34 UNL     1     -11.183   0.631   6.249  1.00  0.00     0.158 C
ENDROOT
BRANCH   1  27
HETATM   27  C3  UNL     1     -10.091  -0.610   8.421  1.00  0.00     0.037 C
HETATM   28  C4  UNL     1      -9.070  -1.775   8.417  1.00  0.00     0.016 C
BRANCH  27  29
HETATM   29  C2  UNL     1     -10.549  -0.482   9.815  1.00  0.00     0.006 C
HETATM   30  C1  UNL     1     -11.890   0.151  10.055  1.00  0.00     0.006 C
ENDBRANCH  27  29
ENDBRANCH   1  27
BRANCH  24  31
HETATM   31  O7  UNL     1     -11.644   3.252   7.364  1.00  0.00    -0.348 OA
ATOM     32  H7  UNL     1     -12.108   2.581   7.852  1.00  0.00     0.219 HD
ENDBRANCH  24  31
BRANCH   6  33
HETATM   33  C8  UNL     1      -5.260  -0.498   7.451  1.00  0.00     0.008 C
HETATM   34  C9  UNL     1      -5.718  -1.642   6.606  1.00  0.00     0.012 C
HETATM   35  C10 UNL     1      -4.988  -0.917   8.890  1.00  0.00     0.012 C
ENDBRANCH   6  33
BRANCH  23  36
HETATM   36  C31 UNL     1      -9.240   4.819   7.738  1.00  0.00     0.133 C
BRANCH  36  37
HETATM   37  C32 UNL     1      -9.969   6.103   7.865  1.00  0.00     0.233 C
HETATM   38  N6  UNL     1     -11.324   6.114   8.359  1.00  0.00    -0.062 NA
HETATM   39  O6  UNL     1      -9.501   7.229   7.570  1.00  0.00    -0.277 OA
ENDBRANCH  36  37
ENDBRANCH  23  36
BRANCH   7  40
HETATM   40  O2  UNL     1      -5.257   1.862   5.625  1.00  0.00    -0.348 OA
ATOM     41  H2  UNL     1      -4.931   2.684   5.280  1.00  0.00     0.219 HD
ENDBRANCH   7  40
BRANCH  20  42
HETATM   42  O5  UNL     1      -7.445   3.754   3.648  1.00  0.00    -0.348 OA
ATOM     43  H5  UNL     1      -8.008   3.011   3.465  1.00  0.00     0.219 HD
ENDBRANCH  20  42
BRANCH  10  44
HETATM   44  C13 UNL     1      -4.301   3.306   9.818  1.00  0.00     0.037 C
BRANCH  44  45
HETATM   45  C14 UNL     1      -3.744   2.109  10.464  1.00  0.00    -0.020 C
HETATM   46  C15 UNL     1      -4.621   1.458  11.495  1.00  0.00     0.009 C
HETATM   47  C16 UNL     1      -2.469   2.559  11.207  1.00  0.00     0.009 C
ENDBRANCH  44  45
ENDBRANCH  10  44
BRANCH  19  48
HETATM   48  C25 UNL     1      -7.848   6.776   4.669  1.00  0.00     0.037 C
BRANCH  48  49
HETATM   49  C26 UNL     1      -9.003   6.708   3.763  1.00  0.00    -0.020 C
HETATM   50  C27 UNL     1     -10.198   7.531   4.108  1.00  0.00     0.009 C
HETATM   51  C28 UNL     1      -8.507   7.054   2.341  1.00  0.00     0.009 C
ENDBRANCH  48  49
ENDBRANCH  19  48
BRANCH  11  52
HETATM   52  O3  UNL     1      -2.270   4.927   8.683  1.00  0.00    -0.348 OA
ATOM     53  H3  UNL     1      -2.313   4.496   9.529  1.00  0.00     0.219 HD
ENDBRANCH  11  52
BRANCH  14  54
HETATM   54  C19 UNL     1      -3.055   7.375   5.607  1.00  0.00     0.038 C
BRANCH  54  55
HETATM   55  C20 UNL     1      -3.442   8.805   5.575  1.00  0.00    -0.020 C
HETATM   56  C21 UNL     1      -4.913   9.069   5.644  1.00  0.00     0.009 C
HETATM   57  C22 UNL     1      -2.802   9.459   6.808  1.00  0.00     0.009 C
ENDBRANCH  54  55
ENDBRANCH  14  54
TORSDOF 15
ENDMDL