MODEL 3
REMARK VINA RESULT: -8.643733814      2.341      7.587
REMARK  13 active torsions:
REMARK  status: ('A' for Active; 'I' for Inactive)
REMARK    1  A    between atoms: C2_2  and  C3_3
REMARK    2  A    between atoms: C3_3  and  C4_4
REMARK    3  A    between atoms: C4_4  and  C5_5
REMARK    4  A    between atoms: C5_5  and  C6_6
REMARK    5  A    between atoms: C6_6  and  C7_7
REMARK    6  A    between atoms: C13_18  and  C14_19
REMARK    7  A    between atoms: C14_19  and  C15_20
REMARK    8  A    between atoms: C19_27  and  C20_28
REMARK    9  A    between atoms: C20_28  and  C21_29
REMARK   10  A    between atoms: C26_39  and  O5_40
REMARK   11  A    between atoms: C30_48  and  C31_49
REMARK   12  A    between atoms: C31_49  and  C32_50
REMARK   13  A    between atoms: C32_50  and  C33_51
ROOT
HETATM    1  C7  UNL     1      -6.522   3.370   5.323  1.00  0.00     0.176 C
HETATM    2  N1  UNL     1      -5.742   2.169   5.528  1.00  0.00    -0.346 N
ATOM      3  H1  UNL     1      -6.114   1.334   5.076  1.00  0.00     0.163 HD
HETATM    4  C8  UNL     1      -4.569   1.972   6.242  1.00  0.00     0.240 C
HETATM    5  O1  UNL     1      -3.571   1.470   5.602  1.00  0.00    -0.271 OA
HETATM    6  C9  UNL     1      -4.289   2.265   7.677  1.00  0.00     0.174 C
HETATM    7  C10 UNL     1      -3.052   3.163   7.791  1.00  0.00     0.042 C
HETATM    8  N2  UNL     1      -3.991   1.067   8.431  1.00  0.00    -0.342 N
HETATM    9  C11 UNL     1      -3.551  -0.113   7.668  1.00  0.00     0.153 C
HETATM   10  C12 UNL     1      -4.107   0.992   9.850  1.00  0.00     0.243 C
HETATM   11  O2  UNL     1      -3.985  -0.159  10.345  1.00  0.00    -0.271 OA
HETATM   12  C13 UNL     1      -4.350   2.106  10.758  1.00  0.00     0.177 C
HETATM   13  N3  UNL     1      -5.672   2.168  11.354  1.00  0.00    -0.346 N
ATOM     14  H3  UNL     1      -5.830   3.011  11.905  1.00  0.00     0.163 HD
HETATM   15  C18 UNL     1      -6.764   1.313  11.325  1.00  0.00     0.241 C
HETATM   16  O3  UNL     1      -7.036   0.735  12.445  1.00  0.00    -0.271 OA
HETATM   17  C19 UNL     1      -7.672   0.964  10.210  1.00  0.00     0.179 C
HETATM   18  N5  UNL     1      -8.768   1.929  10.127  1.00  0.00    -0.359 N
ATOM     19  H5  UNL     1      -9.178   2.170  11.030  1.00  0.00     0.162 HD
HETATM   20  C26 UNL     1      -9.350   2.573   9.061  1.00  0.00     0.135 C
HETATM   21  C27 UNL     1     -10.061   2.039   7.874  1.00  0.00     0.155 C
HETATM   22  C28 UNL     1     -11.276   1.209   8.248  1.00  0.00     0.041 C
HETATM   23  N6  UNL     1      -9.197   1.371   6.926  1.00  0.00    -0.348 N
ATOM     24  H6  UNL     1      -8.493   0.732   7.297  1.00  0.00     0.163 HD
HETATM   25  C29 UNL     1      -9.256   1.538   5.521  1.00  0.00     0.241 C
HETATM   26  O6  UNL     1      -9.060   0.527   4.798  1.00  0.00    -0.271 OA
HETATM   27  C30 UNL     1      -9.532   2.825   4.842  1.00  0.00     0.176 C
HETATM   28  N7  UNL     1      -8.562   3.071   3.776  1.00  0.00    -0.346 N
ATOM     29  H7  UNL     1      -8.894   3.042   2.812  1.00  0.00     0.163 HD
HETATM   30  C35 UNL     1      -7.193   3.345   3.997  1.00  0.00     0.241 C
HETATM   31  O7  UNL     1      -6.479   3.591   2.970  1.00  0.00    -0.271 OA
ENDROOT
BRANCH  17  32
HETATM   32  C20 UNL     1      -8.223  -0.410  10.191  1.00  0.00     0.074 C
BRANCH  32  33
HETATM   33  C21 UNL     1      -8.331  -1.102   8.908  1.00  0.00    -0.040 A
HETATM   34  C22 UNL     1      -9.411  -1.878   8.570  1.00  0.00     0.014 A
HETATM   35  C23 UNL     1      -9.528  -2.562   7.354  1.00  0.00     0.075 A
HETATM   36  C24 UNL     1      -8.477  -2.421   6.477  1.00  0.00     0.245 A
HETATM   37  O4  UNL     1      -8.564  -3.035   5.368  1.00  0.00    -0.268 OA
HETATM   38  N4  UNL     1      -7.411  -1.659   6.803  1.00  0.00    -0.333 N
HETATM   39  C25 UNL     1      -7.303  -1.010   7.958  1.00  0.00     0.098 A
ATOM     40  H4  UNL     1      -6.650  -1.576   6.129  1.00  0.00     0.168 HD
ENDBRANCH  32  33
ENDBRANCH  17  32
BRANCH  20  41
HETATM   41  O5  UNL     1      -9.281   3.873   9.072  1.00  0.00    -0.348 OA
ATOM     42  H5  UNL     1      -9.067   4.286   8.244  1.00  0.00     0.219 HD
ENDBRANCH  20  41
BRANCH  12  43
HETATM   43  C14 UNL     1      -3.401   2.124  11.921  1.00  0.00     0.038 C
BRANCH  43  44
HETATM   44  C15 UNL     1      -1.985   2.420  11.754  1.00  0.00    -0.020 C
HETATM   45  C16 UNL     1      -1.583   3.473  10.775  1.00  0.00     0.009 C
HETATM   46  C17 UNL     1      -1.253   1.129  11.290  1.00  0.00     0.009 C
ENDBRANCH  43  44
ENDBRANCH  12  43
BRANCH  27  47
HETATM   47  C31 UNL     1     -10.941   2.915   4.330  1.00  0.00     0.035 C
BRANCH  47  48
HETATM   48  C32 UNL     1     -11.032   3.162   2.849  1.00  0.00     0.002 C
BRANCH  48  49
HETATM   49  C33 UNL     1     -11.684   4.534   2.662  1.00  0.00    -0.004 C
HETATM   50  C34 UNL     1     -11.955   4.725   1.181  1.00  0.00     0.005 C
ENDBRANCH  48  49
ENDBRANCH  47  48
ENDBRANCH  27  47
BRANCH   1  51
HETATM   51  C6  UNL     1      -5.683   4.645   5.332  1.00  0.00     0.035 C
BRANCH  51  52
HETATM   52  C5  UNL     1      -6.098   5.405   6.546  1.00  0.00     0.002 C
BRANCH  52  53
HETATM   53  C4  UNL     1      -5.446   6.682   6.867  1.00  0.00     0.000 C
BRANCH  53  54
HETATM   54  C3  UNL     1      -4.228   6.784   7.660  1.00  0.00    -0.000 C
BRANCH  54  55
HETATM   55  C2  UNL     1      -2.960   6.989   6.916  1.00  0.00    -0.005 C
HETATM   56  C1  UNL     1      -3.312   7.821   5.649  1.00  0.00     0.005 C
ENDBRANCH  54  55
ENDBRANCH  53  54
ENDBRANCH  52  53
ENDBRANCH  51  52
ENDBRANCH   1  51
TORSDOF 13
ENDMDL