MODEL 3
REMARK VINA RESULT: -7.235193422      2.390      5.818
REMARK  12 active torsions:
REMARK  status: ('A' for Active; 'I' for Inactive)
REMARK    1  A    between atoms: C2_2  and  C3_3
REMARK    2  A    between atoms: C3_3  and  C5_5
REMARK    3  A    between atoms: C7_10  and  C8_11
REMARK    4  A    between atoms: C8_11  and  C9_12
REMARK    5  A    between atoms: C9_12  and  C10_13
REMARK    6  A    between atoms: C12_18  and  C13_19
REMARK    7  A    between atoms: C13_19  and  C14_20
REMARK    8  A    between atoms: C14_20  and  C15_21
REMARK    9  A    between atoms: C20_29  and  C21_30
REMARK   10  A    between atoms: C21_30  and  C22_31
REMARK   11  A    between atoms: C26_38  and  C27_39
REMARK   12  A    between atoms: C31_46  and  C32_47
ROOT
HETATM    1  C5  UNL     1      -4.967   3.714   6.225  1.00  0.00     0.180 C
HETATM    2  N1  UNL     1      -5.205   2.629   5.270  1.00  0.00    -0.346 N
ATOM      3  H1  UNL     1      -4.349   2.240   4.873  1.00  0.00     0.163 HD
HETATM    4  C6  UNL     1      -6.349   2.028   4.800  1.00  0.00     0.241 C
HETATM    5  O1  UNL     1      -6.473   0.754   4.996  1.00  0.00    -0.271 OA
HETATM    6  C7  UNL     1      -7.524   2.592   4.071  1.00  0.00     0.173 C
HETATM    7  N3  UNL     1      -8.659   1.795   4.190  1.00  0.00    -0.384 N
HETATM    8  C11 UNL     1      -8.827   0.649   3.368  1.00  0.00     0.146 C
HETATM    9  C12 UNL     1      -9.943   2.401   4.335  1.00  0.00     0.182 C
HETATM   10  N4  UNL     1     -10.846   1.411   4.877  1.00  0.00    -0.338 N
ATOM     11  H4  UNL     1     -11.521   1.039   4.210  1.00  0.00     0.164 HD
HETATM   12  C19 UNL     1     -10.944   0.886   6.151  1.00  0.00     0.242 C
HETATM   13  O3  UNL     1     -12.109   0.805   6.695  1.00  0.00    -0.271 OA
HETATM   14  C20 UNL     1      -9.889   0.369   7.059  1.00  0.00     0.177 C
HETATM   15  N5  UNL     1      -9.748   1.303   8.182  1.00  0.00    -0.346 N
ATOM     16  H5  UNL     1     -10.190   2.212   8.044  1.00  0.00     0.163 HD
HETATM   17  C25 UNL     1      -9.106   1.145   9.404  1.00  0.00     0.241 C
HETATM   18  O4  UNL     1      -9.841   1.248  10.468  1.00  0.00    -0.271 OA
HETATM   19  C26 UNL     1      -7.696   0.876   9.737  1.00  0.00     0.180 C
HETATM   20  N6  UNL     1      -6.876   0.348   8.707  1.00  0.00    -0.346 N
ATOM     21  H6  UNL     1      -7.301  -0.312   8.056  1.00  0.00     0.163 HD
HETATM   22  C30 UNL     1      -5.498   0.674   8.513  1.00  0.00     0.241 C
HETATM   23  O5  UNL     1      -4.775  -0.090   7.805  1.00  0.00    -0.271 OA
HETATM   24  C31 UNL     1      -4.873   1.869   9.105  1.00  0.00     0.180 C
HETATM   25  N7  UNL     1      -5.446   3.128   8.712  1.00  0.00    -0.346 N
ATOM     26  H7  UNL     1      -5.626   3.785   9.470  1.00  0.00     0.163 HD
HETATM   27  C35 UNL     1      -5.791   3.578   7.424  1.00  0.00     0.241 C
HETATM   28  O6  UNL     1      -7.024   3.918   7.288  1.00  0.00    -0.271 OA
ENDROOT
BRANCH   9  29
HETATM   29  C13 UNL     1     -10.034   3.674   5.065  1.00  0.00     0.047 C
BRANCH  29  30
HETATM   30  C14 UNL     1     -10.943   4.623   4.273  1.00  0.00     0.012 C
BRANCH  30  31
HETATM   31  C15 UNL     1     -10.391   6.055   4.373  1.00  0.00    -0.051 C
HETATM   32  C16 UNL     1      -9.031   6.027   5.032  1.00  0.00     0.014 C
HETATM   33  C17 UNL     1     -10.354   6.722   3.031  1.00  0.00     0.014 C
HETATM   34  C18 UNL     1     -11.340   6.811   5.274  1.00  0.00     0.014 C
ENDBRANCH  30  31
ENDBRANCH  29  30
ENDBRANCH   9  29
BRANCH   6  35
HETATM   35  C8  UNL     1      -7.159   3.051   2.684  1.00  0.00     0.043 C
BRANCH  35  36
HETATM   36  C9  UNL     1      -7.915   4.162   2.089  1.00  0.00     0.102 C
BRANCH  36  37
HETATM   37  C10 UNL     1      -8.772   3.546   0.998  1.00  0.00     0.231 C
HETATM   38  N2  UNL     1      -8.183   2.769  -0.038  1.00  0.00    -0.062 NA
HETATM   39  O2  UNL     1     -10.016   3.697   0.967  1.00  0.00    -0.277 OA
ENDBRANCH  36  37
ENDBRANCH  35  36
ENDBRANCH   6  35
BRANCH  14  40
HETATM   40  C21 UNL     1     -10.272  -0.992   7.503  1.00  0.00     0.038 C
BRANCH  40  41
HETATM   41  C22 UNL     1      -9.315  -2.074   7.627  1.00  0.00    -0.020 C
HETATM   42  C23 UNL     1      -8.203  -2.257   6.683  1.00  0.00     0.009 C
HETATM   43  C24 UNL     1     -10.127  -3.394   7.595  1.00  0.00     0.009 C
ENDBRANCH  40  41
ENDBRANCH  14  40
BRANCH   1  44
HETATM   44  C3  UNL     1      -5.084   5.045   5.579  1.00  0.00     0.013 C
HETATM   45  C4  UNL     1      -4.348   4.996   4.205  1.00  0.00     0.012 C
BRANCH  44  46
HETATM   46  C2  UNL     1      -4.524   6.247   6.228  1.00  0.00     0.002 C
HETATM   47  C1  UNL     1      -3.146   6.275   6.740  1.00  0.00     0.005 C
ENDBRANCH  44  46
ENDBRANCH   1  44
BRANCH  19  48
HETATM   48  C27 UNL     1      -7.512   0.083  11.018  1.00  0.00     0.009 C
HETATM   49  C28 UNL     1      -7.177  -1.358  10.793  1.00  0.00     0.012 C
HETATM   50  C29 UNL     1      -6.556   0.676  11.988  1.00  0.00     0.012 C
ENDBRANCH  19  48
BRANCH  24  51
HETATM   51  C32 UNL     1      -3.391   1.911   8.940  1.00  0.00     0.009 C
HETATM   52  C33 UNL     1      -2.668   0.941   9.850  1.00  0.00     0.012 C
HETATM   53  C34 UNL     1      -2.876   3.301   9.244  1.00  0.00     0.012 C
ENDBRANCH  24  51
TORSDOF 12
ENDMDL