MODEL 3
REMARK VINA RESULT: -7.993220953      2.356      6.939
REMARK  14 active torsions:
REMARK  status: ('A' for Active; 'I' for Inactive)
REMARK    1  A    between atoms: C2_2  and  C4_4
REMARK    2  A    between atoms: C4_4  and  C5_5
REMARK    3  A    between atoms: C7_10  and  C8_11
REMARK    4  A    between atoms: C12_18  and  C13_19
REMARK    5  A    between atoms: C13_19  and  C14_20
REMARK    6  A    between atoms: C17_25  and  O3_26
REMARK    7  A    between atoms: C21_31  and  C22_32
REMARK    8  A    between atoms: C22_32  and  C24_34
REMARK    9  A    between atoms: C24_34  and  N4_35
REMARK       I    between atoms: N4_35  and  C25_37
REMARK   10  A    between atoms: C25_37  and  C26_39
REMARK   11  A    between atoms: C26_39  and  C27_40
REMARK   12  A    between atoms: C27_40  and  N5_41
REMARK   13  A    between atoms: C30_49  and  C31_50
REMARK   14  A    between atoms: C31_50  and  C32_51
ROOT
HETATM    1  C5  UNL     1      -4.395   5.267   7.290  1.00  0.00     0.177 C
HETATM    2  N1  UNL     1      -3.135   4.865   7.841  1.00  0.00    -0.346 N
ATOM      3  H1  UNL     1      -2.312   5.177   7.327  1.00  0.00     0.163 HD
HETATM    4  C6  UNL     1      -2.875   4.103   8.990  1.00  0.00     0.241 C
HETATM    5  O1  UNL     1      -2.124   4.544   9.937  1.00  0.00    -0.271 OA
HETATM    6  C7  UNL     1      -3.403   2.712   9.288  1.00  0.00     0.180 C
HETATM    7  N2  UNL     1      -4.566   2.905  10.112  1.00  0.00    -0.346 N
ATOM      8  H2  UNL     1      -4.831   3.878  10.261  1.00  0.00     0.163 HD
HETATM    9  C11 UNL     1      -5.390   1.967  10.742  1.00  0.00     0.241 C
HETATM   10  O2  UNL     1      -5.526   2.030  12.023  1.00  0.00    -0.271 OA
HETATM   11  C12 UNL     1      -6.170   0.854  10.085  1.00  0.00     0.175 C
HETATM   12  N3  UNL     1      -7.382   1.418   9.489  1.00  0.00    -0.360 N
ATOM     13  H3  UNL     1      -8.204   1.400  10.094  1.00  0.00     0.162 HD
HETATM   14  C17 UNL     1      -7.595   1.972   8.243  1.00  0.00     0.126 C
HETATM   15  C18 UNL     1      -7.564   1.398   6.878  1.00  0.00     0.056 C
HETATM   16  C19 UNL     1      -7.784  -0.060   6.919  1.00  0.00     0.030 C
HETATM   17  C20 UNL     1      -6.083   1.505   6.425  1.00  0.00     0.030 C
HETATM   18  C21 UNL     1      -8.331   2.178   5.864  1.00  0.00     0.013 C
HETATM   19  N6  UNL     1      -7.579   2.463   4.636  1.00  0.00    -0.326 N
HETATM   20  C28 UNL     1      -7.745   1.539   3.501  1.00  0.00     0.159 C
HETATM   21  C29 UNL     1      -6.713   3.538   4.423  1.00  0.00     0.246 C
HETATM   22  O5  UNL     1      -5.750   3.343   3.602  1.00  0.00    -0.271 OA
HETATM   23  C30 UNL     1      -6.774   4.897   5.037  1.00  0.00     0.177 C
HETATM   24  N7  UNL     1      -5.435   5.458   4.953  1.00  0.00    -0.346 N
ATOM     25  H7  UNL     1      -5.272   6.120   4.193  1.00  0.00     0.163 HD
HETATM   26  C35 UNL     1      -4.354   5.202   5.781  1.00  0.00     0.241 C
HETATM   27  O6  UNL     1      -3.229   4.887   5.284  1.00  0.00    -0.271 OA
ENDROOT
BRANCH  18  28
HETATM   28  C22 UNL     1      -9.767   1.979   5.663  1.00  0.00     0.046 C
HETATM   29  C23 UNL     1     -10.482   3.347   5.615  1.00  0.00     0.018 C
BRANCH  28  30
HETATM   30  C24 UNL     1     -10.593   1.124   6.511  1.00  0.00     0.132 C
BRANCH  30  31
HETATM   31  N4  UNL     1     -11.299   1.897   7.519  1.00  0.00    -0.360 N
HETATM   32  C25 UNL     1     -11.228   1.750   8.895  1.00  0.00     0.219 C
HETATM   33  O4  UNL     1     -10.503   0.893   9.431  1.00  0.00    -0.274 OA
ATOM     34  H4  UNL     1     -11.919   2.631   7.174  1.00  0.00     0.162 HD
BRANCH  32  35
HETATM   35  C26 UNL     1     -12.025   2.626   9.778  1.00  0.00     0.130 C
BRANCH  35  36
HETATM   36  C27 UNL     1     -11.391   3.983   9.958  1.00  0.00     0.238 C
BRANCH  36  37
HETATM   37  N5  UNL     1      -9.980   3.907  10.232  1.00  0.00    -0.079 N
ATOM     38  H53 UNL     1      -9.660   2.939  10.231  1.00  0.00     0.274 HD
ATOM     39  H52 UNL     1      -9.436   4.263   9.446  1.00  0.00     0.274 HD
ATOM     40  H51 UNL     1      -9.719   4.378  11.099  1.00  0.00     0.274 HD
ENDBRANCH  36  37
ENDBRANCH  35  36
ENDBRANCH  32  35
ENDBRANCH  30  31
ENDBRANCH  28  30
ENDBRANCH  18  28
BRANCH  14  41
HETATM   41  O3  UNL     1      -7.881   3.249   8.261  1.00  0.00    -0.349 OA
ATOM     42  H3  UNL     1      -8.457   3.532   7.560  1.00  0.00     0.219 HD
ENDBRANCH  14  41
BRANCH  23  43
HETATM   43  C31 UNL     1      -7.800   5.645   4.273  1.00  0.00     0.038 C
BRANCH  43  44
HETATM   44  C32 UNL     1      -8.474   6.787   4.915  1.00  0.00    -0.020 C
HETATM   45  C33 UNL     1      -8.548   6.693   6.424  1.00  0.00     0.009 C
HETATM   46  C34 UNL     1      -8.055   8.155   4.434  1.00  0.00     0.009 C
ENDBRANCH  43  44
ENDBRANCH  23  43
BRANCH  11  47
HETATM   47  C13 UNL     1      -6.542  -0.103  11.216  1.00  0.00     0.038 C
BRANCH  47  48
HETATM   48  C14 UNL     1      -5.992  -1.479  11.087  1.00  0.00    -0.020 C
HETATM   49  C15 UNL     1      -6.661  -2.319  12.180  1.00  0.00     0.009 C
HETATM   50  C16 UNL     1      -4.486  -1.522  11.309  1.00  0.00     0.009 C
ENDBRANCH  47  48
ENDBRANCH  11  47
BRANCH   1  51
HETATM   51  C4  UNL     1      -4.759   6.644   7.746  1.00  0.00     0.038 C
BRANCH  51  52
HETATM   52  C2  UNL     1      -4.412   7.791   6.900  1.00  0.00    -0.020 C
HETATM   53  C1  UNL     1      -3.120   8.493   7.131  1.00  0.00     0.009 C
HETATM   54  C3  UNL     1      -5.517   8.850   7.115  1.00  0.00     0.009 C
ENDBRANCH  51  52
ENDBRANCH   1  51
BRANCH   6  55
HETATM   55  C8  UNL     1      -2.307   1.940   9.998  1.00  0.00     0.009 C
HETATM   56  C9  UNL     1      -2.334   1.994  11.479  1.00  0.00     0.012 C
HETATM   57  C10 UNL     1      -2.234   0.508   9.561  1.00  0.00     0.012 C
ENDBRANCH   6  55
TORSDOF 14
ENDMDL