MODEL 4
REMARK VINA RESULT: -6.373867147      3.389      6.066
REMARK  6 active torsions:
REMARK  status: ('A' for Active; 'I' for Inactive)
REMARK    1  A    between atoms: C3_3  and  C5_5
REMARK       I    between atoms: C5_5  and  N1_7
REMARK    2  A    between atoms: N1_7  and  N2_9
REMARK    3  A    between atoms: N2_9  and  C6_11
REMARK    4  A    between atoms: C6_11  and  O2_12
REMARK    5  A    between atoms: C6_11  and  C7_14
REMARK    6  A    between atoms: C10_19  and  O3_20
ROOT
HETATM    1  C6  UNL     1      13.884   7.142 -35.095  1.00  0.00     0.175 C
ENDROOT
BRANCH   1   2
HETATM    2  N2  UNL     1      12.571   6.807 -34.835  1.00  0.00    -0.276 N
ATOM      3  H2  UNL     1      12.270   5.841 -34.962  1.00  0.00     0.189 HD
BRANCH   2   4
HETATM    4  N1  UNL     1      11.646   7.753 -34.404  1.00  0.00    -0.264 N
HETATM    5  C5  UNL     1      10.986   8.661 -35.313  1.00  0.00     0.265 C
HETATM    6  O1  UNL     1      11.234   8.635 -36.525  1.00  0.00    -0.266 OA
ATOM      7  H1  UNL     1      11.427   7.808 -33.410  1.00  0.00     0.190 HD
BRANCH   5   8
HETATM    8  C3  UNL     1      10.028   9.601 -34.783  1.00  0.00     0.003 C
HETATM    9  C2  UNL     1      10.362  10.741 -34.265  1.00  0.00    -0.019 C
HETATM   10  C1  UNL     1      11.695  11.304 -34.103  1.00  0.00     0.036 C
HETATM   11  C4  UNL     1       8.566   9.200 -34.858  1.00  0.00     0.054 C
ENDBRANCH   5   8
ENDBRANCH   2   4
ENDBRANCH   1   2
BRANCH   1  12
HETATM   12  O2  UNL     1      14.080   7.855 -36.170  1.00  0.00    -0.344 OA
ATOM     13  H2  UNL     1      13.755   7.476 -36.979  1.00  0.00     0.219 HD
ENDBRANCH   1  12
BRANCH   1  14
HETATM   14  C7  UNL     1      15.100   6.833 -34.371  1.00  0.00     0.091 A
HETATM   15  S1  UNL     1      15.422   5.498 -33.332  1.00  0.00    -0.075 SA
HETATM   16  C8  UNL     1      17.051   5.846 -32.923  1.00  0.00     0.055 A
HETATM   17 BR1  UNL     1      18.218   4.844 -31.781  1.00  0.00    -0.043 Br
HETATM   18  C9  UNL     1      17.286   6.999 -33.614  1.00  0.00     0.065 A
HETATM   19  C10 UNL     1      16.301   7.509 -34.353  1.00  0.00     0.091 A
BRANCH  19  20
HETATM   20  O3  UNL     1      16.435   8.700 -35.114  1.00  0.00    -0.354 OA
HETATM   21  C11 UNL     1      17.646   9.293 -35.447  1.00  0.00     0.210 C
ENDBRANCH  19  20
ENDBRANCH   1  14
TORSDOF 6
ENDMDL