MODEL 5
REMARK VINA RESULT: -6.524347761      0.862      1.328
REMARK  7 active torsions:
REMARK  status: ('A' for Active; 'I' for Inactive)
REMARK    1  A    between atoms: C2_2  and  O1_3
REMARK    2  A    between atoms: O1_3  and  C3_4
REMARK    3  A    between atoms: C3_4  and  C4_6
REMARK    4  A    between atoms: C5_8  and  N1_9
REMARK    5  A    between atoms: N1_9  and  C6_11
REMARK    6  A    between atoms: C6_11  and  N2_13
REMARK    7  A    between atoms: N2_13  and  C7_15
ROOT
HETATM    1  C4  UNL     1      11.123   9.271 -34.891  1.00  0.00     0.122 A
HETATM    2  S1  UNL     1      12.817   9.240 -35.088  1.00  0.00    -0.045 SA
HETATM    3  C5  UNL     1      13.007   7.564 -35.340  1.00  0.00     0.152 A
HETATM    4  N3  UNL     1      11.759   7.107 -35.261  1.00  0.00    -0.326 N
ATOM      5  H3  UNL     1      11.562   6.112 -35.375  1.00  0.00     0.169 HD
HETATM    6  C12 UNL     1      10.794   7.951 -35.035  1.00  0.00     0.129 A
HETATM    7 CL1  UNL     1       9.077   7.465 -34.906  1.00  0.00    -0.063 Cl
ENDROOT
BRANCH   3   8
HETATM    8  N1  UNL     1      14.103   6.866 -35.560  1.00  0.00    -0.313 N
ATOM      9  H1  UNL     1      14.170   6.242 -36.365  1.00  0.00     0.170 HD
BRANCH   8  10
HETATM   10  C6  UNL     1      15.189   6.999 -34.656  1.00  0.00     0.173 C
HETATM   11  S2  UNL     1      16.252   8.210 -34.910  1.00  0.00    -0.041 SA
BRANCH  10  12
HETATM   12  N2  UNL     1      15.348   6.106 -33.561  1.00  0.00    -0.362 N
ATOM     13  H2  UNL     1      14.599   6.052 -32.872  1.00  0.00     0.162 HD
BRANCH  12  14
HETATM   14  C7  UNL     1      16.499   5.281 -33.371  1.00  0.00     0.083 C
HETATM   15  C8  UNL     1      17.444   5.946 -32.396  1.00  0.00     0.025 C
HETATM   16  C9  UNL     1      18.413   4.793 -32.105  1.00  0.00     0.002 C
HETATM   17  C10 UNL     1      17.555   3.559 -32.148  1.00  0.00     0.002 C
HETATM   18  C11 UNL     1      16.201   3.977 -32.681  1.00  0.00     0.025 C
ENDBRANCH  12  14
ENDBRANCH  10  12
ENDBRANCH   8  10
ENDBRANCH   3   8
BRANCH   1  19
HETATM   19  C3  UNL     1      10.245  10.434 -34.631  1.00  0.00     0.303 C
HETATM   20  O2  UNL     1      10.476  11.162 -33.633  1.00  0.00    -0.259 OA
BRANCH  19  21
HETATM   21  O1  UNL     1       9.192  10.741 -35.443  1.00  0.00    -0.317 OA
BRANCH  21  22
HETATM   22  C2  UNL     1       9.347  10.978 -36.839  1.00  0.00     0.174 C
HETATM   23  C1  UNL     1      10.217  12.189 -37.058  1.00  0.00     0.034 C
ENDBRANCH  21  22
ENDBRANCH  19  21
ENDBRANCH   1  19
TORSDOF 7
ENDMDL