MODEL 5
REMARK VINA RESULT: -4.564975027      2.450      5.570
REMARK  5 active torsions:
REMARK  status: ('A' for Active; 'I' for Inactive)
REMARK    1  A    between atoms: C2_2  and  C4_5
REMARK    2  A    between atoms: C4_5  and  O1_6
REMARK    3  A    between atoms: C4_5  and  C5_8
REMARK    4  A    between atoms: C4_5  and  C11_14
REMARK    5  A    between atoms: C15_21  and  N2_22
ROOT
HETATM    1  C11 UNL     1      10.319   9.499 -35.662  1.00  0.00     0.006 C
HETATM    2  C12 UNL     1       9.883   8.274 -36.389  1.00  0.00     0.271 C
HETATM    3  N1  UNL     1       8.422   8.272 -36.634  1.00  0.00    -0.071 N
ATOM      4  H11 UNL     1       7.856   8.392 -35.794  1.00  0.00     0.277 HD
ATOM      5  H12 UNL     1       8.042   7.362 -36.895  1.00  0.00     0.277 HD
HETATM    6  C13 UNL     1       8.227   9.322 -37.649  1.00  0.00     0.238 C
HETATM    7  C14 UNL     1       8.560  10.678 -37.084  1.00  0.00     0.085 C
HETATM    8  C15 UNL     1       9.179  10.485 -35.733  1.00  0.00     0.019 C
ENDROOT
BRANCH   1   9
HETATM    9  C4  UNL     1      11.698   9.952 -35.809  1.00  0.00     0.123 C
BRANCH   9  10
HETATM   10  C2  UNL     1      12.204  10.801 -36.879  1.00  0.00     0.131 C
HETATM   11  C1  UNL     1      11.674  10.762 -38.248  1.00  0.00     0.055 C
HETATM   12  C3  UNL     1      12.562  12.232 -36.468  1.00  0.00     0.055 C
HETATM   13  F1  UNL     1      13.552  10.320 -37.065  1.00  0.00    -0.240 F
ENDBRANCH   9  10
BRANCH   9  14
HETATM   14  O1  UNL     1      11.989  10.722 -34.621  1.00  0.00    -0.381 OA
ATOM     15  H1  UNL     1      12.344  10.070 -34.028  1.00  0.00     0.211 HD
ENDBRANCH   9  14
BRANCH   9  16
HETATM   16  C5  UNL     1      12.699   8.798 -35.583  1.00  0.00     0.028 C
HETATM   17  C6  UNL     1      12.199   7.434 -35.682  1.00  0.00     0.008 C
HETATM   18  C7  UNL     1      13.199   6.508 -34.958  1.00  0.00     0.000 C
HETATM   19  C8  UNL     1      14.567   7.029 -35.235  1.00  0.00     0.000 C
HETATM   20  C9  UNL     1      14.873   8.311 -34.503  1.00  0.00     0.000 C
HETATM   21  C10 UNL     1      13.538   9.048 -34.321  1.00  0.00     0.008 C
ENDBRANCH   9  16
ENDBRANCH   1   9
BRANCH   8  22
HETATM   22  N2  UNL     1       9.206  11.604 -34.896  1.00  0.00    -0.359 N
HETATM   23  C16 UNL     1       8.625  11.486 -33.587  1.00  0.00     0.154 C
HETATM   24  C17 UNL     1       7.376  12.344 -33.509  1.00  0.00     0.188 C
HETATM   25  O2  UNL     1       7.860  13.671 -33.581  1.00  0.00    -0.385 OA
HETATM   26  C18 UNL     1       8.228  13.869 -34.895  1.00  0.00     0.212 C
HETATM   27  C19 UNL     1       9.253  12.906 -35.401  1.00  0.00     0.090 C
ENDBRANCH   8  22
TORSDOF 5
ENDMDL