MODEL 4
REMARK VINA RESULT: -6.946672271      3.212      7.136
REMARK  4 active torsions:
REMARK  status: ('A' for Active; 'I' for Inactive)
REMARK    1  A    between atoms: C2_2  and  C3_3
REMARK    2  A    between atoms: C2_2  and  C11_15
REMARK    3  A    between atoms: C14_18  and  C15_19
REMARK    4  A    between atoms: C15_19  and  O2_22
ROOT
HETATM    1  C1  UNL     1      12.388   9.894 -34.138  1.00  0.00     0.020 C
HETATM    2  C2  UNL     1      12.245   9.167 -35.207  1.00  0.00    -0.048 C
ENDROOT
BRANCH   2   3
HETATM    3  C3  UNL     1      11.152   9.354 -36.129  1.00  0.00     0.006 A
HETATM    4  C4  UNL     1      11.323  10.350 -37.101  1.00  0.00     0.038 A
HETATM    5  C5  UNL     1      10.341  10.642 -38.026  1.00  0.00     0.035 A
HETATM    6 CL1  UNL     1      10.619  11.906 -39.223  1.00  0.00    -0.084 Cl
HETATM    7  C6  UNL     1       9.147   9.954 -38.022  1.00  0.00     0.035 A
HETATM    8  C7  UNL     1       8.942   8.975 -37.087  1.00  0.00    -0.004 A
HETATM    9  C8  UNL     1       9.953   8.707 -36.170  1.00  0.00     0.095 A
HETATM   10  C10 UNL     1       7.704   8.199 -37.014  1.00  0.00     0.162 C
HETATM   11  O1  UNL     1       9.679   7.707 -35.249  1.00  0.00    -0.305 OA
HETATM   12  C9  UNL     1       8.396   7.322 -34.877  1.00  0.00     0.229 C
HETATM   13  N1  UNL     1       7.337   7.816 -35.678  1.00  0.00    -0.376 N
ATOM     14  H1  UNL     1       6.381   7.893 -35.331  1.00  0.00     0.161 HD
ENDBRANCH   2   3
BRANCH   2  15
HETATM   15  C11 UNL     1      13.290   8.122 -35.441  1.00  0.00     0.043 C
HETATM   16  C12 UNL     1      14.682   8.603 -35.220  1.00  0.00     0.014 C
HETATM   17  C13 UNL     1      15.472   7.731 -34.275  1.00  0.00     0.036 C
HETATM   18  C14 UNL     1      15.337   6.276 -34.562  1.00  0.00     0.155 C
HETATM   19  O3  UNL     1      14.055   5.931 -34.875  1.00  0.00    -0.382 OA
HETATM   20  C18 UNL     1      13.091   6.895 -34.586  1.00  0.00     0.177 C
BRANCH  18  21
HETATM   21  C15 UNL     1      15.930   5.422 -33.466  1.00  0.00     0.076 C
HETATM   22  C16 UNL     1      17.265   6.000 -33.059  1.00  0.00     0.048 C
HETATM   23  C17 UNL     1      16.141   4.011 -33.907  1.00  0.00     0.048 C
BRANCH  21  24
HETATM   24  O2  UNL     1      15.125   5.406 -32.329  1.00  0.00    -0.388 OA
ATOM     25  H2  UNL     1      15.090   6.256 -31.907  1.00  0.00     0.210 HD
ENDBRANCH  21  24
ENDBRANCH  18  21
ENDBRANCH   2  15
TORSDOF 4
ENDMDL