MODEL 2
REMARK VINA RESULT: -6.039256031      3.075      5.803
REMARK  5 active torsions:
REMARK  status: ('A' for Active; 'I' for Inactive)
REMARK    1  A    between atoms: C2_2  and  C3_3
REMARK    2  A    between atoms: C3_3  and  C4_4
REMARK    3  A    between atoms: C4_4  and  N1_5
REMARK    4  A    between atoms: C5_6  and  O1_7
REMARK    5  A    between atoms: C8_11  and  O2_12
ROOT
HETATM    1  N1  UNL     1      11.460   7.643 -35.015  1.00  0.00    -0.308 N
HETATM    2  C5  UNL     1      12.157   6.656 -35.569  1.00  0.00     0.151 A
HETATM    3  C6  UNL     1      13.494   6.936 -35.309  1.00  0.00     0.010 A
HETATM    4  C7  UNL     1      13.577   8.108 -34.591  1.00  0.00     0.010 A
HETATM    5  C8  UNL     1      12.297   8.537 -34.415  1.00  0.00     0.151 A
HETATM    6  C9  UNL     1      14.956   8.547 -34.248  1.00  0.00     0.048 C
HETATM    7  C10 UNL     1      15.688   8.654 -35.605  1.00  0.00     0.019 C
HETATM    8  C11 UNL     1      15.915   7.173 -35.464  1.00  0.00     0.020 C
HETATM    9  C12 UNL     1      14.766   6.247 -35.626  1.00  0.00     0.044 C
HETATM   10  C13 UNL     1      14.991   5.311 -34.407  1.00  0.00     0.113 C
HETATM   11  N2  UNL     1      15.352   6.235 -33.341  1.00  0.00    -0.239 NA
HETATM   12 BR1  UNL     1      16.703   5.380 -32.310  1.00  0.00     0.013 Br
HETATM   13  C14 UNL     1      15.883   7.418 -33.945  1.00  0.00     0.032 C
HETATM   14  C15 UNL     1      17.190   7.922 -33.396  1.00  0.00     0.034 C
ENDROOT
BRANCH   1  15
HETATM   15  C4  UNL     1      10.029   7.776 -35.029  1.00  0.00     0.133 C
BRANCH  15  16
HETATM   16  C3  UNL     1       9.548   8.708 -36.124  1.00  0.00     0.020 C
BRANCH  16  17
HETATM   17  C2  UNL     1       8.822   9.873 -35.473  1.00  0.00    -0.003 C
HETATM   18  C1  UNL     1       7.705   9.374 -34.563  1.00  0.00     0.005 C
ENDBRANCH  16  17
ENDBRANCH  15  16
ENDBRANCH   1  15
BRANCH   2  19
HETATM   19  O1  UNL     1      11.733   5.539 -36.277  1.00  0.00    -0.345 OA
ATOM     20  H1  UNL     1      11.789   4.615 -36.063  1.00  0.00     0.219 HD
ENDBRANCH   2  19
BRANCH   5  21
HETATM   21  O2  UNL     1      11.962   9.698 -33.730  1.00  0.00    -0.345 OA
ATOM     22  H2  UNL     1      11.539   9.778 -32.883  1.00  0.00     0.219 HD
ENDBRANCH   5  21
TORSDOF 5
ENDMDL