MODEL 5
REMARK VINA RESULT: -5.590369610      2.493      5.016
REMARK  5 active torsions:
REMARK  status: ('A' for Active; 'I' for Inactive)
REMARK    1  A    between atoms: C2_2  and  N1_4
REMARK    2  A    between atoms: N1_4  and  C4_6
REMARK    3  A    between atoms: C4_6  and  N2_8
REMARK    4  A    between atoms: N2_8  and  C5_10
REMARK    5  A    between atoms: C11_18  and  N4_19
ROOT
HETATM    1  C5  UNL     1      11.067   9.733 -35.085  1.00  0.00     0.062 A
HETATM    2  C6  UNL     1      12.395   9.668 -34.734  1.00  0.00     0.056 A
HETATM    3  C7  UNL     1      13.128   8.498 -34.864  1.00  0.00     0.068 A
HETATM    4  C8  UNL     1      14.514   8.476 -34.484  1.00  0.00     0.101 C
HETATM    5  N3  UNL     1      15.629   8.473 -34.192  1.00  0.00    -0.191 NA
HETATM    6  C9  UNL     1      12.577   7.338 -35.346  1.00  0.00     0.057 A
HETATM    7 CL1  UNL     1      13.522   5.869 -35.502  1.00  0.00    -0.083 Cl
HETATM    8  C10 UNL     1      11.250   7.396 -35.699  1.00  0.00     0.057 A
HETATM    9  C11 UNL     1      10.502   8.542 -35.583  1.00  0.00     0.059 A
ENDROOT
BRANCH   1  10
HETATM   10  N2  UNL     1      10.226  10.840 -34.929  1.00  0.00    -0.331 N
ATOM     11  H2  UNL     1       9.764  11.127 -35.792  1.00  0.00     0.168 HD
BRANCH  10  12
HETATM   12  C4  UNL     1       9.893  11.625 -33.838  1.00  0.00     0.172 C
HETATM   13  S1  UNL     1       8.243  11.598 -33.440  1.00  0.00    -0.041 SA
BRANCH  12  14
HETATM   14  N1  UNL     1      10.709  12.427 -33.022  1.00  0.00    -0.363 N
ATOM     15  H1  UNL     1      10.950  12.123 -32.079  1.00  0.00     0.162 HD
BRANCH  14  16
HETATM   16  C2  UNL     1      11.216  13.722 -33.545  1.00  0.00     0.075 C
HETATM   17  C1  UNL     1      12.183  13.501 -34.683  1.00  0.00     0.032 C
HETATM   18  C3  UNL     1      10.071  14.622 -33.940  1.00  0.00     0.032 C
ENDBRANCH  14  16
ENDBRANCH  12  14
ENDBRANCH  10  12
ENDBRANCH   1  10
BRANCH   9  19
HETATM   19  N4  UNL     1       9.167   8.502 -35.995  1.00  0.00    -0.375 N
HETATM   20  C12 UNL     1       8.806   8.962 -37.314  1.00  0.00     0.149 C
HETATM   21  C13 UNL     1       7.348   9.361 -37.428  1.00  0.00     0.187 C
HETATM   22  O1  UNL     1       6.759   9.682 -36.235  1.00  0.00    -0.388 OA
HETATM   23  C14 UNL     1       6.824   8.724 -35.262  1.00  0.00     0.187 C
HETATM   24  C15 UNL     1       8.123   8.006 -35.141  1.00  0.00     0.149 C
ENDBRANCH   9  19
TORSDOF 5
ENDMDL