MODEL 4
REMARK VINA RESULT: -4.948047071      2.669      3.856
REMARK  7 active torsions:
REMARK  status: ('A' for Active; 'I' for Inactive)
REMARK    1  A    between atoms: C3_3  and  C4_4
REMARK    2  A    between atoms: C5_5  and  C6_6
REMARK    3  A    between atoms: C7_8  and  C8_9
REMARK    4  A    between atoms: C8_9  and  O2_11
REMARK    5  A    between atoms: O2_11  and  C9_12
REMARK    6  A    between atoms: C11_14  and  O3_16
REMARK    7  A    between atoms: C16_21  and  O4_23
ROOT
HETATM    1  C1  UNL     1      12.833  11.403 -36.661  1.00  0.00     0.112 C
HETATM    2  C2  UNL     1      11.559  11.092 -36.013  1.00  0.00    -0.106 C
HETATM    3  C3  UNL     1      10.490  10.809 -35.466  1.00  0.00    -0.068 C
ENDROOT
BRANCH   3   4
HETATM    4  C4  UNL     1       9.241  10.451 -34.857  1.00  0.00     0.037 C
HETATM    5  C5  UNL     1       8.849   9.202 -34.970  1.00  0.00    -0.031 C
HETATM    6  C7  UNL     1       7.595   8.643 -34.415  1.00  0.00     0.155 C
HETATM    7  C11 UNL     1       6.447   9.425 -35.022  1.00  0.00     0.093 C
HETATM    8  C12 UNL     1       6.623   9.728 -36.471  1.00  0.00     0.052 C
HETATM    9  C13 UNL     1       6.291  10.656 -34.225  1.00  0.00    -0.050 C
HETATM   10  C14 UNL     1       4.897  10.923 -33.731  1.00  0.00     0.046 C
HETATM   11  C15 UNL     1       7.204  11.526 -33.901  1.00  0.00     0.021 C
HETATM   12  C16 UNL     1       8.615  11.607 -34.185  1.00  0.00     0.107 C
HETATM   13  C17 UNL     1       8.844  12.811 -35.109  1.00  0.00     0.056 C
BRANCH   5  14
HETATM   14  C6  UNL     1       9.745   8.304 -35.716  1.00  0.00     0.151 C
HETATM   15 CL1  UNL     1      11.016   7.702 -34.588  1.00  0.00    -0.126 Cl
ENDBRANCH   5  14
BRANCH   6  16
HETATM   16  C8  UNL     1       7.425   7.199 -34.633  1.00  0.00     0.270 C
HETATM   17  O1  UNL     1       7.299   6.376 -33.659  1.00  0.00    -0.264 OA
BRANCH  16  18
HETATM   18  O2  UNL     1       7.385   6.609 -35.884  1.00  0.00    -0.321 OA
BRANCH  18  19
HETATM   19  C9  UNL     1       6.432   5.631 -36.261  1.00  0.00     0.174 C
HETATM   20  C10 UNL     1       7.114   4.284 -36.216  1.00  0.00     0.034 C
ENDBRANCH  18  19
ENDBRANCH  16  18
ENDBRANCH   6  16
BRANCH   7  21
HETATM   21  O3  UNL     1       5.308   8.606 -34.841  1.00  0.00    -0.384 OA
ATOM     22  H3  UNL     1       5.077   8.702 -33.923  1.00  0.00     0.211 HD
ENDBRANCH   7  21
BRANCH  12  23
HETATM   23  O4  UNL     1       9.300  11.907 -33.008  1.00  0.00    -0.381 OA
ATOM     24  H4  UNL     1      10.041  11.321 -32.902  1.00  0.00     0.211 HD
ENDBRANCH  12  23
ENDBRANCH   3   4
TORSDOF 7
ENDMDL