MODEL 4
REMARK VINA RESULT: -6.668111946      1.337      1.722
REMARK  5 active torsions:
REMARK  status: ('A' for Active; 'I' for Inactive)
REMARK    1  A    between atoms: C5_7  and  S1_8
REMARK    2  A    between atoms: S1_8  and  N1_11
REMARK    3  A    between atoms: N1_11  and  C6_13
REMARK    4  A    between atoms: C6_13  and  N2_15
REMARK    5  A    between atoms: N2_15  and  C7_17
ROOT
HETATM    1  N1  UNL     1      14.379   7.651 -35.765  1.00  0.00    -0.257 N
ATOM      2  H1  UNL     1      14.555   7.575 -36.767  1.00  0.00     0.181 HD
ENDROOT
BRANCH   1   3
HETATM    3  S1  UNL     1      12.794   7.921 -35.181  1.00  0.00     0.267 S
HETATM    4  O2  UNL     1      12.574   7.196 -33.885  1.00  0.00    -0.200 OA
HETATM    5  O3  UNL     1      11.778   7.383 -36.154  1.00  0.00    -0.200 OA
BRANCH   3   6
HETATM    6  C5  UNL     1      12.452   9.603 -34.945  1.00  0.00     0.112 A
HETATM    7  C2  UNL     1      12.718  10.572 -35.914  1.00  0.00     0.074 A
HETATM    8  C1  UNL     1      13.342  10.280 -37.244  1.00  0.00     0.078 C
HETATM    9  O1  UNL     1      12.328  11.708 -35.431  1.00  0.00    -0.302 OA
HETATM   10  C3  UNL     1      11.824  11.581 -34.224  1.00  0.00     0.146 A
HETATM   11 CL1  UNL     1      11.173  12.842 -33.187  1.00  0.00    -0.057 Cl
HETATM   12  C4  UNL     1      11.880  10.244 -33.865  1.00  0.00     0.078 A
ENDBRANCH   3   6
ENDBRANCH   1   3
BRANCH   1  13
HETATM   13  C6  UNL     1      15.447   7.534 -34.837  1.00  0.00     0.181 C
HETATM   14  S2  UNL     1      16.741   8.547 -34.940  1.00  0.00    -0.040 SA
BRANCH  13  15
HETATM   15  N2  UNL     1      15.378   6.525 -33.854  1.00  0.00    -0.362 N
ATOM     16  H2  UNL     1      14.506   6.410 -33.339  1.00  0.00     0.162 HD
BRANCH  15  17
HETATM   17  C7  UNL     1      16.476   5.649 -33.543  1.00  0.00     0.083 C
HETATM   18  C8  UNL     1      17.138   6.107 -32.287  1.00  0.00     0.025 C
HETATM   19  C9  UNL     1      18.469   5.368 -32.237  1.00  0.00     0.002 C
HETATM   20  C10 UNL     1      18.230   3.901 -32.251  1.00  0.00     0.000 C
HETATM   21  C11 UNL     1      16.838   3.423 -32.434  1.00  0.00     0.002 C
HETATM   22  C12 UNL     1      15.951   4.261 -33.290  1.00  0.00     0.025 C
ENDBRANCH  15  17
ENDBRANCH  13  15
ENDBRANCH   1  13
TORSDOF 5
ENDMDL