MODEL 4
REMARK VINA RESULT: -6.998070291      3.336      4.719
REMARK  3 active torsions:
REMARK  status: ('A' for Active; 'I' for Inactive)
REMARK       I    between atoms: C1_2  and  N1_3
REMARK    1  A    between atoms: C1_2  and  C14_21
REMARK    2  A    between atoms: N1_3  and  N2_5
REMARK       I    between atoms: N2_5  and  C2_7
REMARK    3  A    between atoms: C2_7  and  C3_9
ROOT
HETATM    1  N2  UNL     1      10.997   7.305 -34.789  1.00  0.00    -0.267 N
ATOM      2  H2  UNL     1      10.433   6.456 -34.828  1.00  0.00     0.190 HD
HETATM    3  C2  UNL     1      10.458   8.569 -35.086  1.00  0.00     0.244 C
HETATM    4  O2  UNL     1      11.144   9.635 -35.041  1.00  0.00    -0.271 OA
ENDROOT
BRANCH   3   5
HETATM    5  C3  UNL     1       9.013   8.661 -35.470  1.00  0.00     0.045 C
HETATM    6  C4  UNL     1       8.950   8.758 -36.964  1.00  0.00     0.024 C
HETATM    7  C5  UNL     1       7.583   8.738 -37.552  1.00  0.00    -0.012 C
HETATM    8  C6  UNL     1       6.982  10.097 -37.674  1.00  0.00     0.005 C
HETATM    9  C11 UNL     1       6.656   7.741 -36.929  1.00  0.00     0.030 C
HETATM   10  C7  UNL     1       6.747  10.843 -36.434  1.00  0.00     0.005 C
HETATM   11  C8  UNL     1       7.034  10.159 -35.140  1.00  0.00    -0.012 C
HETATM   12  C9  UNL     1       6.192   8.950 -34.892  1.00  0.00     0.030 C
HETATM   13  C13 UNL     1       8.483   9.923 -34.834  1.00  0.00     0.024 C
HETATM   14  C10 UNL     1       6.781   7.682 -35.418  1.00  0.00     0.039 C
HETATM   15 CL1  UNL     1       5.797   6.315 -34.887  1.00  0.00    -0.119 Cl
HETATM   16  C12 UNL     1       8.219   7.456 -35.053  1.00  0.00     0.044 C
ENDBRANCH   3   5
BRANCH   1  17
HETATM   17  N1  UNL     1      12.369   7.280 -34.433  1.00  0.00    -0.261 N
HETATM   18  C1  UNL     1      13.191   6.373 -35.157  1.00  0.00     0.295 C
HETATM   19  O1  UNL     1      12.651   5.650 -36.057  1.00  0.00    -0.264 OA
ATOM     20  H1  UNL     1      12.746   7.879 -33.698  1.00  0.00     0.190 HD
BRANCH  18  21
HETATM   21  C14 UNL     1      14.606   6.288 -34.866  1.00  0.00     0.169 A
HETATM   22  C15 UNL     1      15.422   7.343 -34.455  1.00  0.00     0.064 A
HETATM   23  C16 UNL     1      16.716   6.865 -34.281  1.00  0.00     0.117 A
HETATM   24  N3  UNL     1      16.611   5.547 -34.595  1.00  0.00    -0.272 N
HETATM   25  O3  UNL     1      15.384   5.251 -34.928  1.00  0.00    -0.233 OA
ATOM     26  H3  UNL     1      17.384   4.881 -34.574  1.00  0.00     0.194 HD
ENDBRANCH  18  21
ENDBRANCH   1  17
TORSDOF 3
ENDMDL