MODEL 2
REMARK VINA RESULT: -8.921044480      5.609     11.365
REMARK  17 active torsions:
REMARK  status: ('A' for Active; 'I' for Inactive)
REMARK    1  A    between atoms: C2_2  and  C3_3
REMARK    2  A    between atoms: C3_3  and  C4_4
REMARK    3  A    between atoms: C4_4  and  C5_5
REMARK    4  A    between atoms: C5_5  and  C6_6
REMARK    5  A    between atoms: C6_6  and  C7_7
REMARK    6  A    between atoms: C7_7  and  C8_8
REMARK    7  A    between atoms: C8_8  and  C9_9
REMARK    8  A    between atoms: C9_9  and  O1_10
REMARK    9  A    between atoms: O1_10  and  C10_11
REMARK   10  A    between atoms: C10_11  and  C11_12
REMARK   11  A    between atoms: C11_12  and  O3_14
REMARK   12  A    between atoms: C16_20  and  C17_21
REMARK   13  A    between atoms: C17_21  and  O5_22
REMARK   14  A    between atoms: O5_22  and  C18_23
REMARK   15  A    between atoms: C18_23  and  C19_24
REMARK   16  A    between atoms: C18_23  and  C21_29
REMARK   17  A    between atoms: C20_25  and  O6_27
ROOT
HETATM    1  C10 UNL     1      10.156 -15.016  15.735  1.00  0.00     0.277 C
HETATM    2  C13 UNL     1      11.169 -15.974  15.321  1.00  0.00     0.056 C
HETATM    3  C14 UNL     1      11.404 -17.115  15.994  1.00  0.00     0.055 C
HETATM    4  C15 UNL     1      10.528 -17.250  17.164  1.00  0.00     0.180 C
HETATM    5  O4  UNL     1      10.109 -18.392  17.485  1.00  0.00    -0.290 OA
HETATM    6  C16 UNL     1      10.207 -15.998  17.881  1.00  0.00     0.223 C
HETATM    7  O7  UNL     1      10.039 -14.884  17.157  1.00  0.00    -0.328 OA
ENDROOT
BRANCH   6   8
HETATM    8  C17 UNL     1       8.889 -16.260  18.652  1.00  0.00     0.215 C
BRANCH   8   9
HETATM    9  O5  UNL     1       9.150 -16.139  19.982  1.00  0.00    -0.347 OA
BRANCH   9  10
HETATM   10  C18 UNL     1       8.596 -15.214  20.902  1.00  0.00     0.082 C
BRANCH  10  11
HETATM   11  C19 UNL     1       7.300 -15.012  20.847  1.00  0.00     0.089 C
HETATM   12  C20 UNL     1       6.168 -15.438  21.558  1.00  0.00     0.152 C
HETATM   13  N1  UNL     1       6.122 -16.262  22.687  1.00  0.00    -0.075 NA
BRANCH  12  14
HETATM   14  O6  UNL     1       4.995 -15.039  21.147  1.00  0.00    -0.348 OA
ATOM     15  H6  UNL     1       4.247 -15.184  21.714  1.00  0.00     0.219 HD
ENDBRANCH  12  14
ENDBRANCH  10  11
BRANCH  10  16
HETATM   16  C21 UNL     1       9.473 -14.569  21.861  1.00  0.00    -0.003 A
HETATM   17  C22 UNL     1       9.472 -14.856  23.214  1.00  0.00     0.016 A
HETATM   18  C23 UNL     1      10.216 -14.195  24.151  1.00  0.00     0.024 A
HETATM   19  C24 UNL     1      11.048 -13.149  23.737  1.00  0.00     0.034 A
HETATM   20 CL1  UNL     1      12.022 -12.267  24.890  1.00  0.00    -0.084 Cl
HETATM   21  C25 UNL     1      11.075 -12.836  22.399  1.00  0.00     0.024 A
HETATM   22  C26 UNL     1      10.313 -13.521  21.481  1.00  0.00     0.016 A
ENDBRANCH  10  16
ENDBRANCH   9  10
ENDBRANCH   8   9
ENDBRANCH   6   8
BRANCH   1  23
HETATM   23  O1  UNL     1       8.913 -15.132  15.304  1.00  0.00    -0.332 OA
BRANCH  23  24
HETATM   24  C9  UNL     1       8.363 -15.929  14.440  1.00  0.00     0.266 C
BRANCH  24  25
HETATM   25  C8  UNL     1       8.432 -15.680  13.026  1.00  0.00    -0.080 C
BRANCH  25  26
HETATM   26  C7  UNL     1       8.536 -15.486  11.819  1.00  0.00    -0.104 C
BRANCH  26  27
HETATM   27  C6  UNL     1       8.637 -15.237  10.390  1.00  0.00     0.094 C
BRANCH  27  28
HETATM   28  C5  UNL     1       9.741 -14.204  10.137  1.00  0.00     0.012 C
BRANCH  28  29
HETATM   29  C4  UNL     1       9.338 -12.920  10.783  1.00  0.00     0.001 C
BRANCH  29  30
HETATM   30  C3  UNL     1       8.170 -12.246  10.101  1.00  0.00    -0.000 C
BRANCH  30  31
HETATM   31  C2  UNL     1       7.032 -12.046  11.047  1.00  0.00    -0.005 C
HETATM   32  C1  UNL     1       5.815 -12.769  10.470  1.00  0.00     0.005 C
ENDBRANCH  30  31
ENDBRANCH  29  30
ENDBRANCH  28  29
ENDBRANCH  27  28
ENDBRANCH  26  27
ENDBRANCH  25  26
ENDBRANCH  24  25
ENDBRANCH  23  24
ENDBRANCH   1  23
BRANCH   1  33
HETATM   33  C11 UNL     1      10.712 -13.640  15.431  1.00  0.00     0.326 C
HETATM   34  O2  UNL     1      10.795 -13.125  14.316  1.00  0.00    -0.259 OA
BRANCH  33  35
HETATM   35  O3  UNL     1      11.176 -12.877  16.523  1.00  0.00    -0.322 OA
HETATM   36  C12 UNL     1      10.426 -11.737  16.939  1.00  0.00     0.213 C
ENDBRANCH  33  35
ENDBRANCH   1  33
TORSDOF 17
ENDMDL