MODEL 3
REMARK VINA RESULT: -9.054067585      3.856      9.904
REMARK  13 active torsions:
REMARK  status: ('A' for Active; 'I' for Inactive)
REMARK    1  A    between atoms: C2_2  and  O2_4
REMARK    2  A    between atoms: O2_4  and  C3_5
REMARK    3  A    between atoms: C3_5  and  C4_6
REMARK    4  A    between atoms: C5_8  and  O4_9
REMARK    5  A    between atoms: O4_9  and  C6_10
REMARK    6  A    between atoms: C6_10  and  C7_11
REMARK    7  A    between atoms: C7_11  and  C8_12
REMARK    8  A    between atoms: C8_12  and  O5_13
REMARK    9  A    between atoms: O5_13  and  C9_14
REMARK   10  A    between atoms: C15_21  and  N1_22
REMARK       I    between atoms: N1_22  and  C16_24
REMARK   11  A    between atoms: C16_24  and  C17_26
REMARK   12  A    between atoms: C24_33  and  O7_34
REMARK   13  A    between atoms: O7_34  and  C25_35
ROOT
HETATM    1  C4  UNL     1       8.918 -15.909  13.535  1.00  0.00     0.182 C
HETATM    2  O3  UNL     1       7.801 -15.497  12.801  1.00  0.00    -0.345 OA
HETATM    3  C5  UNL     1       8.019 -14.527  11.874  1.00  0.00     0.311 C
HETATM    4  C15 UNL     1       9.441 -14.184  11.614  1.00  0.00     0.066 C
HETATM    5  C23 UNL     1      10.354 -14.276  12.557  1.00  0.00     0.038 C
HETATM    6  C24 UNL     1       9.811 -14.746  13.851  1.00  0.00     0.188 C
ENDROOT
BRANCH   3   7
HETATM    7  O4  UNL     1       7.371 -13.360  12.292  1.00  0.00    -0.355 OA
BRANCH   7   8
HETATM    8  C6  UNL     1       7.056 -12.482  11.301  1.00  0.00     0.173 C
BRANCH   8   9
HETATM    9  C7  UNL     1       5.597 -12.140  11.267  1.00  0.00     0.053 C
BRANCH   9  10
HETATM   10  C8  UNL     1       5.054 -12.359   9.871  1.00  0.00     0.178 C
BRANCH  10  11
HETATM   11  O5  UNL     1       5.951 -13.174   9.131  1.00  0.00    -0.351 OA
BRANCH  11  12
HETATM   12  C9  UNL     1       6.223 -12.802   7.807  1.00  0.00     0.068 A
HETATM   13  C10 UNL     1       6.440 -11.465   7.579  1.00  0.00     0.038 A
HETATM   14  C11 UNL     1       6.718 -10.998   6.307  1.00  0.00     0.026 A
HETATM   15  C12 UNL     1       6.764 -11.943   5.290  1.00  0.00     0.034 A
HETATM   16 CL1  UNL     1       7.117 -11.334   3.676  1.00  0.00    -0.084 Cl
HETATM   17  C13 UNL     1       6.547 -13.285   5.518  1.00  0.00     0.026 A
HETATM   18  C14 UNL     1       6.273 -13.721   6.794  1.00  0.00     0.038 A
ENDBRANCH  11  12
ENDBRANCH  10  11
ENDBRANCH   9  10
ENDBRANCH   8   9
ENDBRANCH   7   8
ENDBRANCH   3   7
BRANCH   4  19
HETATM   19  N1  UNL     1       9.739 -13.744  10.273  1.00  0.00    -0.322 N
HETATM   20  C16 UNL     1       9.442 -14.515   9.144  1.00  0.00     0.256 C
HETATM   21  O6  UNL     1       8.888 -15.663   9.242  1.00  0.00    -0.267 OA
ATOM     22  H1  UNL     1      10.182 -12.835  10.142  1.00  0.00     0.169 HD
BRANCH  20  23
HETATM   23  C17 UNL     1       9.755 -14.038   7.807  1.00  0.00     0.032 A
HETATM   24  C18 UNL     1       9.838 -14.956   6.784  1.00  0.00     0.017 A
HETATM   25  C19 UNL     1      10.124 -14.600   5.501  1.00  0.00     0.001 A
HETATM   26  C20 UNL     1      10.339 -13.262   5.217  1.00  0.00     0.000 A
HETATM   27  C21 UNL     1      10.263 -12.335   6.213  1.00  0.00     0.001 A
HETATM   28  C22 UNL     1       9.973 -12.719   7.499  1.00  0.00     0.017 A
ENDBRANCH  20  23
ENDBRANCH   4  19
BRANCH   1  29
HETATM   29  C3  UNL     1       8.387 -16.505  14.805  1.00  0.00     0.213 C
BRANCH  29  30
HETATM   30  O2  UNL     1       9.107 -17.631  15.174  1.00  0.00    -0.319 OA
BRANCH  30  31
HETATM   31  C2  UNL     1       9.245 -18.086  16.452  1.00  0.00     0.254 C
HETATM   32  C1  UNL     1       8.048 -18.364  17.332  1.00  0.00     0.126 C
HETATM   33  O1  UNL     1      10.375 -18.289  16.939  1.00  0.00    -0.266 OA
ENDBRANCH  30  31
ENDBRANCH  29  30
ENDBRANCH   1  29
BRANCH   6  34
HETATM   34  O7  UNL     1      10.690 -15.010  14.844  1.00  0.00    -0.310 OA
BRANCH  34  35
HETATM   35  C25 UNL     1      10.801 -14.270  16.034  1.00  0.00     0.255 C
HETATM   36  C26 UNL     1      10.373 -14.807  17.347  1.00  0.00     0.126 C
HETATM   37  O8  UNL     1      11.290 -13.136  15.857  1.00  0.00    -0.266 OA
ENDBRANCH  34  35
ENDBRANCH   6  34
TORSDOF 13
ENDMDL