MODEL 3
REMARK VINA RESULT: -9.154153352      4.499     10.728
REMARK  11 active torsions:
REMARK  status: ('A' for Active; 'I' for Inactive)
REMARK    1  A    between atoms: O1_2  and  C2_3
REMARK    2  A    between atoms: C7_9  and  C8_10
REMARK    3  A    between atoms: C8_10  and  C9_12
REMARK    4  A    between atoms: C9_12  and  O3_13
REMARK    5  A    between atoms: O3_13  and  C10_14
REMARK    6  A    between atoms: C10_14  and  C11_16
REMARK    7  A    between atoms: C11_16  and  S1_17
REMARK    8  A    between atoms: S1_17  and  C12_19
REMARK    9  A    between atoms: C12_19  and  C13_20
REMARK       I    between atoms: C13_20  and  N1_22
REMARK   10  A    between atoms: N1_22  and  C14_24
REMARK   11  A    between atoms: C17_27  and  N2_28
ROOT
HETATM    1  C11 UNL     1       8.458 -16.079  12.874  1.00  0.00     0.220 C
ENDROOT
BRANCH   1   2
HETATM    2  C10 UNL     1       9.261 -16.646  13.979  1.00  0.00     0.270 C
HETATM    3  O4  UNL     1      10.493 -16.435  14.024  1.00  0.00    -0.264 OA
BRANCH   2   4
HETATM    4  O3  UNL     1       8.661 -17.409  14.963  1.00  0.00    -0.313 OA
BRANCH   4   5
HETATM    5  C9  UNL     1       8.385 -16.817  16.209  1.00  0.00     0.262 C
BRANCH   5   6
HETATM    6  C8  UNL     1       9.541 -16.884  17.127  1.00  0.00     0.186 C
HETATM    7  O2  UNL     1      10.327 -17.850  17.056  1.00  0.00    -0.290 OA
BRANCH   6   8
HETATM    8  C7  UNL     1       9.747 -15.831  18.096  1.00  0.00     0.046 A
HETATM    9  C2  UNL     1      10.150 -14.568  17.660  1.00  0.00     0.082 A
HETATM   10  C3  UNL     1      10.342 -13.571  18.593  1.00  0.00     0.039 A
HETATM   11  C4  UNL     1      10.159 -13.747  19.945  1.00  0.00     0.022 A
HETATM   12  C5  UNL     1       9.759 -15.003  20.375  1.00  0.00     0.012 A
HETATM   13 BR1  UNL     1       9.498 -15.278  22.242  1.00  0.00    -0.051 Br
HETATM   14  C6  UNL     1       9.563 -16.010  19.451  1.00  0.00     0.037 A
BRANCH   9  15
HETATM   15  O1  UNL     1      10.361 -14.285  16.333  1.00  0.00    -0.355 OA
HETATM   16  C1  UNL     1      10.303 -13.021  15.756  1.00  0.00     0.210 C
ENDBRANCH   9  15
ENDBRANCH   6   8
ENDBRANCH   5   6
ENDBRANCH   4   5
ENDBRANCH   2   4
ENDBRANCH   1   2
BRANCH   1  17
HETATM   17  S1  UNL     1       8.808 -14.359  12.597  1.00  0.00     0.033 S
HETATM   18  O5  UNL     1       7.373 -13.616  12.123  1.00  0.00    -0.257 OA
BRANCH  17  19
HETATM   19  C12 UNL     1      10.032 -14.127  11.353  1.00  0.00     0.212 C
BRANCH  19  20
HETATM   20  C13 UNL     1       9.596 -13.168  10.288  1.00  0.00     0.233 C
HETATM   21  O6  UNL     1      10.306 -12.167  10.133  1.00  0.00    -0.272 OA
HETATM   22  N1  UNL     1       8.451 -13.418   9.533  1.00  0.00    -0.326 N
ATOM     23  H1  UNL     1       7.942 -14.274   9.753  1.00  0.00     0.169 HD
BRANCH  22  24
HETATM   24  C14 UNL     1       7.919 -12.620   8.500  1.00  0.00     0.034 A
HETATM   25  C15 UNL     1       6.691 -11.989   8.752  1.00  0.00     0.032 A
HETATM   26  C16 UNL     1       6.054 -11.196   7.829  1.00  0.00     0.038 A
HETATM   27  C17 UNL     1       6.607 -10.982   6.590  1.00  0.00     0.103 A
HETATM   28  C18 UNL     1       7.808 -11.596   6.335  1.00  0.00     0.038 A
HETATM   29  C19 UNL     1       8.461 -12.405   7.271  1.00  0.00     0.032 A
BRANCH  27  30
HETATM   30  N2  UNL     1       5.981 -10.167   5.601  1.00  0.00    -0.116 N
HETATM   31  O7  UNL     1       5.782 -10.595   4.457  1.00  0.00    -0.532 OA
HETATM   32  O8  UNL     1       5.589  -8.898   5.910  1.00  0.00    -0.532 OA
ENDBRANCH  27  30
ENDBRANCH  22  24
ENDBRANCH  19  20
ENDBRANCH  17  19
ENDBRANCH   1  17
TORSDOF 11
ENDMDL