MODEL 2
REMARK VINA RESULT: -9.258214077      0.708      1.435
REMARK  13 active torsions:
REMARK  status: ('A' for Active; 'I' for Inactive)
REMARK    1  A    between atoms: O1_2  and  C2_3
REMARK    2  A    between atoms: C2_3  and  C3_5
REMARK    3  A    between atoms: C3_5  and  N1_6
REMARK    4  A    between atoms: C3_5  and  C16_25
REMARK       I    between atoms: N1_6  and  C4_8
REMARK    5  A    between atoms: C4_8  and  C5_10
REMARK    6  A    between atoms: C5_10  and  O4_11
REMARK    7  A    between atoms: O4_11  and  C6_12
REMARK    8  A    between atoms: C6_12  and  C7_14
REMARK    9  A    between atoms: C7_14  and  C8_15
REMARK   10  A    between atoms: C8_15  and  C9_16
REMARK   11  A    between atoms: C9_16  and  O6_17
REMARK   12  A    between atoms: O6_17  and  C10_18
REMARK   13  A    between atoms: C19_28  and  N2_29
ROOT
HETATM    1  N1  UNL     1       8.346 -13.722   9.955  1.00  0.00    -0.341 N
ATOM      2  H1  UNL     1       8.023 -12.996  10.593  1.00  0.00     0.163 HD
HETATM    3  C4  UNL     1       8.518 -15.046  10.438  1.00  0.00     0.242 C
HETATM    4  O3  UNL     1       8.923 -15.976   9.657  1.00  0.00    -0.271 OA
ENDROOT
BRANCH   3   5
HETATM    5  C5  UNL     1       8.221 -15.318  11.847  1.00  0.00     0.281 C
BRANCH   5   6
HETATM    6  O4  UNL     1       9.303 -15.707  12.629  1.00  0.00    -0.312 OA
BRANCH   6   7
HETATM    7  C6  UNL     1       9.271 -16.481  13.770  1.00  0.00     0.259 C
HETATM    8  O5  UNL     1       8.300 -17.293  13.878  1.00  0.00    -0.265 OA
BRANCH   7   9
HETATM    9  C7  UNL     1      10.315 -16.392  14.845  1.00  0.00     0.113 C
BRANCH   9  10
HETATM   10  C8  UNL     1      11.024 -15.046  14.679  1.00  0.00     0.036 C
BRANCH  10  11
HETATM   11  C9  UNL     1      10.727 -14.239  15.911  1.00  0.00     0.176 C
BRANCH  11  12
HETATM   12  O6  UNL     1      10.027 -14.890  16.881  1.00  0.00    -0.351 OA
BRANCH  12  13
HETATM   13  C10 UNL     1      10.029 -14.769  18.216  1.00  0.00     0.068 A
HETATM   14  C11 UNL     1      10.271 -13.627  18.911  1.00  0.00     0.038 A
HETATM   15  C12 UNL     1      10.253 -13.575  20.302  1.00  0.00     0.022 A
HETATM   16  C13 UNL     1       9.984 -14.694  21.037  1.00  0.00     0.011 A
HETATM   17 BR1  UNL     1       9.962 -14.602  22.945  1.00  0.00    -0.051 Br
HETATM   18  C14 UNL     1       9.736 -15.861  20.364  1.00  0.00     0.022 A
HETATM   19  C15 UNL     1       9.754 -15.916  18.995  1.00  0.00     0.038 A
ENDBRANCH  12  13
ENDBRANCH  11  12
ENDBRANCH  10  11
ENDBRANCH   9  10
ENDBRANCH   7   9
ENDBRANCH   6   7
ENDBRANCH   5   6
ENDBRANCH   3   5
BRANCH   1  20
HETATM   20  C3  UNL     1       8.627 -13.374   8.545  1.00  0.00     0.217 C
BRANCH  20  21
HETATM   21  C2  UNL     1       9.980 -12.835   8.392  1.00  0.00     0.286 C
HETATM   22  O2  UNL     1      10.362 -11.792   9.034  1.00  0.00    -0.263 OA
BRANCH  21  23
HETATM   23  O1  UNL     1      10.885 -13.440   7.551  1.00  0.00    -0.325 OA
HETATM   24  C1  UNL     1      10.488 -14.415   6.633  1.00  0.00     0.213 C
ENDBRANCH  21  23
ENDBRANCH  20  21
BRANCH  20  25
HETATM   25  C16 UNL     1       7.560 -12.453   8.112  1.00  0.00    -0.026 A
HETATM   26  C17 UNL     1       7.656 -11.920   6.824  1.00  0.00     0.012 A
HETATM   27  C18 UNL     1       6.721 -11.060   6.306  1.00  0.00     0.037 A
HETATM   28  C19 UNL     1       5.645 -10.709   7.092  1.00  0.00     0.102 A
HETATM   29  C20 UNL     1       5.505 -11.208   8.369  1.00  0.00     0.037 A
HETATM   30  C21 UNL     1       6.481 -12.084   8.860  1.00  0.00     0.012 A
BRANCH  28  31
HETATM   31  N2  UNL     1       4.660  -9.823   6.598  1.00  0.00    -0.116 N
HETATM   32  O7  UNL     1       3.467 -10.174   6.595  1.00  0.00    -0.532 OA
HETATM   33  O8  UNL     1       5.050  -8.589   6.132  1.00  0.00    -0.532 OA
ENDBRANCH  28  31
ENDBRANCH  20  25
ENDBRANCH   1  20
TORSDOF 13
ENDMDL