MODEL 3
REMARK VINA RESULT: -9.504479905      0.337      1.196
REMARK  12 active torsions:
REMARK  status: ('A' for Active; 'I' for Inactive)
REMARK    1  A    between atoms: O1_2  and  N1_3
REMARK       I    between atoms: N1_3  and  C3_5
REMARK    2  A    between atoms: C3_5  and  C4_7
REMARK    3  A    between atoms: C4_7  and  S1_8
REMARK    4  A    between atoms: C4_7  and  C17_27
REMARK    5  A    between atoms: S1_8  and  C5_9
REMARK    6  A    between atoms: C5_9  and  C6_10
REMARK       I    between atoms: C6_10  and  N2_12
REMARK    7  A    between atoms: N2_12  and  C7_14
REMARK    8  A    between atoms: C7_14  and  C8_15
REMARK    9  A    between atoms: C7_14  and  C15_24
REMARK   10  A    between atoms: C8_15  and  O4_16
REMARK   11  A    between atoms: O4_16  and  C9_17
REMARK   12  A    between atoms: C20_30  and  N3_31
ROOT
HETATM    1  C5  UNL     1       9.974 -14.846  13.790  1.00  0.00     0.177 C
ENDROOT
BRANCH   1   2
HETATM    2  S1  UNL     1       8.461 -14.650  12.881  1.00  0.00    -0.141 SA
BRANCH   2   3
HETATM    3  C4  UNL     1       8.674 -13.646  11.379  1.00  0.00     0.174 C
BRANCH   3   4
HETATM    4  C3  UNL     1       9.162 -14.505  10.276  1.00  0.00     0.261 C
HETATM    5  N1  UNL     1       9.949 -14.042   9.199  1.00  0.00    -0.230 N
HETATM    6  C2  UNL     1      10.387 -12.688   8.986  1.00  0.00     0.189 C
HETATM    7  O2  UNL     1       8.855 -15.733  10.299  1.00  0.00    -0.270 OA
BRANCH   5   8
HETATM    8  O1  UNL     1      10.351 -14.943   8.257  1.00  0.00    -0.281 OA
HETATM    9  C1  UNL     1       9.986 -14.625   6.976  1.00  0.00     0.238 C
ENDBRANCH   5   8
ENDBRANCH   3   4
BRANCH   3  10
HETATM   10  C17 UNL     1       7.349 -13.009  11.039  1.00  0.00    -0.035 A
HETATM   11  C18 UNL     1       6.762 -13.244   9.811  1.00  0.00     0.011 A
HETATM   12  C19 UNL     1       5.549 -12.678   9.486  1.00  0.00     0.037 A
HETATM   13  C20 UNL     1       4.857 -11.857  10.349  1.00  0.00     0.102 A
HETATM   14  C21 UNL     1       5.441 -11.619  11.576  1.00  0.00     0.037 A
HETATM   15  C22 UNL     1       6.670 -12.188  11.916  1.00  0.00     0.011 A
BRANCH  13  16
HETATM   16  N3  UNL     1       3.605 -11.276   9.992  1.00  0.00    -0.116 N
HETATM   17  O6  UNL     1       3.213 -11.249   8.810  1.00  0.00    -0.532 OA
HETATM   18  O7  UNL     1       2.819 -10.742  10.961  1.00  0.00    -0.532 OA
ENDBRANCH  13  16
ENDBRANCH   3  10
ENDBRANCH   2   3
ENDBRANCH   1   2
BRANCH   1  19
HETATM   19  C6  UNL     1      10.059 -15.989  14.711  1.00  0.00     0.227 C
HETATM   20  O3  UNL     1      11.073 -16.732  14.729  1.00  0.00    -0.273 OA
HETATM   21  N2  UNL     1       8.998 -16.278  15.590  1.00  0.00    -0.347 N
ATOM     22  H2  UNL     1       8.173 -15.679  15.603  1.00  0.00     0.163 HD
BRANCH  21  23
HETATM   23  C7  UNL     1       9.069 -17.414  16.470  1.00  0.00     0.178 C
BRANCH  23  24
HETATM   24  C8  UNL     1       9.636 -17.170  17.826  1.00  0.00     0.208 C
BRANCH  24  25
HETATM   25  O4  UNL     1       9.328 -15.869  18.208  1.00  0.00    -0.349 OA
BRANCH  25  26
HETATM   26  C9  UNL     1       9.620 -15.341  19.434  1.00  0.00     0.069 A
HETATM   27  C10 UNL     1       9.470 -16.069  20.583  1.00  0.00     0.038 A
HETATM   28  C11 UNL     1       9.786 -15.489  21.808  1.00  0.00     0.026 A
HETATM   29  C12 UNL     1      10.241 -14.192  21.817  1.00  0.00     0.034 A
HETATM   30 CL1  UNL     1      10.648 -13.426  23.347  1.00  0.00    -0.084 Cl
HETATM   31  C13 UNL     1      10.397 -13.447  20.666  1.00  0.00     0.026 A
HETATM   32  C14 UNL     1      10.085 -14.029  19.468  1.00  0.00     0.038 A
ENDBRANCH  25  26
ENDBRANCH  24  25
ENDBRANCH  23  24
BRANCH  23  33
HETATM   33  C15 UNL     1       7.673 -17.970  16.498  1.00  0.00     0.147 C
HETATM   34  C16 UNL     1       7.326 -19.061  17.417  1.00  0.00     0.093 C
HETATM   35  O5  UNL     1       6.795 -17.525  15.758  1.00  0.00    -0.296 OA
ENDBRANCH  23  33
ENDBRANCH  21  23
ENDBRANCH   1  19
TORSDOF 12
ENDMDL