MODEL 4
REMARK VINA RESULT: -9.332308616      1.706      4.943
REMARK  11 active torsions:
REMARK  status: ('A' for Active; 'I' for Inactive)
REMARK    1  A    between atoms: C2_2  and  C3_3
REMARK    2  A    between atoms: C3_3  and  C4_4
REMARK    3  A    between atoms: C4_4  and  N1_5
REMARK    4  A    between atoms: C6_8  and  C7_9
REMARK    5  A    between atoms: C7_9  and  C8_11
REMARK    6  A    between atoms: C8_11  and  O3_12
REMARK    7  A    between atoms: O3_12  and  C9_13
REMARK    8  A    between atoms: C9_13  and  C10_15
REMARK    9  A    between atoms: C10_15  and  N2_16
REMARK       I    between atoms: N2_16  and  C11_18
REMARK   10  A    between atoms: C11_18  and  C12_20
REMARK   11  A    between atoms: C18_27  and  C19_28
ROOT
HETATM    1  N1  UNL     1      10.179 -13.490   6.317  1.00  0.00    -0.265 N
HETATM    2  C5  UNL     1      10.271 -14.076   7.537  1.00  0.00     0.267 A
HETATM    3  O1  UNL     1      11.200 -14.886   7.791  1.00  0.00    -0.267 OA
HETATM    4  C6  UNL     1       9.364 -13.817   8.542  1.00  0.00     0.108 A
HETATM    5  C18 UNL     1       8.353 -12.947   8.291  1.00  0.00     0.068 A
HETATM    6  N3  UNL     1       8.250 -12.350   7.067  1.00  0.00    -0.302 N
HETATM    7  C25 UNL     1       7.157 -11.430   6.851  1.00  0.00     0.161 C
HETATM    8  C26 UNL     1       9.156 -12.641   6.138  1.00  0.00     0.331 A
HETATM    9  O6  UNL     1       9.066 -12.096   5.009  1.00  0.00    -0.246 OA
ENDROOT
BRANCH   4  10
HETATM   10  C7  UNL     1       9.492 -14.489   9.819  1.00  0.00     0.191 C
HETATM   11  O2  UNL     1       8.813 -15.577   9.903  1.00  0.00    -0.290 OA
BRANCH  10  12
HETATM   12  C8  UNL     1      10.310 -14.024  10.956  1.00  0.00     0.263 C
BRANCH  12  13
HETATM   13  O3  UNL     1       9.643 -14.262  12.157  1.00  0.00    -0.312 OA
BRANCH  13  14
HETATM   14  C9  UNL     1      10.075 -15.108  13.158  1.00  0.00     0.277 C
HETATM   15  O4  UNL     1       9.571 -16.271  13.218  1.00  0.00    -0.263 OA
BRANCH  14  16
HETATM   16  C10 UNL     1      11.110 -14.653  14.136  1.00  0.00     0.233 C
BRANCH  16  17
HETATM   17  N2  UNL     1      10.734 -14.988  15.481  1.00  0.00    -0.348 N
HETATM   18  C11 UNL     1      10.771 -14.106  16.570  1.00  0.00     0.252 C
HETATM   19  O5  UNL     1      11.163 -12.911  16.358  1.00  0.00    -0.268 OA
ATOM     20  H2  UNL     1      10.415 -15.941  15.657  1.00  0.00     0.163 HD
BRANCH  18  21
HETATM   21  C12 UNL     1      10.395 -14.457  17.926  1.00  0.00     0.032 A
HETATM   22  C13 UNL     1      10.426 -13.545  18.950  1.00  0.00     0.018 A
HETATM   23  C14 UNL     1      10.074 -13.857  20.236  1.00  0.00     0.025 A
HETATM   24  C15 UNL     1       9.673 -15.131  20.522  1.00  0.00     0.034 A
HETATM   25 CL1  UNL     1       9.215 -15.574  22.151  1.00  0.00    -0.084 Cl
HETATM   26  C16 UNL     1       9.626 -16.088  19.516  1.00  0.00     0.025 A
HETATM   27  C17 UNL     1       9.994 -15.732  18.214  1.00  0.00     0.018 A
ENDBRANCH  18  21
ENDBRANCH  16  17
ENDBRANCH  14  16
ENDBRANCH  13  14
ENDBRANCH  12  13
ENDBRANCH  10  12
ENDBRANCH   4  10
BRANCH   5  28
HETATM   28  C19 UNL     1       7.371 -12.637   9.306  1.00  0.00    -0.008 A
HETATM   29  C20 UNL     1       6.096 -13.148   9.194  1.00  0.00     0.014 A
HETATM   30  C21 UNL     1       5.090 -12.910  10.100  1.00  0.00     0.001 A
HETATM   31  C22 UNL     1       5.367 -12.109  11.193  1.00  0.00     0.000 A
HETATM   32  C23 UNL     1       6.646 -11.592  11.311  1.00  0.00     0.001 A
HETATM   33  C24 UNL     1       7.643 -11.838  10.399  1.00  0.00     0.014 A
ENDBRANCH   5  28
BRANCH   1  34
HETATM   34  C4  UNL     1      11.155 -13.814   5.338  1.00  0.00     0.137 C
BRANCH  34  35
HETATM   35  C3  UNL     1      10.767 -14.916   4.396  1.00  0.00     0.020 C
BRANCH  35  36
HETATM   36  C2  UNL     1      11.812 -16.021   4.566  1.00  0.00    -0.003 C
HETATM   37  C1  UNL     1      11.319 -17.297   3.910  1.00  0.00     0.005 C
ENDBRANCH  35  36
ENDBRANCH  34  35
ENDBRANCH   1  34
TORSDOF 11
ENDMDL