MODEL 3
REMARK VINA RESULT: -9.075538822      3.530      9.126
REMARK  12 active torsions:
REMARK  status: ('A' for Active; 'I' for Inactive)
REMARK    1  A    between atoms: C2_2  and  C3_3
REMARK    2  A    between atoms: C3_3  and  C4_4
REMARK    3  A    between atoms: C4_4  and  N1_5
REMARK    4  A    between atoms: C6_8  and  N3_9
REMARK    5  A    between atoms: N3_9  and  C7_10
REMARK       I    between atoms: N3_9  and  C14_17
REMARK    6  A    between atoms: C7_10  and  C8_11
REMARK    7  A    between atoms: C14_17  and  C15_19
REMARK    8  A    between atoms: C15_19  and  O2_20
REMARK    9  A    between atoms: O2_20  and  C16_21
REMARK   10  A    between atoms: C16_21  and  C17_23
REMARK   11  A    between atoms: C17_23  and  O4_24
REMARK   12  A    between atoms: O4_24  and  C18_25
ROOT
HETATM    1  N3  UNL     1       7.864 -13.038   8.928  1.00  0.00    -0.282 N
HETATM    2  C14 UNL     1       6.967 -11.923   9.173  1.00  0.00     0.253 C
HETATM    3  O1  UNL     1       7.103 -11.224  10.208  1.00  0.00    -0.270 OA
ENDROOT
BRANCH   1   4
HETATM    4  C6  UNL     1       8.920 -13.250   9.841  1.00  0.00     0.152 A
HETATM    5  C5  UNL     1       8.799 -14.167  10.854  1.00  0.00     0.155 A
HETATM    6  N1  UNL     1       9.793 -14.399  11.747  1.00  0.00    -0.285 N
HETATM    7  N2  UNL     1       7.619 -14.941  10.996  1.00  0.00    -0.080 NA
HETATM    8  C25 UNL     1      10.933 -13.707  11.633  1.00  0.00     0.330 A
HETATM    9  N4  UNL     1      11.063 -12.814  10.651  1.00  0.00    -0.273 N
HETATM   10  O6  UNL     1      11.902 -13.892  12.456  1.00  0.00    -0.246 OA
HETATM   11  C24 UNL     1      10.084 -12.555   9.737  1.00  0.00     0.280 A
ATOM     12  H4  UNL     1      11.940 -12.297  10.581  1.00  0.00     0.173 HD
HETATM   13  O5  UNL     1      10.323 -11.677   8.834  1.00  0.00    -0.265 OA
BRANCH   6  14
HETATM   14  C4  UNL     1       9.631 -15.376  12.803  1.00  0.00     0.135 C
BRANCH  14  15
HETATM   15  C3  UNL     1       9.130 -14.688  14.081  1.00  0.00     0.020 C
BRANCH  15  16
HETATM   16  C2  UNL     1      10.010 -15.079  15.244  1.00  0.00    -0.003 C
HETATM   17  C1  UNL     1      10.746 -13.914  15.810  1.00  0.00     0.005 C
ENDBRANCH  15  16
ENDBRANCH  14  15
ENDBRANCH   6  14
ENDBRANCH   1   4
BRANCH   1  18
HETATM   18  C7  UNL     1       7.747 -13.902   7.793  1.00  0.00     0.112 C
BRANCH  18  19
HETATM   19  C8  UNL     1       8.516 -13.620   6.600  1.00  0.00    -0.020 A
HETATM   20  C9  UNL     1       9.247 -14.665   6.012  1.00  0.00     0.013 A
HETATM   21  C10 UNL     1      10.003 -14.461   4.881  1.00  0.00     0.001 A
HETATM   22  C11 UNL     1      10.067 -13.230   4.291  1.00  0.00     0.000 A
HETATM   23  C12 UNL     1       9.361 -12.189   4.847  1.00  0.00     0.001 A
HETATM   24  C13 UNL     1       8.599 -12.415   5.995  1.00  0.00     0.013 A
ENDBRANCH  18  19
ENDBRANCH   1  18
BRANCH   2  25
HETATM   25  C15 UNL     1       5.881 -11.560   8.235  1.00  0.00     0.282 C
BRANCH  25  26
HETATM   26  O2  UNL     1       6.184 -10.508   7.366  1.00  0.00    -0.310 OA
BRANCH  26  27
HETATM   27  C16 UNL     1       5.327 -10.087   6.387  1.00  0.00     0.283 C
HETATM   28  O3  UNL     1       5.298  -8.903   6.005  1.00  0.00    -0.263 OA
BRANCH  27  29
HETATM   29  C17 UNL     1       4.373 -11.024   5.715  1.00  0.00     0.286 C
BRANCH  29  30
HETATM   30  O4  UNL     1       4.827 -11.466   4.463  1.00  0.00    -0.340 OA
BRANCH  30  31
HETATM   31  C18 UNL     1       5.264 -12.803   4.405  1.00  0.00     0.091 A
HETATM   32  C19 UNL     1       4.846 -13.740   5.329  1.00  0.00     0.038 A
HETATM   33  C20 UNL     1       5.299 -15.021   5.229  1.00  0.00     0.003 A
HETATM   34  C21 UNL     1       6.163 -15.445   4.247  1.00  0.00     0.002 A
HETATM   35  C22 UNL     1       6.570 -14.486   3.329  1.00  0.00     0.026 A
HETATM   36  C23 UNL     1       6.129 -13.180   3.404  1.00  0.00     0.067 A
HETATM   37 CL1  UNL     1       6.677 -11.988   2.210  1.00  0.00    -0.081 Cl
ENDBRANCH  30  31
ENDBRANCH  29  30
ENDBRANCH  27  29
ENDBRANCH  26  27
ENDBRANCH  25  26
ENDBRANCH   2  25
TORSDOF 12
ENDMDL