MODEL 5
REMARK VINA RESULT: -8.464664178      3.451      9.932
REMARK  11 active torsions:
REMARK  status: ('A' for Active; 'I' for Inactive)
REMARK    1  A    between atoms: O1_2  and  C2_3
REMARK    2  A    between atoms: C5_6  and  C6_7
REMARK    3  A    between atoms: C6_7  and  N1_8
REMARK    4  A    between atoms: C8_10  and  C9_11
REMARK    5  A    between atoms: C9_11  and  C10_12
REMARK    6  A    between atoms: C10_12  and  O2_13
REMARK    7  A    between atoms: O2_13  and  C11_14
REMARK    8  A    between atoms: C11_14  and  C12_15
REMARK    9  A    between atoms: C12_15  and  N2_16
REMARK   10  A    between atoms: N4_25  and  C17_26
REMARK   11  A    between atoms: C17_26  and  C18_27
ROOT
HETATM    1  N1  UNL     1       8.819 -12.479   8.700  1.00  0.00    -0.303 N
HETATM    2  C7  UNL     1       9.304 -12.827   9.892  1.00  0.00     0.121 A
HETATM    3  C8  UNL     1       8.259 -13.144  10.780  1.00  0.00     0.034 A
HETATM    4  N4  UNL     1       7.134 -12.969  10.070  1.00  0.00    -0.298 N
HETATM    5  C24 UNL     1       7.485 -12.572   8.825  1.00  0.00     0.329 A
HETATM    6  O5  UNL     1       6.700 -12.316   7.885  1.00  0.00    -0.246 OA
ENDROOT
BRANCH   3   7
HETATM    7  C9  UNL     1       8.471 -13.594  12.184  1.00  0.00     0.085 C
BRANCH   7   8
HETATM    8  C10 UNL     1       9.756 -14.397  12.191  1.00  0.00     0.173 C
BRANCH   8   9
HETATM    9  O2  UNL     1       9.553 -15.734  12.474  1.00  0.00    -0.389 OA
BRANCH   9  10
HETATM   10  C11 UNL     1       8.455 -15.991  13.255  1.00  0.00     0.188 C
BRANCH  10  11
HETATM   11  C12 UNL     1       8.745 -17.263  14.044  1.00  0.00     0.159 C
BRANCH  11  12
HETATM   12  N2  UNL     1       8.903 -17.024  15.444  1.00  0.00    -0.308 N
HETATM   13  C13 UNL     1      10.076 -16.589  15.940  1.00  0.00     0.101 A
HETATM   14  C14 UNL     1      10.249 -16.350  17.301  1.00  0.00     0.092 A
HETATM   15  C15 UNL     1       9.210 -16.556  18.185  1.00  0.00     0.250 A
HETATM   16  O3  UNL     1       9.325 -16.352  19.426  1.00  0.00    -0.268 OA
HETATM   17  N3  UNL     1       8.045 -16.995  17.648  1.00  0.00    -0.275 N
HETATM   18  C16 UNL     1       7.906 -17.217  16.329  1.00  0.00     0.329 A
ATOM     19  H3  UNL     1       7.249 -17.161  18.264  1.00  0.00     0.173 HD
HETATM   20  O4  UNL     1       6.771 -17.627  15.926  1.00  0.00    -0.246 OA
ENDBRANCH  11  12
ENDBRANCH  10  11
ENDBRANCH   9  10
ENDBRANCH   8   9
ENDBRANCH   7   8
ENDBRANCH   3   7
BRANCH   4  21
HETATM   21  C17 UNL     1       5.774 -13.151  10.545  1.00  0.00     0.172 C
BRANCH  21  22
HETATM   22  C18 UNL     1       5.178 -11.968  11.176  1.00  0.00    -0.040 A
HETATM   23  C19 UNL     1       5.783 -11.209  12.143  1.00  0.00     0.010 A
HETATM   24  C20 UNL     1       5.172 -10.094  12.718  1.00  0.00     0.024 A
HETATM   25  C21 UNL     1       3.920  -9.738  12.303  1.00  0.00     0.034 A
HETATM   26 CL1  UNL     1       3.141  -8.331  13.023  1.00  0.00    -0.084 Cl
HETATM   27  C22 UNL     1       3.272 -10.454  11.347  1.00  0.00     0.024 A
HETATM   28  C23 UNL     1       3.897 -11.558  10.791  1.00  0.00     0.010 A
ENDBRANCH  21  22
ENDBRANCH   4  21
BRANCH   1  29
HETATM   29  C6  UNL     1       9.545 -12.081   7.502  1.00  0.00     0.171 C
BRANCH  29  30
HETATM   30  C5  UNL     1      10.026 -13.263   6.742  1.00  0.00    -0.040 A
HETATM   31  C4  UNL     1      11.350 -13.670   6.855  1.00  0.00     0.011 A
HETATM   32  C3  UNL     1      11.825 -14.766   6.159  1.00  0.00     0.037 A
HETATM   33  C2  UNL     1      11.005 -15.488   5.335  1.00  0.00     0.068 A
HETATM   34  C26 UNL     1       9.687 -15.100   5.209  1.00  0.00     0.037 A
HETATM   35  C25 UNL     1       9.221 -14.004   5.908  1.00  0.00     0.011 A
BRANCH  33  36
HETATM   36  O1  UNL     1      11.442 -16.599   4.615  1.00  0.00    -0.356 OA
HETATM   37  C1  UNL     1      12.588 -16.519   3.822  1.00  0.00     0.210 C
ENDBRANCH  33  36
ENDBRANCH  29  30
ENDBRANCH   1  29
TORSDOF 11
ENDMDL