MODEL 4
REMARK VINA RESULT: -9.086133987      3.989      8.464
REMARK  13 active torsions:
REMARK  status: ('A' for Active; 'I' for Inactive)
REMARK    1  A    between atoms: C1_2  and  C2_3
REMARK       I    between atoms: C1_2  and  N7_29
REMARK    2  A    between atoms: C2_3  and  N1_4
REMARK    3  A    between atoms: C3_7  and  C4_8
REMARK    4  A    between atoms: C12_16  and  N3_17
REMARK    5  A    between atoms: N3_17  and  C13_19
REMARK    6  A    between atoms: C13_19  and  C14_20
REMARK    7  A    between atoms: C14_20  and  C15_21
REMARK    8  A    between atoms: C15_21  and  N4_22
REMARK    9  A    between atoms: N7_29  and  C18_31
REMARK   10  A    between atoms: C18_31  and  C19_32
REMARK   11  A    between atoms: C19_32  and  C20_33
REMARK   12  A    between atoms: C20_33  and  O3_35
REMARK   13  A    between atoms: O3_35  and  C21_36
ROOT
HETATM    1  N1  UNL     1       6.400 -13.227  10.285  1.00  0.00    -0.268 N
HETATM    2  N2  UNL     1       5.938 -12.474  11.263  1.00  0.00    -0.296 N
ATOM      3  H2  UNL     1       6.275 -12.645  12.209  1.00  0.00     0.187 HD
HETATM    4  C3  UNL     1       5.042 -11.494  11.069  1.00  0.00     0.058 A
HETATM    5  C10 UNL     1       4.626 -11.313   9.771  1.00  0.00     0.035 A
HETATM    6  C11 UNL     1       5.100 -12.097   8.717  1.00  0.00     0.052 A
HETATM    7  C12 UNL     1       6.010 -13.080   8.978  1.00  0.00     0.118 A
ENDROOT
BRANCH   1   8
HETATM    8  C2  UNL     1       7.362 -14.257  10.591  1.00  0.00     0.253 C
BRANCH   8   9
HETATM    9  C1  UNL     1       8.641 -13.692  11.094  1.00  0.00     0.237 C
HETATM   10  O1  UNL     1       8.892 -12.505  10.820  1.00  0.00    -0.272 OA
HETATM   11  N7  UNL     1       9.527 -14.469  11.847  1.00  0.00    -0.359 N
ATOM     12  H7  UNL     1       9.288 -15.440  12.050  1.00  0.00     0.162 HD
BRANCH  11  13
HETATM   13  C18 UNL     1      10.755 -13.939  12.339  1.00  0.00     0.132 C
BRANCH  13  14
HETATM   14  C19 UNL     1      10.663 -13.260  13.669  1.00  0.00     0.131 C
BRANCH  14  15
HETATM   15  C20 UNL     1      11.025 -14.249  14.742  1.00  0.00     0.265 C
HETATM   16  O2  UNL     1      11.373 -13.889  15.878  1.00  0.00    -0.265 OA
BRANCH  15  17
HETATM   17  O3  UNL     1      10.976 -15.610  14.480  1.00  0.00    -0.279 OA
BRANCH  17  18
HETATM   18  C21 UNL     1      10.096 -16.428  15.184  1.00  0.00     0.079 A
HETATM   19  C22 UNL     1       8.762 -16.425  14.848  1.00  0.00     0.039 A
HETATM   20  C23 UNL     1       7.826 -17.218  15.509  1.00  0.00     0.026 A
HETATM   21  C24 UNL     1       8.238 -18.046  16.547  1.00  0.00     0.034 A
HETATM   22 CL1  UNL     1       7.067 -19.052  17.392  1.00  0.00    -0.084 Cl
HETATM   23  C25 UNL     1       9.575 -18.039  16.873  1.00  0.00     0.026 A
HETATM   24  C26 UNL     1      10.497 -17.252  16.215  1.00  0.00     0.039 A
ENDBRANCH  17  18
ENDBRANCH  15  17
ENDBRANCH  14  15
ENDBRANCH  13  14
ENDBRANCH  11  13
ENDBRANCH   8   9
ENDBRANCH   1   8
BRANCH   7  25
HETATM   25  N3  UNL     1       6.506 -13.853   8.086  1.00  0.00    -0.375 N
ATOM     26  H3  UNL     1       7.004 -14.664   8.453  1.00  0.00     0.161 HD
BRANCH  25  27
HETATM   27  C13 UNL     1       6.476 -13.764   6.682  1.00  0.00     0.123 C
BRANCH  27  28
HETATM   28  C14 UNL     1       7.619 -14.579   6.051  1.00  0.00     0.041 C
BRANCH  28  29
HETATM   29  C15 UNL     1       8.517 -14.977   7.183  1.00  0.00     0.151 C
BRANCH  29  30
HETATM   30  N4  UNL     1       9.915 -14.668   6.927  1.00  0.00    -0.287 N
HETATM   31  C16 UNL     1      10.674 -13.969   7.791  1.00  0.00     0.201 A
HETATM   32  N5  UNL     1      11.891 -13.849   7.286  1.00  0.00    -0.346 N
HETATM   33  C17 UNL     1      11.888 -14.474   6.105  1.00  0.00     0.198 A
ATOM     34  H5  UNL     1      12.683 -13.369   7.716  1.00  0.00     0.167 HD
HETATM   35  N6  UNL     1      10.662 -14.972   5.902  1.00  0.00    -0.293 N
ATOM     36  H6  UNL     1      10.361 -15.501   5.082  1.00  0.00     0.188 HD
ENDBRANCH  29  30
ENDBRANCH  28  29
ENDBRANCH  27  28
ENDBRANCH  25  27
ENDBRANCH   7  25
BRANCH   4  37
HETATM   37  C4  UNL     1       4.589 -10.713  12.206  1.00  0.00    -0.008 A
HETATM   38  C5  UNL     1       5.416  -9.760  12.761  1.00  0.00     0.014 A
HETATM   39  C6  UNL     1       5.008  -9.005  13.843  1.00  0.00     0.001 A
HETATM   40  C7  UNL     1       3.765  -9.160  14.424  1.00  0.00     0.000 A
HETATM   41  C8  UNL     1       2.930 -10.111  13.877  1.00  0.00     0.001 A
HETATM   42  C9  UNL     1       3.349 -10.872  12.781  1.00  0.00     0.014 A
ENDBRANCH   4  37
TORSDOF 13
ENDMDL