MODEL 1
REMARK VINA RESULT: -6.912016612      0.000      0.000
REMARK  4 active torsions:
REMARK  status: ('A' for Active; 'I' for Inactive)
REMARK    1  A    between atoms: C1_2  and  C2_4
REMARK    2  A    between atoms: C4_6  and  C5_7
REMARK    3  A    between atoms: C5_7  and  C6_8
REMARK       I    between atoms: N2_12  and  C8_13
REMARK    4  A    between atoms: C8_13  and  C9_15
ROOT
HETATM    1  C2  UNL     1      31.667   8.861  67.059  1.00  0.00     0.176 C
HETATM    2  C3  UNL     1      32.852   9.685  66.685  1.00  0.00     0.041 C
HETATM    3  C4  UNL     1      32.788  10.839  67.646  1.00  0.00     0.016 C
HETATM    4  C7  UNL     1      31.264  11.035  67.720  1.00  0.00     0.132 C
HETATM    5  N2  UNL     1      30.743   9.690  67.786  1.00  0.00    -0.338 N
HETATM    6  C8  UNL     1      29.579   9.264  68.429  1.00  0.00     0.224 C
HETATM    7  O4  UNL     1      29.331   7.996  68.355  1.00  0.00    -0.273 OA
ENDROOT
BRANCH   1   8
HETATM    8  C1  UNL     1      31.066   8.164  65.901  1.00  0.00     0.254 C
HETATM    9  N1  UNL     1      30.280   8.723  64.894  1.00  0.00    -0.060 NA
HETATM   10  O1  UNL     1      31.307   6.915  65.832  1.00  0.00    -0.275 OA
ENDBRANCH   1   8
BRANCH   6  11
HETATM   11  C9  UNL     1      28.603  10.030  69.172  1.00  0.00     0.081 C
HETATM   12  C10 UNL     1      27.401   9.178  69.499  1.00  0.00     0.017 C
HETATM   13  C11 UNL     1      27.004   9.492  70.916  1.00  0.00     0.038 C
HETATM   14  C12 UNL     1      27.667  10.813  71.186  1.00  0.00     0.171 C
HETATM   15  F1  UNL     1      27.937  10.972  72.546  1.00  0.00    -0.249 F
HETATM   16  C13 UNL     1      29.023  10.615  70.485  1.00  0.00     0.051 C
ENDBRANCH   6  11
BRANCH   3  17
HETATM   17  C5  UNL     1      33.333  12.127  67.061  1.00  0.00     0.119 C
BRANCH  17  18
HETATM   18  C6  UNL     1      34.400  12.725  67.869  1.00  0.00     0.172 C
HETATM   19  O2  UNL     1      34.214  13.850  68.393  1.00  0.00    -0.648 OA
HETATM   20  O3  UNL     1      35.594  12.046  68.041  1.00  0.00    -0.648 OA
ENDBRANCH  17  18
ENDBRANCH   3  17
TORSDOF 4
ENDMDL