MODEL 1
REMARK VINA RESULT: -5.577286882      0.000      0.000
REMARK  5 active torsions:
REMARK  status: ('A' for Active; 'I' for Inactive)
REMARK    1  A    between atoms: C1_2  and  C2_3
REMARK       I    between atoms: C1_2  and  N1_6
REMARK    2  A    between atoms: C2_3  and  C3_4
REMARK    3  A    between atoms: C5_8  and  O2_9
REMARK    4  A    between atoms: C7_12  and  C8_13
REMARK    5  A    between atoms: C8_13  and  C9_14
ROOT
HETATM    1  O1  UNL     1      26.803   7.767  68.041  1.00  0.00    -0.273 OA
HETATM    2  C1  UNL     1      28.032   8.064  67.845  1.00  0.00     0.221 C
HETATM    3  N1  UNL     1      28.628   9.095  68.625  1.00  0.00    -0.345 N
HETATM    4  C4  UNL     1      27.805   9.809  69.640  1.00  0.00     0.158 C
HETATM    5  C5  UNL     1      28.887  10.320  70.603  1.00  0.00     0.138 C
HETATM    6  C6  UNL     1      29.875  10.814  69.570  1.00  0.00     0.058 C
HETATM    7  C7  UNL     1      29.966   9.619  68.657  1.00  0.00     0.090 C
ENDROOT
BRANCH   7   8
HETATM    8  C8  UNL     1      30.539   9.986  67.313  1.00  0.00     0.033 C
BRANCH   8   9
HETATM    9  C9  UNL     1      32.026   9.697  67.244  1.00  0.00     0.039 C
HETATM   10  C10 UNL     1      32.515   9.558  65.795  1.00  0.00     0.238 C
HETATM   11  N2  UNL     1      33.756  10.157  66.245  1.00  0.00    -0.074 N
HETATM   12  C11 UNL     1      32.936  10.887  67.230  1.00  0.00     0.238 C
ATOM     13  H22 UNL     1      34.553   9.588  66.529  1.00  0.00     0.277 HD
ATOM     14  H21 UNL     1      34.378  10.645  65.601  1.00  0.00     0.277 HD
ENDBRANCH   8   9
ENDBRANCH   7   8
BRANCH   2  15
HETATM   15  C2  UNL     1      28.718   7.283  66.798  1.00  0.00     0.114 C
BRANCH  15  16
HETATM   16  C3  UNL     1      29.279   5.999  67.416  1.00  0.00     0.094 C
HETATM   17 BR1  UNL     1      31.188   5.934  67.259  1.00  0.00    -0.096 Br
ENDBRANCH  15  16
ENDBRANCH   2  15
BRANCH   5  18
HETATM   18  O2  UNL     1      28.413  11.311  71.420  1.00  0.00    -0.394 OA
ATOM     19  H2  UNL     1      29.091  11.650  71.992  1.00  0.00     0.210 HD
ENDBRANCH   5  18
TORSDOF 5
ENDMDL