MODEL 4
REMARK VINA RESULT: -6.711975647      0.819      1.390
REMARK  4 active torsions:
REMARK  status: ('A' for Active; 'I' for Inactive)
REMARK    1  A    between atoms: C2_2  and  N1_3
REMARK    2  A    between atoms: C2_2  and  C8_11
REMARK    3  A    between atoms: N1_3  and  C3_5
REMARK       I    between atoms: C8_11  and  N2_13
REMARK    4  A    between atoms: C11_16  and  C12_17
ROOT
HETATM    1  C8  UNL     1      29.456   9.708  68.364  1.00  0.00     0.245 C
HETATM    2  O1  UNL     1      29.460   9.264  67.176  1.00  0.00    -0.271 OA
HETATM    3  N2  UNL     1      28.439   9.338  69.257  1.00  0.00    -0.330 N
HETATM    4  C9  UNL     1      28.034   9.807  70.519  1.00  0.00     0.068 C
HETATM    5  C10 UNL     1      26.800   9.035  70.973  1.00  0.00     0.058 C
HETATM    6  C11 UNL     1      25.772   8.811  69.912  1.00  0.00     0.081 C
HETATM    7  C13 UNL     1      26.405   8.338  68.600  1.00  0.00     0.034 C
HETATM    8  C14 UNL     1      27.825   7.999  68.873  1.00  0.00     0.132 C
ENDROOT
BRANCH   1   9
HETATM    9  C2  UNL     1      30.641  10.598  68.736  1.00  0.00     0.166 C
HETATM   10  C1  UNL     1      30.036  11.634  69.757  1.00  0.00     0.042 C
BRANCH   9  11
HETATM   11  N1  UNL     1      31.003  11.406  67.633  1.00  0.00    -0.398 N
ATOM     12  H1  UNL     1      30.289  12.015  67.232  1.00  0.00     0.154 HD
BRANCH  11  13
HETATM   13  C3  UNL     1      32.232  11.421  67.076  1.00  0.00     0.053 C
HETATM   14  C4  UNL     1      33.038  12.587  67.760  1.00  0.00     0.041 C
HETATM   15  C5  UNL     1      33.119  10.231  67.041  1.00  0.00     0.036 C
HETATM   16  C6  UNL     1      33.186  10.288  65.511  1.00  0.00     0.042 C
HETATM   17  C7  UNL     1      32.442  11.603  65.609  1.00  0.00     0.197 C
HETATM   18  F1  UNL     1      33.312  12.635  65.268  1.00  0.00    -0.247 F
ENDBRANCH  11  13
ENDBRANCH   9  11
ENDBRANCH   1   9
BRANCH   6  19
HETATM   19  C12 UNL     1      24.861   7.696  70.292  1.00  0.00     0.235 C
HETATM   20  N3  UNL     1      25.042   6.897  71.422  1.00  0.00    -0.062 NA
HETATM   21  O2  UNL     1      23.842   7.415  69.577  1.00  0.00    -0.276 OA
ENDBRANCH   6  19
TORSDOF 4
ENDMDL