MODEL 5
REMARK VINA RESULT: -5.910140426      2.082      4.388
REMARK  4 active torsions:
REMARK  status: ('A' for Active; 'I' for Inactive)
REMARK    1  A    between atoms: C1_2  and  C2_4
REMARK    2  A    between atoms: C5_7  and  C6_8
REMARK    3  A    between atoms: C7_10  and  C8_11
REMARK    4  A    between atoms: C8_11  and  C9_13
ROOT
HETATM    1  C2  UNL     1      29.979   9.901  69.116  1.00  0.00     0.171 C
HETATM    2  C3  UNL     1      29.037   9.864  70.265  1.00  0.00     0.035 C
HETATM    3  C4  UNL     1      27.625   9.756  69.783  1.00  0.00     0.014 C
HETATM    4  C5  UNL     1      27.628   8.343  69.130  1.00  0.00     0.049 C
HETATM    5  C7  UNL     1      28.465   8.414  67.948  1.00  0.00     0.057 C
HETATM    6  N2  UNL     1      29.529   9.382  67.888  1.00  0.00    -0.377 N
ATOM      7  H2  UNL     1      29.936   9.677  67.001  1.00  0.00     0.160 HD
ENDROOT
BRANCH   5   8
HETATM    8  C8  UNL     1      28.666   7.241  67.160  1.00  0.00     0.175 C
HETATM    9  O2  UNL     1      27.704   6.678  66.585  1.00  0.00    -0.291 OA
BRANCH   8  10
HETATM   10  C9  UNL     1      29.972   6.610  66.859  1.00  0.00     0.062 A
HETATM   11  C10 UNL     1      30.126   5.360  67.753  1.00  0.00     0.013 A
HETATM   12  C11 UNL     1      31.075   6.494  67.766  1.00  0.00     0.013 A
ENDBRANCH   8  10
ENDBRANCH   5   8
BRANCH   4  13
HETATM   13  C6  UNL     1      26.169   8.028  68.887  1.00  0.00     0.096 C
HETATM   14 BR1  UNL     1      25.359   7.765  70.637  1.00  0.00    -0.096 Br
ENDBRANCH   4  13
BRANCH   1  15
HETATM   15  C1  UNL     1      30.496  11.290  68.985  1.00  0.00     0.253 C
HETATM   16  N1  UNL     1      30.378  12.031  70.190  1.00  0.00    -0.060 NA
HETATM   17  O1  UNL     1      30.973  11.765  67.983  1.00  0.00    -0.275 OA
ENDBRANCH   1  15
TORSDOF 4
ENDMDL