MODEL 2
REMARK VINA RESULT: -5.573568637      3.604      7.306
REMARK  4 active torsions:
REMARK  status: ('A' for Active; 'I' for Inactive)
REMARK    1  A    between atoms: C2_2  and  C3_3
REMARK    2  A    between atoms: C6_6  and  N1_7
REMARK    3  A    between atoms: N2_10  and  C9_11
REMARK    4  A    between atoms: C9_11  and  C10_12
ROOT
HETATM    1  N1  UNL     1      30.390   9.974  67.911  1.00  0.00    -0.403 N
HETATM    2  C7  UNL     1      31.443   9.344  67.218  1.00  0.00     0.147 C
HETATM    3  C8  UNL     1      31.837  10.323  66.099  1.00  0.00     0.292 C
HETATM    4  N2  UNL     1      32.529  11.461  66.686  1.00  0.00     0.100 N
HETATM    5  C11 UNL     1      32.121  11.746  68.020  1.00  0.00     0.292 C
HETATM    6  C12 UNL     1      30.762  11.256  68.368  1.00  0.00     0.147 C
ENDROOT
BRANCH   1   7
HETATM    7  C6  UNL     1      29.572   9.184  68.769  1.00  0.00     0.097 C
HETATM    8  C5  UNL     1      28.611  10.068  69.470  1.00  0.00     0.027 C
HETATM    9  C4  UNL     1      27.461   9.434  70.139  1.00  0.00     0.010 C
HETATM   10  C3  UNL     1      27.016   8.115  69.646  1.00  0.00     0.009 C
HETATM   11  C14 UNL     1      28.017   7.303  68.912  1.00  0.00     0.030 C
HETATM   12  C13 UNL     1      28.897   8.081  67.990  1.00  0.00     0.105 C
HETATM   13 CL1  UNL     1      28.062   8.800  66.625  1.00  0.00    -0.123 Cl
BRANCH  10  14
HETATM   14  C2  UNL     1      25.715   8.230  68.883  1.00  0.00    -0.032 C
HETATM   15  C1  UNL     1      24.536   8.082  69.473  1.00  0.00     0.007 C
ENDBRANCH  10  14
ENDBRANCH   1   7
BRANCH   4  16
HETATM   16  C9  UNL     1      33.928  11.200  66.536  1.00  0.00     0.371 C
BRANCH  16  17
HETATM   17  C10 UNL     1      34.824  12.208  67.103  1.00  0.00     0.259 C
HETATM   18  N3  UNL     1      34.815  13.546  66.627  1.00  0.00    -0.061 NA
HETATM   19  O1  UNL     1      35.636  11.939  68.028  1.00  0.00    -0.275 OA
ENDBRANCH  16  17
ENDBRANCH   4  16
TORSDOF 4
ENDMDL