MODEL 1
REMARK VINA RESULT: -5.225973155      0.000      0.000
REMARK  4 active torsions:
REMARK  status: ('A' for Active; 'I' for Inactive)
REMARK       I    between atoms: C1_2  and  N1_3
REMARK    1  A    between atoms: C1_2  and  C8_15
REMARK    2  A    between atoms: N1_3  and  C2_5
REMARK    3  A    between atoms: C2_5  and  C3_6
REMARK    4  A    between atoms: C2_5  and  C4_9
ROOT
HETATM    1  C2  UNL     1      29.893   8.606  67.291  1.00  0.00     0.207 C
ENDROOT
BRANCH   1   2
HETATM    2  N1  UNL     1      28.564   8.596  67.881  1.00  0.00    -0.345 N
HETATM    3  C1  UNL     1      28.256   9.249  69.093  1.00  0.00     0.222 C
HETATM    4  O1  UNL     1      29.164   9.870  69.700  1.00  0.00    -0.273 OA
ATOM      5  H1  UNL     1      27.820   8.095  67.396  1.00  0.00     0.163 HD
BRANCH   3   6
HETATM    6  C8  UNL     1      26.906   9.232  69.680  1.00  0.00     0.078 A
HETATM    7  C9  UNL     1      26.657   9.815  71.030  1.00  0.00     0.015 A
HETATM    8  C10 UNL     1      26.641   8.318  70.835  1.00  0.00     0.015 A
ENDBRANCH   3   6
ENDBRANCH   1   2
BRANCH   1   9
HETATM    9  C3  UNL     1      30.054   9.642  66.278  1.00  0.00     0.198 C
HETATM   10  O2  UNL     1      29.370   9.747  65.229  1.00  0.00    -0.646 OA
HETATM   11  O3  UNL     1      31.042  10.601  66.471  1.00  0.00    -0.646 OA
ENDBRANCH   1   9
BRANCH   1  12
HETATM   12  C4  UNL     1      30.180   7.217  66.811  1.00  0.00     0.071 C
HETATM   13 BR1  UNL     1      31.427   7.234  65.359  1.00  0.00    -0.080 Br
HETATM   14  C5  UNL     1      30.714   6.306  67.889  1.00  0.00     0.052 C
HETATM   15  C6  UNL     1      30.239   4.959  67.379  1.00  0.00     0.169 C
HETATM   16  O4  UNL     1      29.279   5.182  66.437  1.00  0.00    -0.389 OA
HETATM   17  C7  UNL     1      28.890   6.495  66.471  1.00  0.00     0.191 C
ENDBRANCH   1  12
TORSDOF 4
ENDMDL