MODEL 4
REMARK VINA RESULT: -6.431052534      4.307      6.427
REMARK  4 active torsions:
REMARK  status: ('A' for Active; 'I' for Inactive)
REMARK    1  A    between atoms: N1_2  and  C2_3
REMARK       I    between atoms: N1_2  and  C9_13
REMARK    2  A    between atoms: C2_3  and  C3_4
REMARK       I    between atoms: C3_4  and  N2_6
REMARK    3  A    between atoms: N2_6  and  C4_8
REMARK    4  A    between atoms: C9_13  and  C10_15
ROOT
HETATM    1  C1  UNL     1      32.811  10.575  64.139  1.00  0.00     0.153 C
HETATM    2  N1  UNL     1      32.725  10.088  65.497  1.00  0.00    -0.346 N
HETATM    3  C9  UNL     1      33.500  10.707  66.501  1.00  0.00     0.242 C
HETATM    4  O2  UNL     1      33.367  10.234  67.671  1.00  0.00    -0.271 OA
ENDROOT
BRANCH   2   5
HETATM    5  C2  UNL     1      31.835   8.978  65.747  1.00  0.00     0.228 C
BRANCH   5   6
HETATM    6  C3  UNL     1      30.559   9.407  66.361  1.00  0.00     0.235 C
HETATM    7  O1  UNL     1      29.639   9.924  65.663  1.00  0.00    -0.272 OA
HETATM    8  N2  UNL     1      30.383   9.227  67.753  1.00  0.00    -0.355 N
ATOM      9  H2  UNL     1      31.123   8.810  68.318  1.00  0.00     0.162 HD
BRANCH   8  10
HETATM   10  C4  UNL     1      29.149   9.639  68.361  1.00  0.00     0.084 C
HETATM   11  C5  UNL     1      29.314   9.995  69.831  1.00  0.00     0.025 C
HETATM   12  C6  UNL     1      27.842  10.122  70.241  1.00  0.00     0.002 C
HETATM   13  C7  UNL     1      27.244   8.897  69.604  1.00  0.00     0.002 C
HETATM   14  C8  UNL     1      28.147   8.506  68.457  1.00  0.00     0.025 C
ENDBRANCH   8  10
ENDBRANCH   5   6
ENDBRANCH   2   5
BRANCH   3  15
HETATM   15  C10 UNL     1      34.432  11.828  66.327  1.00  0.00     0.179 C
HETATM   16  C11 UNL     1      35.536  11.884  67.357  1.00  0.00     0.061 C
HETATM   17  C12 UNL     1      35.966  13.354  67.427  1.00  0.00     0.179 C
HETATM   18  O3  UNL     1      34.947  14.024  68.087  1.00  0.00    -0.308 OA
HETATM   19  C13 UNL     1      33.714  13.852  67.477  1.00  0.00     0.445 C
HETATM   20  F1  UNL     1      32.774  13.277  68.308  1.00  0.00    -0.154 F
HETATM   21  F2  UNL     1      33.250  15.117  67.160  1.00  0.00    -0.154 F
HETATM   22  N3  UNL     1      33.773  13.099  66.265  1.00  0.00    -0.324 N
ATOM     23  H3  UNL     1      33.366  13.449  65.398  1.00  0.00     0.162 HD
ENDBRANCH   3  15
TORSDOF 4
ENDMDL