MODEL 5
REMARK VINA RESULT: -6.146174621      2.822      5.110
REMARK  4 active torsions:
REMARK  status: ('A' for Active; 'I' for Inactive)
REMARK    1  A    between atoms: C2_2  and  C3_3
REMARK    2  A    between atoms: C3_3  and  C4_4
REMARK       I    between atoms: N1_6  and  C6_7
REMARK    3  A    between atoms: C6_7  and  C7_9
REMARK    4  A    between atoms: C7_9  and  C8_13
ROOT
HETATM    1  C4  UNL     1      28.758   7.495  67.852  1.00  0.00     0.204 C
HETATM    2  C5  UNL     1      29.760   8.495  67.329  1.00  0.00     0.159 C
HETATM    3  N1  UNL     1      30.560   8.070  66.241  1.00  0.00    -0.343 N
HETATM    4  C6  UNL     1      31.505   8.906  65.634  1.00  0.00     0.269 C
HETATM    5  O1  UNL     1      32.170   8.418  64.651  1.00  0.00    -0.266 OA
HETATM    6  C13 UNL     1      30.459   6.712  65.671  1.00  0.00     0.153 C
HETATM    7  C14 UNL     1      29.128   6.097  66.017  1.00  0.00     0.252 C
HETATM    8  N3  UNL     1      29.016   6.156  67.460  1.00  0.00    -0.068 N
ATOM      9  H31 UNL     1      28.319   5.504  67.822  1.00  0.00     0.277 HD
ATOM     10  H32 UNL     1      29.834   5.766  67.929  1.00  0.00     0.277 HD
ENDROOT
BRANCH   4  11
HETATM   11  C7  UNL     1      31.825  10.265  65.989  1.00  0.00     0.115 C
HETATM   12  N2  UNL     1      31.340  11.236  65.294  1.00  0.00    -0.395 N
ATOM     13  H22 UNL     1      30.753  10.964  64.505  1.00  0.00     0.156 HD
ATOM     14  H21 UNL     1      31.566  12.198  65.546  1.00  0.00     0.156 HD
BRANCH  11  15
HETATM   15  C8  UNL     1      32.668  10.655  67.123  1.00  0.00     0.172 A
HETATM   16  F1  UNL     1      33.071   9.577  67.847  1.00  0.00    -0.231 F
HETATM   17  C9  UNL     1      32.404  11.801  67.773  1.00  0.00     0.047 A
HETATM   18  C10 UNL     1      32.663  12.614  67.954  1.00  0.00     0.134 A
HETATM   19  O2  UNL     1      33.548  13.518  67.777  1.00  0.00    -0.363 OA
HETATM   20  C11 UNL     1      34.450  12.629  66.785  1.00  0.00     0.178 A
HETATM   21  C12 UNL     1      34.084  11.260  66.549  1.00  0.00     0.081 A
ENDBRANCH  11  15
ENDBRANCH   4  11
BRANCH   1  22
HETATM   22  C3  UNL     1      27.362   7.936  67.473  1.00  0.00     0.034 C
BRANCH  22  23
HETATM   23  C2  UNL     1      26.396   7.959  68.612  1.00  0.00    -0.002 C
HETATM   24  C1  UNL     1      26.932   8.852  69.736  1.00  0.00     0.005 C
ENDBRANCH  22  23
ENDBRANCH   1  22
TORSDOF 4
ENDMDL