MODEL 2
REMARK VINA RESULT: -7.234191009      1.878      3.040
REMARK  12 active torsions:
REMARK  status: ('A' for Active; 'I' for Inactive)
REMARK    1  A    between atoms: C5_5  and  N1_6
REMARK    2  A    between atoms: N1_6  and  C6_7
REMARK    3  A    between atoms: N1_6  and  C8_11
REMARK    4  A    between atoms: N1_6  and  C15_21
REMARK    5  A    between atoms: C6_7  and  C7_8
REMARK    6  A    between atoms: C7_8  and  O1_9
REMARK    7  A    between atoms: C9_12  and  C10_13
REMARK    8  A    between atoms: C15_21  and  C16_22
REMARK    9  A    between atoms: C15_21  and  C17_25
REMARK   10  A    between atoms: C16_22  and  O2_23
REMARK   11  A    between atoms: C17_25  and  C18_26
REMARK   12  A    between atoms: C18_26  and  O3_27
ROOT
HETATM    1  N1  UNL     1      16.431   9.141  10.948  1.00  0.00    -0.019 N
ENDROOT
BRANCH   1   2
HETATM    2  C5  UNL     1      16.056   8.239   9.833  1.00  0.00     0.212 C
HETATM    3  C4  UNL     1      16.418   6.924   9.535  1.00  0.00    -0.050 C
HETATM    4  C3  UNL     1      16.192   5.729  10.441  1.00  0.00     0.045 C
HETATM    5  C19 UNL     1      17.551   6.465   8.695  1.00  0.00     0.024 C
HETATM    6  C2  UNL     1      16.734   4.583   9.565  1.00  0.00    -0.039 C
HETATM    7  C1  UNL     1      16.755   3.286  10.237  1.00  0.00     0.015 C
HETATM    8  C20 UNL     1      18.133   5.220   9.408  1.00  0.00     0.019 C
HETATM    9  C24 UNL     1      16.243   4.617   8.165  1.00  0.00     0.018 C
HETATM   10  C21 UNL     1      17.086   5.676   7.441  1.00  0.00    -0.040 C
HETATM   11  C22 UNL     1      16.207   6.524   6.577  1.00  0.00     0.015 C
HETATM   12  C23 UNL     1      18.230   5.108   6.692  1.00  0.00     0.015 C
ENDBRANCH   1   2
BRANCH   1  13
HETATM   13  C6  UNL     1      17.123  10.250  10.431  1.00  0.00     0.275 C
BRANCH  13  14
HETATM   14  C7  UNL     1      17.829  10.189   9.123  1.00  0.00     0.193 C
BRANCH  14  15
HETATM   15  O1  UNL     1      17.017  10.762   8.096  1.00  0.00    -0.399 OA
ATOM     16  H1  UNL     1      16.351  10.144   7.820  1.00  0.00     0.209 HD
ENDBRANCH  14  15
ENDBRANCH  13  14
ENDBRANCH   1  13
BRANCH   1  17
HETATM   17  C8  UNL     1      16.942   8.288  11.940  1.00  0.00     0.205 C
HETATM   18  C9  UNL     1      16.737   7.951  13.300  1.00  0.00     0.003 C
BRANCH  18  19
HETATM   19  C10 UNL     1      15.577   7.191  13.802  1.00  0.00     0.013 C
HETATM   20  C11 UNL     1      14.660   7.639  14.831  1.00  0.00     0.036 C
HETATM   21  C12 UNL     1      13.778   6.432  15.236  1.00  0.00     0.233 C
HETATM   22  N2  UNL     1      14.568   5.670  16.178  1.00  0.00    -0.075 N
HETATM   23  C13 UNL     1      15.948   5.655  15.686  1.00  0.00     0.233 C
ATOM     24  H22 UNL     1      14.491   6.017  17.134  1.00  0.00     0.277 HD
ATOM     25  H21 UNL     1      14.196   4.735  16.345  1.00  0.00     0.277 HD
HETATM   26  C14 UNL     1      15.997   5.753  14.191  1.00  0.00     0.036 C
ENDBRANCH  18  19
ENDBRANCH   1  17
BRANCH   1  27
HETATM   27  C15 UNL     1      15.180   9.738  11.478  1.00  0.00     0.226 C
BRANCH  27  28
HETATM   28  C16 UNL     1      14.176  10.056  10.410  1.00  0.00     0.198 C
BRANCH  28  29
HETATM   29  O2  UNL     1      13.809  11.348  10.237  1.00  0.00    -0.399 OA
ATOM     30  H2  UNL     1      12.968  11.627  10.580  1.00  0.00     0.209 HD
ENDBRANCH  28  29
ENDBRANCH  27  28
BRANCH  27  31
HETATM   31  C17 UNL     1      15.275  10.860  12.390  1.00  0.00     0.062 C
BRANCH  31  32
HETATM   32  C18 UNL     1      14.151  10.987  13.421  1.00  0.00     0.166 C
BRANCH  32  33
HETATM   33  O3  UNL     1      13.600  12.270  13.125  1.00  0.00    -0.401 OA
ATOM     34  H3  UNL     1      14.215  12.861  13.545  1.00  0.00     0.209 HD
ENDBRANCH  32  33
ENDBRANCH  31  32
ENDBRANCH  27  31
ENDBRANCH   1  27
TORSDOF 12
ENDMDL