MODEL 3
REMARK VINA RESULT: -8.754817983      3.162      9.471
REMARK  13 active torsions:
REMARK  status: ('A' for Active; 'I' for Inactive)
REMARK    1  A    between atoms: N1_1  and  C1_5
REMARK    2  A    between atoms: C1_5  and  C2_6
REMARK    3  A    between atoms: C2_6  and  C3_7
REMARK    4  A    between atoms: C3_7  and  C4_8
REMARK    5  A    between atoms: C4_8  and  C5_9
REMARK    6  A    between atoms: C4_8  and  N5_17
REMARK    7  A    between atoms: C5_9  and  C6_10
REMARK    8  A    between atoms: C6_10  and  C7_11
REMARK    9  A    between atoms: C7_11  and  N2_12
REMARK   10  A    between atoms: C12_21  and  N6_22
REMARK       I    between atoms: N6_22  and  C13_24
REMARK   11  A    between atoms: C13_24  and  C14_26
REMARK   12  A    between atoms: C14_26  and  C15_27
REMARK   13  A    between atoms: C15_27  and  C16_28
ROOT
HETATM    1  N5  UNL     1      14.568  10.454  12.279  1.00  0.00    -0.346 N
HETATM    2  C9  UNL     1      13.785  10.727  11.095  1.00  0.00     0.126 C
HETATM    3  C10 UNL     1      13.178  12.107  11.234  1.00  0.00     0.022 C
HETATM    4  C11 UNL     1      12.180  12.162  12.370  1.00  0.00     0.036 C
HETATM    5  C12 UNL     1      12.936  11.904  13.642  1.00  0.00     0.176 C
HETATM    6  C22 UNL     1      13.963  10.830  13.510  1.00  0.00     0.243 C
HETATM    7  O2  UNL     1      14.284  10.243  14.598  1.00  0.00    -0.271 OA
ENDROOT
BRANCH   1   8
HETATM    8  C4  UNL     1      15.857   9.854  12.297  1.00  0.00     0.087 C
BRANCH   8   9
HETATM    9  C3  UNL     1      15.863   8.378  12.019  1.00  0.00     0.027 C
BRANCH   9  10
HETATM   10  C2  UNL     1      16.277   7.615  13.268  1.00  0.00     0.029 C
BRANCH  10  11
HETATM   11  C1  UNL     1      15.196   6.607  13.649  1.00  0.00     0.230 C
BRANCH  11  12
HETATM   12  N1  UNL     1      14.257   7.329  14.496  1.00  0.00    -0.079 N
ATOM     13  H13 UNL     1      14.149   6.922  15.425  1.00  0.00     0.274 HD
ATOM     14  H12 UNL     1      14.600   8.241  14.800  1.00  0.00     0.274 HD
ATOM     15  H11 UNL     1      13.385   7.377  13.969  1.00  0.00     0.274 HD
ENDBRANCH  11  12
ENDBRANCH  10  11
ENDBRANCH   9  10
ENDBRANCH   8   9
BRANCH   8  16
HETATM   16  C5  UNL     1      16.739  10.620  11.335  1.00  0.00     0.027 C
BRANCH  16  17
HETATM   17  C6  UNL     1      17.635   9.727  10.528  1.00  0.00     0.022 C
BRANCH  17  18
HETATM   18  C7  UNL     1      17.464  10.107   9.071  1.00  0.00     0.122 C
BRANCH  18  19
HETATM   19  N2  UNL     1      16.524   9.165   8.492  1.00  0.00    -0.367 N
HETATM   20  C8  UNL     1      16.910   8.065   7.932  1.00  0.00     0.196 C
HETATM   21  N3  UNL     1      18.279   7.732   7.861  1.00  0.00    -0.067 NA
HETATM   22  N4  UNL     1      15.930   7.196   7.389  1.00  0.00    -0.067 NA
ATOM     23  H2  UNL     1      15.527   9.377   8.529  1.00  0.00     0.161 HD
ENDBRANCH  18  19
ENDBRANCH  17  18
ENDBRANCH  16  17
ENDBRANCH   8  16
ENDBRANCH   1   8
BRANCH   5  24
HETATM   24  N6  UNL     1      12.022  11.585  14.717  1.00  0.00    -0.348 N
HETATM   25  C13 UNL     1      12.151  12.274  15.944  1.00  0.00     0.218 C
HETATM   26  O1  UNL     1      13.045  13.139  16.080  1.00  0.00    -0.274 OA
ATOM     27  H6  UNL     1      11.299  10.877  14.591  1.00  0.00     0.163 HD
BRANCH  25  28
HETATM   28  C14 UNL     1      11.210  11.942  17.045  1.00  0.00     0.103 C
BRANCH  28  29
HETATM   29  C15 UNL     1      12.007  11.491  18.225  1.00  0.00     0.014 C
BRANCH  29  30
HETATM   30  C16 UNL     1      11.928   9.997  18.448  1.00  0.00    -0.014 C
HETATM   31  C17 UNL     1      11.317   9.764  19.793  1.00  0.00     0.004 C
HETATM   32  C18 UNL     1      11.573   8.407  20.363  1.00  0.00     0.000 C
HETATM   33  C19 UNL     1      13.093   8.195  20.369  1.00  0.00     0.000 C
HETATM   34  C20 UNL     1      13.483   8.073  18.893  1.00  0.00     0.000 C
HETATM   35  C21 UNL     1      13.300   9.434  18.286  1.00  0.00     0.004 C
ENDBRANCH  29  30
ENDBRANCH  28  29
ENDBRANCH  25  28
ENDBRANCH   5  24
TORSDOF 13
ENDMDL