MODEL 3
REMARK VINA RESULT: -8.448914482      3.209      5.946
REMARK  11 active torsions:
REMARK  status: ('A' for Active; 'I' for Inactive)
REMARK    1  A    between atoms: C2_2  and  C3_3
REMARK    2  A    between atoms: C3_3  and  C4_4
REMARK    3  A    between atoms: C4_4  and  C5_5
REMARK    4  A    between atoms: C5_5  and  C6_6
REMARK    5  A    between atoms: C6_6  and  C7_7
REMARK    6  A    between atoms: C7_7  and  C8_8
REMARK    7  A    between atoms: C8_8  and  C9_9
REMARK    8  A    between atoms: C9_9  and  C10_10
REMARK    9  A    between atoms: C10_10  and  C11_11
REMARK   10  A    between atoms: C10_10  and  C22_32
REMARK   11  A    between atoms: C11_11  and  N1_12
ROOT
HETATM    1  N1  UNL     1      13.720  10.116  14.536  1.00  0.00    -0.327 N
HETATM    2  C12 UNL     1      12.849  10.860  13.603  1.00  0.00     0.359 C
HETATM    3  N2  UNL     1      13.704  11.825  12.941  1.00  0.00    -0.059 N
ATOM      4  H21 UNL     1      14.303  12.317  13.602  1.00  0.00     0.279 HD
ATOM      5  H22 UNL     1      13.175  12.624  12.592  1.00  0.00     0.279 HD
HETATM    6  C13 UNL     1      14.467  11.187  11.896  1.00  0.00     0.240 C
HETATM    7  C14 UNL     1      15.802  10.699  12.358  1.00  0.00     0.029 C
HETATM    8  C15 UNL     1      16.766  10.656  11.223  1.00  0.00     0.053 C
HETATM    9  C16 UNL     1      16.477   9.585  10.251  1.00  0.00     0.036 A
HETATM   10  C17 UNL     1      15.855   8.446  10.649  1.00  0.00     0.038 A
HETATM   11  N3  UNL     1      15.716   7.649   9.580  1.00  0.00    -0.301 N
ATOM     12  H3  UNL     1      15.283   6.725   9.579  1.00  0.00     0.186 HD
HETATM   13  N4  UNL     1      16.236   8.261   8.527  1.00  0.00    -0.266 N
ATOM     14  H4  UNL     1      16.270   7.885   7.579  1.00  0.00     0.190 HD
HETATM   15  C18 UNL     1      16.715   9.462   8.913  1.00  0.00     0.268 A
HETATM   16  O1  UNL     1      17.275  10.300   8.161  1.00  0.00    -0.266 OA
HETATM   17  C19 UNL     1      15.448   8.229  12.028  1.00  0.00     0.074 C
HETATM   18  C20 UNL     1      15.744   9.328  12.984  1.00  0.00     0.089 C
HETATM   19  C21 UNL     1      14.770   9.274  14.103  1.00  0.00     0.226 C
HETATM   20  O2  UNL     1      14.901   8.234  14.848  1.00  0.00    -0.273 OA
ENDROOT
BRANCH   1  21
HETATM   21  C11 UNL     1      13.461  10.310  15.939  1.00  0.00     0.141 C
BRANCH  21  22
HETATM   22  C10 UNL     1      12.680  11.464  16.365  1.00  0.00     0.093 C
BRANCH  22  23
HETATM   23  C9  UNL     1      11.778  11.046  17.527  1.00  0.00     0.015 C
BRANCH  23  24
HETATM   24  C8  UNL     1      12.316   9.905  18.321  1.00  0.00     0.001 C
BRANCH  24  25
HETATM   25  C7  UNL     1      12.044  10.181  19.786  1.00  0.00     0.000 C
BRANCH  25  26
HETATM   26  C6  UNL     1      10.987   9.236  20.355  1.00  0.00     0.000 C
BRANCH  26  27
HETATM   27  C5  UNL     1      11.593   8.223  21.280  1.00  0.00     0.000 C
BRANCH  27  28
HETATM   28  C4  UNL     1      11.740   6.913  20.559  1.00  0.00     0.000 C
BRANCH  28  29
HETATM   29  C3  UNL     1      13.146   6.638  20.153  1.00  0.00    -0.000 C
BRANCH  29  30
HETATM   30  C2  UNL     1      14.140   7.296  21.111  1.00  0.00    -0.005 C
HETATM   31  C1  UNL     1      15.146   8.128  20.352  1.00  0.00     0.005 C
ENDBRANCH  29  30
ENDBRANCH  28  29
ENDBRANCH  27  28
ENDBRANCH  26  27
ENDBRANCH  25  26
ENDBRANCH  24  25
ENDBRANCH  23  24
ENDBRANCH  22  23
BRANCH  22  32
HETATM   32  C22 UNL     1      13.348  12.731  16.653  1.00  0.00     0.236 C
HETATM   33  N5  UNL     1      13.589  13.653  15.560  1.00  0.00    -0.062 NA
HETATM   34  O3  UNL     1      13.708  13.034  17.808  1.00  0.00    -0.276 OA
ENDBRANCH  22  32
ENDBRANCH  21  22
ENDBRANCH   1  21
TORSDOF 11
ENDMDL