MODEL 4
REMARK VINA RESULT: -8.322826093      2.300      3.483
REMARK  12 active torsions:
REMARK  status: ('A' for Active; 'I' for Inactive)
REMARK    1  A    between atoms: C2_2  and  N1_5
REMARK       I    between atoms: N1_5  and  C5_7
REMARK       I    between atoms: C5_7  and  N3_11
REMARK    2  A    between atoms: N3_11  and  C6_13
REMARK    3  A    between atoms: C6_13  and  C7_14
REMARK    4  A    between atoms: C7_14  and  C8_15
REMARK    5  A    between atoms: C8_15  and  N4_16
REMARK       I    between atoms: N4_16  and  C9_18
REMARK    6  A    between atoms: C9_18  and  C10_20
REMARK    7  A    between atoms: C10_20  and  C11_21
REMARK    8  A    between atoms: C11_21  and  C12_22
REMARK    9  A    between atoms: C12_22  and  C13_23
REMARK   10  A    between atoms: C13_23  and  C14_24
REMARK   11  A    between atoms: C14_24  and  N5_25
REMARK   12  A    between atoms: C19_30  and  N6_31
ROOT
HETATM    1  N4  UNL     1      12.107  12.148  14.209  1.00  0.00    -0.361 N
ATOM      2  H4  UNL     1      11.848  13.084  14.521  1.00  0.00     0.162 HD
HETATM    3  C9  UNL     1      12.641  11.201  15.150  1.00  0.00     0.217 C
HETATM    4  O1  UNL     1      12.970  10.057  14.808  1.00  0.00    -0.274 OA
ENDROOT
BRANCH   1   5
HETATM    5  C8  UNL     1      11.939  11.778  12.830  1.00  0.00     0.124 C
BRANCH   5   6
HETATM    6  C7  UNL     1      12.910  12.492  11.903  1.00  0.00     0.040 C
BRANCH   6   7
HETATM    7  C6  UNL     1      13.668  11.465  11.101  1.00  0.00     0.139 C
BRANCH   7   8
HETATM    8  N3  UNL     1      13.914  10.297  11.913  1.00  0.00    -0.227 N
HETATM    9  C5  UNL     1      15.208  10.038  12.478  1.00  0.00     0.668 C
HETATM   10  N1  UNL     1      15.429   8.837  13.184  1.00  0.00    -0.219 N
HETATM   11  N2  UNL     1      16.128  10.917  12.318  1.00  0.00    -0.235 N
ATOM     12  H1  UNL     1      15.034   8.723  14.117  1.00  0.00     0.178 HD
ATOM     13  H22 UNL     1      17.047  10.733  12.719  1.00  0.00     0.174 HD
ATOM     14  H21 UNL     1      15.967  11.786  11.807  1.00  0.00     0.174 HD
ATOM     15  H3  UNL     1      13.153   9.641  12.088  1.00  0.00     0.177 HD
BRANCH  10  16
HETATM   16  C2  UNL     1      16.203   7.771  12.609  1.00  0.00     0.036 C
HETATM   17  C1  UNL     1      17.630   7.831  13.119  1.00  0.00     0.038 C
HETATM   18  C3  UNL     1      15.606   6.461  13.100  1.00  0.00     0.038 C
HETATM   19  C4  UNL     1      16.174   7.795  11.115  1.00  0.00     0.038 C
ENDBRANCH  10  16
ENDBRANCH   7   8
ENDBRANCH   6   7
ENDBRANCH   5   6
ENDBRANCH   1   5
BRANCH   3  20
HETATM   20  C10 UNL     1      12.784  11.640  16.546  1.00  0.00     0.103 C
BRANCH  20  21
HETATM   21  C11 UNL     1      12.492  10.558  17.535  1.00  0.00     0.009 C
BRANCH  21  22
HETATM   22  C12 UNL     1      11.304  10.863  18.383  1.00  0.00     0.002 C
BRANCH  22  23
HETATM   23  C13 UNL     1      11.255   9.959  19.616  1.00  0.00     0.028 C
BRANCH  23  24
HETATM   24  C14 UNL     1      12.563   9.385  20.004  1.00  0.00     0.237 C
BRANCH  24  25
HETATM   25  N5  UNL     1      12.620   7.998  20.334  1.00  0.00    -0.069 N
HETATM   26  C15 UNL     1      11.335   7.361  20.524  1.00  0.00     0.272 C
HETATM   27  C16 UNL     1      13.370   7.835  21.568  1.00  0.00     0.237 C
HETATM   28  C17 UNL     1      14.619   7.011  21.342  1.00  0.00     0.030 C
HETATM   29  C18 UNL     1      15.471   7.748  20.338  1.00  0.00     0.035 C
HETATM   30  C19 UNL     1      14.693   7.759  19.037  1.00  0.00     0.182 C
HETATM   31  C20 UNL     1      13.273   7.297  19.232  1.00  0.00     0.268 C
BRANCH  30  32
HETATM   32  N6  UNL     1      15.341   6.794  18.161  1.00  0.00    -0.149 N
HETATM   33  O2  UNL     1      16.503   6.417  18.279  1.00  0.00    -0.536 OA
HETATM   34  O3  UNL     1      14.584   6.282  17.134  1.00  0.00    -0.536 OA
ENDBRANCH  30  32
ENDBRANCH  24  25
ENDBRANCH  23  24
ENDBRANCH  22  23
ENDBRANCH  21  22
ENDBRANCH  20  21
ENDBRANCH   3  20
TORSDOF 12
ENDMDL