MODEL 1
REMARK VINA RESULT: -7.397829348      0.000      0.000
REMARK  14 active torsions:
REMARK  status: ('A' for Active; 'I' for Inactive)
REMARK    1  A    between atoms: C2_2  and  N1_3
REMARK    2  A    between atoms: N1_3  and  C3_5
REMARK    3  A    between atoms: C3_5  and  C4_7
REMARK    4  A    between atoms: N2_11  and  C8_12
REMARK    5  A    between atoms: C8_12  and  C9_13
REMARK    6  A    between atoms: C9_13  and  C10_14
REMARK    7  A    between atoms: C10_14  and  C11_15
REMARK    8  A    between atoms: C11_15  and  C12_16
REMARK    9  A    between atoms: C12_16  and  N3_17
REMARK   10  A    between atoms: N3_17  and  C13_19
REMARK   11  A    between atoms: C13_19  and  N4_21
REMARK   12  A    between atoms: N4_21  and  C14_23
REMARK   13  A    between atoms: C14_23  and  C15_24
REMARK   14  A    between atoms: C15_24  and  C16_25
ROOT
HETATM    1  C11 UNL     1      12.145  11.898  12.857  1.00  0.00     0.020 C
ENDROOT
BRANCH   1   2
HETATM    2  C10 UNL     1      12.879  12.327  14.086  1.00  0.00     0.003 C
BRANCH   2   3
HETATM    3  C9  UNL     1      12.151  12.021  15.374  1.00  0.00     0.030 C
BRANCH   3   4
HETATM    4  C8  UNL     1      13.012  11.020  16.118  1.00  0.00     0.272 C
BRANCH   4   5
HETATM    5  N2  UNL     1      12.512  10.659  17.402  1.00  0.00     0.089 N
HETATM    6  C7  UNL     1      11.289  11.321  17.705  1.00  0.00     0.272 C
HETATM    7  C6  UNL     1      10.747  10.916  19.058  1.00  0.00     0.031 C
HETATM    8  C5  UNL     1      11.814  11.023  20.130  1.00  0.00     0.015 C
HETATM    9  C4  UNL     1      13.074  10.273  19.698  1.00  0.00     0.075 C
HETATM   10  C19 UNL     1      13.531  10.888  18.398  1.00  0.00     0.284 C
BRANCH   9  11
HETATM   11  C3  UNL     1      12.815   8.843  19.503  1.00  0.00     0.079 C
HETATM   12  S1  UNL     1      13.891   7.919  18.681  1.00  0.00    -0.065 SA
BRANCH  11  13
HETATM   13  N1  UNL     1      11.630   8.223  20.024  1.00  0.00    -0.384 N
ATOM     14  H1  UNL     1      10.719   8.490  19.649  1.00  0.00     0.160 HD
BRANCH  13  15
HETATM   15  C2  UNL     1      11.704   7.237  21.058  1.00  0.00     0.116 C
HETATM   16  C1  UNL     1      11.322   7.820  22.397  1.00  0.00     0.026 C
ENDBRANCH  13  15
ENDBRANCH  11  13
ENDBRANCH   9  11
ENDBRANCH   4   5
ENDBRANCH   3   4
ENDBRANCH   2   3
ENDBRANCH   1   2
BRANCH   1  17
HETATM   17  C12 UNL     1      13.079  11.922  11.685  1.00  0.00     0.122 C
BRANCH  17  18
HETATM   18  N3  UNL     1      13.683  10.638  11.399  1.00  0.00    -0.367 N
ATOM     19  H3  UNL     1      13.145   9.901  10.943  1.00  0.00     0.161 HD
BRANCH  18  20
HETATM   20  C13 UNL     1      15.026  10.427  11.764  1.00  0.00     0.167 C
HETATM   21  S2  UNL     1      15.350   9.430  13.026  1.00  0.00    -0.041 SA
BRANCH  20  22
HETATM   22  N4  UNL     1      16.053  11.073  11.037  1.00  0.00    -0.367 N
ATOM     23  H4  UNL     1      15.999  12.074  10.847  1.00  0.00     0.161 HD
BRANCH  22  24
HETATM   24  C14 UNL     1      17.178  10.299  10.569  1.00  0.00     0.128 C
BRANCH  24  25
HETATM   25  C15 UNL     1      17.075  10.254   9.061  1.00  0.00     0.078 C
BRANCH  25  26
HETATM   26  C16 UNL     1      16.620   8.951   8.556  1.00  0.00     0.027 A
HETATM   27  C17 UNL     1      15.757   8.017   9.060  1.00  0.00     0.114 A
HETATM   28  N5  UNL     1      15.685   6.998   8.207  1.00  0.00    -0.360 N
HETATM   29  C18 UNL     1      16.488   7.259   7.161  1.00  0.00     0.180 A
ATOM     30  H5  UNL     1      15.116   6.160   8.327  1.00  0.00     0.166 HD
HETATM   31  N6  UNL     1      17.054   8.447   7.377  1.00  0.00    -0.355 N
ATOM     32  H6  UNL     1      17.714   8.906   6.750  1.00  0.00     0.166 HD
ENDBRANCH  25  26
ENDBRANCH  24  25
ENDBRANCH  22  24
ENDBRANCH  20  22
ENDBRANCH  18  20
ENDBRANCH  17  18
ENDBRANCH   1  17
TORSDOF 14
ENDMDL