MODEL 2
REMARK VINA RESULT: -8.814032691      1.448      2.057
REMARK  12 active torsions:
REMARK  status: ('A' for Active; 'I' for Inactive)
REMARK       I    between atoms: C2_2  and  N1_4
REMARK    1  A    between atoms: N1_4  and  C3_6
REMARK    2  A    between atoms: C3_6  and  C4_7
REMARK    3  A    between atoms: C6_10  and  C7_11
REMARK    4  A    between atoms: C7_11  and  N2_12
REMARK       I    between atoms: N2_12  and  C8_13
REMARK    5  A    between atoms: C8_13  and  C9_15
REMARK    6  A    between atoms: C9_15  and  C10_16
REMARK    7  A    between atoms: C10_16  and  C11_17
REMARK    8  A    between atoms: C11_17  and  C12_18
REMARK    9  A    between atoms: C12_18  and  C13_19
REMARK   10  A    between atoms: C13_19  and  C14_20
REMARK   11  A    between atoms: C14_20  and  C15_21
REMARK   12  A    between atoms: C15_21  and  N4_25
ROOT
HETATM    1  N2  UNL     1      12.790  12.676  14.724  1.00  0.00    -0.385 NA
HETATM    2  C8  UNL     1      12.665  12.613  16.068  1.00  0.00     0.290 C
HETATM    3  O3  UNL     1      13.463  13.028  16.964  1.00  0.00    -0.257 OA
ENDROOT
BRANCH   2   4
HETATM    4  C9  UNL     1      11.414  11.952  16.702  1.00  0.00     0.119 C
BRANCH   4   5
HETATM    5  C10 UNL     1      11.859  11.196  17.902  1.00  0.00     0.010 C
BRANCH   5   6
HETATM    6  C11 UNL     1      10.936  10.839  18.965  1.00  0.00     0.001 C
BRANCH   6   7
HETATM    7  C12 UNL     1      11.101  11.190  20.378  1.00  0.00     0.000 C
BRANCH   7   8
HETATM    8  C13 UNL     1      10.703  10.205  21.419  1.00  0.00     0.007 C
BRANCH   8   9
HETATM    9  C14 UNL     1      10.844   8.783  20.843  1.00  0.00     0.076 C
BRANCH   9  10
HETATM   10  C15 UNL     1      11.982   8.082  21.456  1.00  0.00     0.073 C
HETATM   11  N3  UNL     1      11.942   7.649  22.660  1.00  0.00    -0.389 N
ATOM     12  H32 UNL     1      11.087   7.783  23.200  1.00  0.00     0.157 HD
ATOM     13  H31 UNL     1      12.731   7.163  23.085  1.00  0.00     0.157 HD
BRANCH  10  14
HETATM   14  N4  UNL     1      13.173   7.896  20.703  1.00  0.00    -0.362 N
HETATM   15  C16 UNL     1      13.918   8.804  19.853  1.00  0.00     0.086 C
HETATM   16  C17 UNL     1      13.949   7.981  18.578  1.00  0.00     0.027 C
HETATM   17  C21 UNL     1      15.286   8.702  20.462  1.00  0.00     0.027 C
HETATM   18  C18 UNL     1      13.944   6.538  19.058  1.00  0.00     0.027 C
HETATM   19  C19 UNL     1      13.991   6.688  20.566  1.00  0.00     0.086 C
HETATM   20  C20 UNL     1      15.352   7.239  20.900  1.00  0.00     0.027 C
ENDBRANCH  10  14
ENDBRANCH   9  10
ENDBRANCH   8   9
ENDBRANCH   7   8
ENDBRANCH   6   7
ENDBRANCH   5   6
ENDBRANCH   4   5
ENDBRANCH   2   4
BRANCH   1  21
HETATM   21  C7  UNL     1      12.919  12.742  13.338  1.00  0.00     0.192 C
BRANCH  21  22
HETATM   22  C6  UNL     1      13.309  11.429  12.696  1.00  0.00     0.199 C
HETATM   23  O2  UNL     1      13.521  11.589  11.357  1.00  0.00    -0.376 OA
HETATM   24  C5  UNL     1      13.947  10.487  10.683  1.00  0.00     0.203 C
HETATM   25  C4  UNL     1      15.018   9.720  11.370  1.00  0.00     0.227 C
HETATM   26  N5  UNL     1      14.829   9.549  12.754  1.00  0.00    -0.065 N
HETATM   27  C22 UNL     1      14.446  10.788  13.406  1.00  0.00     0.271 C
ATOM     28  H52 UNL     1      14.157   8.806  12.947  1.00  0.00     0.277 HD
ATOM     29  H51 UNL     1      15.652   9.139  13.193  1.00  0.00     0.277 HD
BRANCH  25  30
HETATM   30  C3  UNL     1      16.418  10.182  10.988  1.00  0.00     0.157 C
BRANCH  30  31
HETATM   31  N1  UNL     1      16.505  10.175   9.553  1.00  0.00    -0.359 N
HETATM   32  C2  UNL     1      17.517   9.428   8.913  1.00  0.00     0.213 C
HETATM   33  C1  UNL     1      17.595   9.414   7.439  1.00  0.00     0.117 C
HETATM   34  O1  UNL     1      18.341   8.780   9.572  1.00  0.00    -0.274 OA
ATOM     35  H1  UNL     1      15.835  10.708   8.998  1.00  0.00     0.162 HD
ENDBRANCH  30  31
ENDBRANCH  25  30
ENDBRANCH  21  22
ENDBRANCH   1  21
TORSDOF 12
ENDMDL