MODEL 1
REMARK VINA RESULT: -7.700780968      0.000      0.000
REMARK  14 active torsions:
REMARK  status: ('A' for Active; 'I' for Inactive)
REMARK    1  A    between atoms: C2_2  and  C4_4
REMARK    2  A    between atoms: C5_5  and  C6_6
REMARK    3  A    between atoms: C6_6  and  C7_7
REMARK    4  A    between atoms: C7_7  and  C8_8
REMARK    5  A    between atoms: C8_8  and  C9_9
REMARK    6  A    between atoms: C11_14  and  C12_15
REMARK    7  A    between atoms: C12_15  and  C13_16
REMARK    8  A    between atoms: C13_16  and  C14_17
REMARK    9  A    between atoms: C14_17  and  C15_18
REMARK   10  A    between atoms: C15_18  and  N2_19
REMARK   11  A    between atoms: C16_25  and  O2_26
REMARK   12  A    between atoms: C17_28  and  C18_29
REMARK   13  A    between atoms: N4_31  and  C20_32
REMARK   14  A    between atoms: C20_32  and  C21_33
ROOT
HETATM    1  C9  UNL     1      15.446   9.245  12.142  1.00  0.00     0.176 C
HETATM    2  N1  UNL     1      15.846   8.785  13.490  1.00  0.00    -0.346 N
ATOM      3  H1  UNL     1      15.689   9.378  14.305  1.00  0.00     0.163 HD
HETATM    4  C10 UNL     1      16.456   7.504  13.637  1.00  0.00     0.241 C
HETATM    5  O1  UNL     1      17.436   7.439  14.420  1.00  0.00    -0.271 OA
HETATM    6  C11 UNL     1      15.980   6.304  12.918  1.00  0.00     0.175 C
HETATM    7  N3  UNL     1      16.926   5.828  11.920  1.00  0.00    -0.359 N
ATOM      8  H3  UNL     1      17.085   4.820  11.914  1.00  0.00     0.162 HD
HETATM    9  C16 UNL     1      17.640   6.549  10.977  1.00  0.00     0.135 C
HETATM   10  C17 UNL     1      17.133   7.465   9.921  1.00  0.00     0.161 C
HETATM   11  N4  UNL     1      17.207   8.865  10.259  1.00  0.00    -0.338 N
HETATM   12  C23 UNL     1      16.645   9.543  11.333  1.00  0.00     0.243 C
HETATM   13  O3  UNL     1      17.249  10.618  11.713  1.00  0.00    -0.271 OA
ENDROOT
BRANCH   1  14
HETATM   14  C8  UNL     1      14.606  10.479  12.398  1.00  0.00     0.035 C
BRANCH  14  15
HETATM   15  C7  UNL     1      13.693  10.833  11.279  1.00  0.00     0.014 C
BRANCH  15  16
HETATM   16  C6  UNL     1      12.748  11.930  11.791  1.00  0.00     0.094 C
BRANCH  16  17
HETATM   17  C5  UNL     1      12.642  11.714  13.237  1.00  0.00    -0.101 C
HETATM   18  C4  UNL     1      12.576  11.526  14.436  1.00  0.00    -0.073 C
BRANCH  18  19
HETATM   19  C2  UNL     1      12.520  11.287  15.859  1.00  0.00    -0.018 C
HETATM   20  C1  UNL     1      13.251  10.337  16.393  1.00  0.00     0.028 C
HETATM   21  C3  UNL     1      11.637  12.106  16.728  1.00  0.00     0.057 C
ENDBRANCH  18  19
ENDBRANCH  16  17
ENDBRANCH  15  16
ENDBRANCH  14  15
ENDBRANCH   1  14
BRANCH  11  22
HETATM   22  C20 UNL     1      18.028   9.699   9.337  1.00  0.00     0.126 C
BRANCH  22  23
HETATM   23  C21 UNL     1      17.226  10.120   8.132  1.00  0.00     0.015 C
HETATM   24  C22 UNL     1      17.570   9.282   6.916  1.00  0.00     0.006 C
ENDBRANCH  22  23
ENDBRANCH  11  22
BRANCH   6  25
HETATM   25  C12 UNL     1      15.602   5.241  13.885  1.00  0.00     0.035 C
BRANCH  25  26
HETATM   26  C13 UNL     1      14.363   4.467  13.627  1.00  0.00     0.004 C
BRANCH  26  27
HETATM   27  C14 UNL     1      14.643   3.342  12.596  1.00  0.00     0.027 C
BRANCH  27  28
HETATM   28  C15 UNL     1      15.784   2.502  13.106  1.00  0.00     0.229 C
BRANCH  28  29
HETATM   29  N2  UNL     1      16.390   1.769  12.023  1.00  0.00    -0.079 N
ATOM     30  H23 UNL     1      15.827   0.965  11.746  1.00  0.00     0.274 HD
ATOM     31  H22 UNL     1      16.354   2.288  11.146  1.00  0.00     0.274 HD
ATOM     32  H21 UNL     1      17.343   1.499  12.266  1.00  0.00     0.274 HD
ENDBRANCH  28  29
ENDBRANCH  27  28
ENDBRANCH  26  27
ENDBRANCH  25  26
ENDBRANCH   6  25
BRANCH  10  33
HETATM   33  C18 UNL     1      15.828   7.022   9.312  1.00  0.00     0.029 C
HETATM   34  C19 UNL     1      16.094   6.058   8.137  1.00  0.00     0.007 C
ENDBRANCH  10  33
BRANCH   9  35
HETATM   35  O2  UNL     1      18.932   6.403  11.022  1.00  0.00    -0.348 OA
ATOM     36  H2  UNL     1      19.399   7.052  11.536  1.00  0.00     0.219 HD
ENDBRANCH   9  35
TORSDOF 14
ENDMDL