MODEL 1
REMARK VINA RESULT: -9.137347207      0.000      0.000
REMARK  10 active torsions:
REMARK  status: ('A' for Active; 'I' for Inactive)
REMARK    1  A    between atoms: C4_5  and  C5_6
REMARK       I    between atoms: C5_6  and  N1_8
REMARK    2  A    between atoms: N1_8  and  C6_10
REMARK    3  A    between atoms: C10_14  and  C11_15
REMARK    4  A    between atoms: C12_16  and  C13_17
REMARK    5  A    between atoms: C13_17  and  C14_18
REMARK    6  A    between atoms: C14_18  and  C15_19
REMARK    7  A    between atoms: C15_19  and  C16_20
REMARK    8  A    between atoms: C16_20  and  N2_21
REMARK       I    between atoms: N2_21  and  C17_23
REMARK    9  A    between atoms: C17_23  and  C18_25
REMARK   10  A    between atoms: C19_26  and  C20_27
ROOT
HETATM    1  C6  UNL     1      12.069  11.339  19.746  1.00  0.00     0.092 C
HETATM    2  C7  UNL     1      13.555  11.094  19.664  1.00  0.00     0.026 C
HETATM    3  C8  UNL     1      13.733   9.755  19.018  1.00  0.00     0.003 C
HETATM    4  C9  UNL     1      12.433   9.541  18.296  1.00  0.00     0.010 C
HETATM    5  C10 UNL     1      11.518  10.644  18.525  1.00  0.00     0.030 C
ENDROOT
BRANCH   5   6
HETATM    6  C11 UNL     1      11.115  11.574  17.450  1.00  0.00    -0.024 C
HETATM    7  C12 UNL     1      12.015  12.435  16.735  1.00  0.00    -0.030 C
BRANCH   7   8
HETATM    8  C13 UNL     1      13.138  11.923  15.903  1.00  0.00     0.027 C
BRANCH   8   9
HETATM    9  C14 UNL     1      12.793  10.998  14.820  1.00  0.00     0.005 C
BRANCH   9  10
HETATM   10  C15 UNL     1      12.060  11.604  13.679  1.00  0.00     0.020 C
BRANCH  10  11
HETATM   11  C16 UNL     1      12.761  11.902  12.422  1.00  0.00     0.123 C
BRANCH  11  12
HETATM   12  N2  UNL     1      14.128  11.582  12.277  1.00  0.00    -0.358 N
HETATM   13  C17 UNL     1      14.537  10.780  11.180  1.00  0.00     0.241 C
HETATM   14  O3  UNL     1      13.674  10.360  10.342  1.00  0.00    -0.269 OA
ATOM     15  H2  UNL     1      14.813  11.921  12.952  1.00  0.00     0.162 HD
BRANCH  13  16
HETATM   16  C18 UNL     1      15.954  10.422  10.989  1.00  0.00     0.079 C
HETATM   17  C19 UNL     1      16.317   9.720   9.938  1.00  0.00     0.076 C
BRANCH  17  18
HETATM   18  C20 UNL     1      17.712   9.366   9.750  1.00  0.00     0.254 C
HETATM   19  N3  UNL     1      18.070   8.286   8.916  1.00  0.00    -0.058 NA
HETATM   20  O4  UNL     1      18.606  10.020  10.327  1.00  0.00    -0.272 OA
ENDBRANCH  17  18
ENDBRANCH  13  16
ENDBRANCH  11  12
ENDBRANCH  10  11
ENDBRANCH   9  10
ENDBRANCH   8   9
ENDBRANCH   7   8
ENDBRANCH   5   6
BRANCH   1  21
HETATM   21  N1  UNL     1      11.494  10.692  20.928  1.00  0.00    -0.354 N
HETATM   22  C5  UNL     1      10.618  11.353  21.803  1.00  0.00     0.248 C
HETATM   23  O2  UNL     1      10.289  12.566  21.589  1.00  0.00    -0.271 OA
ATOM     24  H1  UNL     1      11.741   9.722  21.123  1.00  0.00     0.163 HD
BRANCH  22  25
HETATM   25  C4  UNL     1      10.068  10.673  22.966  1.00  0.00     0.230 C
HETATM   26  O1  UNL     1      10.128  11.458  24.132  1.00  0.00    -0.373 OA
HETATM   27  C3  UNL     1       9.226  10.931  25.018  1.00  0.00     0.193 C
HETATM   28  C2  UNL     1       9.269   9.468  25.234  1.00  0.00     0.096 C
HETATM   29  C1  UNL     1       7.824   8.985  25.430  1.00  0.00     0.034 C
HETATM   30  N4  UNL     1       9.844   8.668  24.211  1.00  0.00    -0.412 N
HETATM   31  C21 UNL     1      10.746   9.366  23.321  1.00  0.00     0.156 C
ATOM     32  H4  UNL     1       9.637   7.674  24.111  1.00  0.00     0.153 HD
ENDBRANCH  22  25
ENDBRANCH   1  21
TORSDOF 10
ENDMDL