MODEL 2
REMARK VINA RESULT: -9.061085009      2.523      3.575
REMARK  11 active torsions:
REMARK  status: ('A' for Active; 'I' for Inactive)
REMARK    1  A    between atoms: S1_2  and  N1_4
REMARK    2  A    between atoms: S1_2  and  N4_22
REMARK    3  A    between atoms: N1_4  and  C1_6
REMARK    4  A    between atoms: C1_6  and  C2_7
REMARK    5  A    between atoms: C3_8  and  C4_9
REMARK    6  A    between atoms: C4_9  and  N2_10
REMARK    7  A    between atoms: N2_10  and  C5_12
REMARK    8  A    between atoms: N4_22  and  C13_24
REMARK    9  A    between atoms: C13_24  and  C14_25
REMARK   10  A    between atoms: C14_25  and  N5_26
REMARK   11  A    between atoms: N5_26  and  C15_29
ROOT
HETATM    1  N1  UNL     1      16.181  11.173  11.245  1.00  0.00    -0.299 N
ATOM      2  H1  UNL     1      16.661  12.065  11.363  1.00  0.00     0.174 HD
ENDROOT
BRANCH   1   3
HETATM    3  S1  UNL     1      14.544  10.908  11.230  1.00  0.00     0.315 S
HETATM    4  O1  UNL     1      13.976  10.148  10.124  1.00  0.00    -0.183 OA
HETATM    5  O2  UNL     1      14.297  10.059  12.492  1.00  0.00    -0.183 OA
BRANCH   3   6
HETATM    6  N4  UNL     1      13.580  12.397  11.376  1.00  0.00    -0.301 N
ATOM      7  H4  UNL     1      13.797  13.345  11.068  1.00  0.00     0.173 HD
BRANCH   6   8
HETATM    8  C13 UNL     1      12.387  11.886  12.062  1.00  0.00     0.161 C
BRANCH   8   9
HETATM    9  C14 UNL     1      12.433  12.435  13.461  1.00  0.00     0.253 C
BRANCH   9  10
HETATM   10  N5  UNL     1      12.317  11.166  14.260  1.00  0.00    -0.069 N
ATOM     11  H52 UNL     1      11.349  10.845  14.295  1.00  0.00     0.277 HD
ATOM     12  H51 UNL     1      12.734  10.381  13.760  1.00  0.00     0.277 HD
BRANCH  10  13
HETATM   13  C15 UNL     1      12.859  11.284  15.562  1.00  0.00     0.186 C
HETATM   14  C16 UNL     1      12.115  12.209  16.485  1.00  0.00     0.033 C
HETATM   15  C17 UNL     1      11.236  11.516  17.472  1.00  0.00     0.002 C
HETATM   16  C18 UNL     1      12.050  10.625  18.363  1.00  0.00     0.000 C
HETATM   17  C19 UNL     1      13.220   9.984  17.686  1.00  0.00     0.002 C
HETATM   18  C20 UNL     1      13.113   9.923  16.193  1.00  0.00     0.033 C
ENDBRANCH  10  13
ENDBRANCH   9  10
ENDBRANCH   8   9
ENDBRANCH   6   8
ENDBRANCH   3   6
ENDBRANCH   1   3
BRANCH   1  19
HETATM   19  C1  UNL     1      16.782   9.886  11.055  1.00  0.00     0.161 C
BRANCH  19  20
HETATM   20  C2  UNL     1      17.722  10.103   9.973  1.00  0.00    -0.005 C
HETATM   21  C3  UNL     1      17.592   9.963   8.589  1.00  0.00     0.014 C
BRANCH  21  22
HETATM   22  C4  UNL     1      16.597   8.953   8.137  1.00  0.00     0.088 C
BRANCH  22  23
HETATM   23  N2  UNL     1      17.133   7.794   7.587  1.00  0.00    -0.365 N
ATOM     24  H2  UNL     1      18.082   7.884   7.224  1.00  0.00     0.165 HD
BRANCH  23  25
HETATM   25  C5  UNL     1      16.613   6.629   7.468  1.00  0.00     0.041 A
HETATM   26  C6  UNL     1      16.574   5.947   6.359  1.00  0.00     0.047 A
HETATM   27  C7  UNL     1      16.482   4.656   6.149  1.00  0.00     0.090 A
HETATM   28  N3  UNL     1      16.313   3.872   7.330  1.00  0.00    -0.369 N
HETATM   29  C8  UNL     1      16.254   4.513   8.491  1.00  0.00     0.017 A
ATOM     30  H3  UNL     1      16.241   2.856   7.284  1.00  0.00     0.165 HD
HETATM   31  C9  UNL     1      16.410   5.920   8.670  1.00  0.00    -0.009 A
HETATM   32  C12 UNL     1      15.884   4.000   9.870  1.00  0.00     0.058 C
HETATM   33  C10 UNL     1      16.241   6.308  10.036  1.00  0.00     0.043 C
HETATM   34  C11 UNL     1      16.464   5.023  10.774  1.00  0.00     0.011 C
ENDBRANCH  23  25
ENDBRANCH  22  23
ENDBRANCH  21  22
ENDBRANCH  19  20
ENDBRANCH   1  19
TORSDOF 11
ENDMDL