MODEL 5
REMARK VINA RESULT: -7.778524407      1.639      2.114
REMARK  12 active torsions:
REMARK  status: ('A' for Active; 'I' for Inactive)
REMARK    1  A    between atoms: C6_8  and  N2_9
REMARK    2  A    between atoms: N2_9  and  C7_11
REMARK    3  A    between atoms: C7_11  and  C8_12
REMARK    4  A    between atoms: C8_12  and  N3_13
REMARK    5  A    between atoms: N7_23  and  C12_24
REMARK    6  A    between atoms: C12_24  and  C13_25
REMARK    7  A    between atoms: C13_25  and  C14_26
REMARK    8  A    between atoms: C14_26  and  C15_27
REMARK    9  A    between atoms: C15_27  and  C16_28
REMARK   10  A    between atoms: C16_28  and  C17_29
REMARK   11  A    between atoms: C17_29  and  C18_30
REMARK   12  A    between atoms: C18_30  and  N8_31
ROOT
HETATM    1  C1  UNL     1      11.265  11.242  18.706  1.00  0.00     0.038 C
HETATM    2  C2  UNL     1      12.437  11.490  17.774  1.00  0.00     0.031 C
HETATM    3  C3  UNL     1      13.553  12.224  18.457  1.00  0.00     0.038 C
HETATM    4  C4  UNL     1      11.930  12.200  16.548  1.00  0.00     0.090 C
HETATM    5  C5  UNL     1      12.709  11.571  15.453  1.00  0.00     0.061 A
HETATM    6  N1  UNL     1      12.991  11.920  14.175  1.00  0.00    -0.193 N
ATOM      7  H1  UNL     1      12.620  12.806  13.832  1.00  0.00     0.184 HD
HETATM    8  C6  UNL     1      13.726  11.182  13.328  1.00  0.00     0.681 A
HETATM    9  N6  UNL     1      14.223  10.012  13.762  1.00  0.00    -0.154 N
ATOM     10  H6  UNL     1      14.784   9.430  13.140  1.00  0.00     0.187 HD
HETATM   11  C10 UNL     1      13.977   9.616  15.017  1.00  0.00     0.288 A
HETATM   12  O1  UNL     1      14.456   8.506  15.406  1.00  0.00    -0.265 OA
HETATM   13  C11 UNL     1      13.219  10.371  15.902  1.00  0.00     0.123 A
HETATM   14  N7  UNL     1      12.826  10.197  17.257  1.00  0.00    -0.366 N
ENDROOT
BRANCH  14  15
HETATM   15  C12 UNL     1      12.841   8.932  17.964  1.00  0.00     0.124 C
BRANCH  15  16
HETATM   16  C13 UNL     1      13.992   8.974  18.915  1.00  0.00     0.020 C
BRANCH  16  17
HETATM   17  C14 UNL     1      13.618   8.502  20.329  1.00  0.00     0.002 C
BRANCH  17  18
HETATM   18  C15 UNL     1      12.557   7.489  20.313  1.00  0.00     0.000 C
BRANCH  18  19
HETATM   19  C16 UNL     1      11.349   7.732  21.114  1.00  0.00     0.002 C
BRANCH  19  20
HETATM   20  C17 UNL     1      11.323   8.805  22.105  1.00  0.00     0.028 C
BRANCH  20  21
HETATM   21  C18 UNL     1      10.977   8.462  23.495  1.00  0.00     0.236 C
BRANCH  21  22
HETATM   22  N8  UNL     1      10.358   9.627  24.178  1.00  0.00    -0.079 N
HETATM   23  C19 UNL     1       9.042   9.159  24.591  1.00  0.00     0.271 C
HETATM   24  C20 UNL     1      10.179  10.733  23.292  1.00  0.00     0.271 C
HETATM   25  C21 UNL     1      11.111   9.936  25.372  1.00  0.00     0.271 C
ENDBRANCH  21  22
ENDBRANCH  20  21
ENDBRANCH  19  20
ENDBRANCH  18  19
ENDBRANCH  17  18
ENDBRANCH  16  17
ENDBRANCH  15  16
ENDBRANCH  14  15
BRANCH   8  26
HETATM   26  N2  UNL     1      13.957  11.592  12.101  1.00  0.00    -0.224 N
ATOM     27  H2  UNL     1      13.989  12.589  11.886  1.00  0.00     0.177 HD
BRANCH  26  28
HETATM   28  C7  UNL     1      14.167  10.608  11.059  1.00  0.00     0.157 C
BRANCH  28  29
HETATM   29  C8  UNL     1      15.644  10.403  10.793  1.00  0.00     0.142 C
BRANCH  29  30
HETATM   30  N3  UNL     1      15.910  10.083   9.420  1.00  0.00    -0.365 N
HETATM   31  C9  UNL     1      17.105   9.809   9.040  1.00  0.00     0.197 C
HETATM   32  N4  UNL     1      18.146   9.828   9.993  1.00  0.00    -0.067 NA
HETATM   33  N5  UNL     1      17.392   9.491   7.682  1.00  0.00    -0.067 NA
ATOM     34  H3  UNL     1      15.147  10.074   8.743  1.00  0.00     0.161 HD
ENDBRANCH  29  30
ENDBRANCH  28  29
ENDBRANCH  26  28
ENDBRANCH   8  26
TORSDOF 12
ENDMDL