MODEL 5
REMARK VINA RESULT: -7.318505457      3.644      5.955
REMARK  11 active torsions:
REMARK  status: ('A' for Active; 'I' for Inactive)
REMARK    1  A    between atoms: N1_6  and  C6_7
REMARK    2  A    between atoms: N2_10  and  S1_11
REMARK    3  A    between atoms: S1_11  and  C9_14
REMARK    4  A    between atoms: C9_14  and  C10_15
REMARK    5  A    between atoms: C10_15  and  C11_16
REMARK    6  A    between atoms: C11_16  and  O3_17
REMARK    7  A    between atoms: N3_19  and  O4_21
REMARK    8  A    between atoms: N4_25  and  C14_26
REMARK    9  A    between atoms: C14_26  and  O5_27
REMARK   10  A    between atoms: C14_26  and  C15_29
REMARK   11  A    between atoms: C15_29  and  C16_31
ROOT
HETATM    1  C10 UNL     1       0.514  -5.436 -18.832  1.00  0.00     0.043 C
HETATM    2  C12 UNL     1      -0.459  -5.516 -17.710  1.00  0.00     0.039 C
HETATM    3  C13 UNL     1      -0.200  -6.698 -16.800  1.00  0.00     0.126 C
HETATM    4  N4  UNL     1      -0.369  -7.889 -17.681  1.00  0.00    -0.359 N
HETATM    5  C22 UNL     1       0.575  -7.936 -18.754  1.00  0.00     0.126 C
HETATM    6  C23 UNL     1       0.465  -6.727 -19.668  1.00  0.00     0.039 C
ENDROOT
BRANCH   1   7
HETATM    7  C9  UNL     1       1.897  -5.174 -18.365  1.00  0.00     0.175 C
BRANCH   7   8
HETATM    8  S1  UNL     1       2.119  -3.939 -17.154  1.00  0.00     0.212 S
HETATM    9  O1  UNL     1       0.854  -3.149 -16.849  1.00  0.00    -0.211 OA
HETATM   10  O2  UNL     1       3.156  -2.934 -17.561  1.00  0.00    -0.211 OA
BRANCH   8  11
HETATM   11  N2  UNL     1       2.605  -4.599 -15.631  1.00  0.00    -0.210 NA
HETATM   12  C8  UNL     1       1.590  -4.614 -14.641  1.00  0.00     0.109 C
HETATM   13  C7  UNL     1       2.050  -4.470 -13.239  1.00  0.00     0.051 C
HETATM   14  C6  UNL     1       3.415  -4.985 -12.919  1.00  0.00     0.226 C
HETATM   15  C25 UNL     1       4.327  -5.115 -14.101  1.00  0.00     0.051 C
HETATM   16  C24 UNL     1       3.851  -4.096 -15.149  1.00  0.00     0.109 C
BRANCH  14  17
HETATM   17  N1  UNL     1       3.324  -6.181 -12.120  1.00  0.00     0.097 N
HETATM   18  C2  UNL     1       3.716  -6.065 -10.762  1.00  0.00     0.219 C
HETATM   19  C1  UNL     1       3.355  -4.802 -10.070  1.00  0.00     0.043 C
HETATM   20  C3  UNL     1       5.181  -6.427 -10.666  1.00  0.00     0.037 C
HETATM   21  C4  UNL     1       5.282  -7.494 -11.728  1.00  0.00     0.032 C
HETATM   22  C5  UNL     1       4.081  -7.286 -12.648  1.00  0.00     0.273 C
ENDBRANCH  14  17
ENDBRANCH   8  11
ENDBRANCH   7   8
ENDBRANCH   1   7
BRANCH   1  23
HETATM   23  C11 UNL     1       0.130  -4.363 -19.779  1.00  0.00     0.145 C
HETATM   24  N3  UNL     1       0.503  -4.405 -20.999  1.00  0.00    -0.250 N
ATOM     25  H3  UNL     1       1.072  -5.181 -21.336  1.00  0.00     0.196 HD
BRANCH  23  26
HETATM   26  O3  UNL     1      -0.639  -3.312 -19.331  1.00  0.00    -0.347 OA
ATOM     27  H3  UNL     1      -0.222  -2.595 -18.867  1.00  0.00     0.219 HD
ENDBRANCH  23  26
BRANCH  24  28
HETATM   28  O4  UNL     1       0.133  -3.400 -21.851  1.00  0.00    -0.288 OA
ATOM     29  H4  UNL     1      -0.128  -3.612 -22.739  1.00  0.00     0.244 HD
ENDBRANCH  24  28
ENDBRANCH   1  23
BRANCH   4  30
HETATM   30  C14 UNL     1      -1.401  -8.777 -17.352  1.00  0.00     0.185 C
BRANCH  30  31
HETATM   31  O5  UNL     1      -1.092  -9.879 -16.730  1.00  0.00    -0.344 OA
ATOM     32  H5  UNL     1      -0.226  -9.951 -16.346  1.00  0.00     0.219 HD
ENDBRANCH  30  31
BRANCH  30  33
HETATM   33  C15 UNL     1      -2.803  -8.627 -17.621  1.00  0.00     0.203 C
HETATM   34  O6  UNL     1      -3.297  -8.832 -18.768  1.00  0.00    -0.288 OA
BRANCH  33  35
HETATM   35  C16 UNL     1      -3.765  -8.219 -16.555  1.00  0.00     0.064 C
HETATM   36  C17 UNL     1      -3.816  -6.717 -16.406  1.00  0.00     0.013 C
HETATM   37  C18 UNL     1      -4.481  -6.435 -15.055  1.00  0.00     0.001 C
HETATM   38  C19 UNL     1      -5.769  -7.232 -14.934  1.00  0.00     0.000 C
HETATM   39  C20 UNL     1      -6.193  -7.783 -16.277  1.00  0.00     0.001 C
HETATM   40  C21 UNL     1      -5.154  -8.790 -16.783  1.00  0.00     0.013 C
ENDBRANCH  33  35
ENDBRANCH  30  33
ENDBRANCH   4  30
TORSDOF 11
ENDMDL