MODEL 4
REMARK VINA RESULT: -6.368158326      3.102      6.370
REMARK  9 active torsions:
REMARK  status: ('A' for Active; 'I' for Inactive)
REMARK    1  A    between atoms: C2_2  and  C4_4
REMARK    2  A    between atoms: C6_9  and  C7_10
REMARK    3  A    between atoms: C7_10  and  C8_11
REMARK    4  A    between atoms: C7_10  and  C20_23
REMARK    5  A    between atoms: C8_11  and  C9_12
REMARK    6  A    between atoms: C9_12  and  C11_14
REMARK    7  A    between atoms: C13_16  and  C19_22
REMARK    8  A    between atoms: C16_19  and  C17_20
REMARK    9  A    between atoms: C24_29  and  C25_30
ROOT
HETATM    1  C4  UNL     1       2.134  -3.988 -19.841  1.00  0.00     0.180 C
HETATM    2  N1  UNL     1       2.657  -4.954 -18.954  1.00  0.00    -0.345 N
ATOM      3  H1  UNL     1       3.366  -5.577 -19.341  1.00  0.00     0.163 HD
HETATM    4  C5  UNL     1       2.317  -5.168 -17.587  1.00  0.00     0.248 C
HETATM    5  O1  UNL     1       2.900  -6.138 -16.991  1.00  0.00    -0.271 OA
HETATM    6  C6  UNL     1       1.356  -4.381 -16.799  1.00  0.00     0.228 C
HETATM    7  O2  UNL     1       0.176  -5.023 -16.535  1.00  0.00    -0.304 OA
HETATM    8  C23 UNL     1      -0.965  -5.392 -17.093  1.00  0.00     0.289 C
HETATM    9  O3  UNL     1      -2.084  -4.738 -17.098  1.00  0.00    -0.262 OA
HETATM   10  C24 UNL     1      -1.115  -6.677 -17.823  1.00  0.00     0.234 C
HETATM   11  O4  UNL     1       0.031  -7.242 -18.325  1.00  0.00    -0.304 OA
HETATM   12  C28 UNL     1       0.322  -7.777 -19.548  1.00  0.00     0.277 C
HETATM   13  O5  UNL     1       0.422  -9.024 -19.814  1.00  0.00    -0.263 OA
HETATM   14  C29 UNL     1       0.553  -6.871 -20.702  1.00  0.00     0.233 C
HETATM   15  N2  UNL     1       0.140  -5.516 -20.483  1.00  0.00    -0.350 N
ATOM     16  H2  UNL     1      -0.842  -5.392 -20.238  1.00  0.00     0.163 HD
HETATM   17  C30 UNL     1       0.895  -4.338 -20.560  1.00  0.00     0.241 C
HETATM   18  O6  UNL     1       0.493  -3.398 -21.353  1.00  0.00    -0.271 OA
ENDROOT
BRANCH   6  19
HETATM   19  C7  UNL     1       1.870  -3.667 -15.595  1.00  0.00     0.028 C
BRANCH  19  20
HETATM   20  C8  UNL     1       1.576  -4.190 -14.259  1.00  0.00     0.012 C
BRANCH  20  21
HETATM   21  C9  UNL     1       0.664  -3.504 -13.307  1.00  0.00    -0.014 C
HETATM   22  C10 UNL     1       1.655  -2.724 -12.386  1.00  0.00     0.010 C
BRANCH  21  23
HETATM   23  C11 UNL     1      -0.235  -2.546 -13.993  1.00  0.00    -0.006 C
HETATM   24  C12 UNL     1      -0.006  -1.091 -13.827  1.00  0.00     0.015 C
HETATM   25  C13 UNL     1      -1.383  -0.460 -14.116  1.00  0.00    -0.039 C
HETATM   26  C14 UNL     1      -1.323   0.803 -14.848  1.00  0.00     0.015 C
HETATM   27  C15 UNL     1      -2.072  -1.604 -14.847  1.00  0.00     0.015 C
HETATM   28  C16 UNL     1      -1.708  -2.672 -13.778  1.00  0.00    -0.005 C
BRANCH  25  29
HETATM   29  C19 UNL     1      -2.120  -0.467 -12.818  1.00  0.00    -0.002 A
HETATM   30  C17 UNL     1      -3.049   0.749 -13.003  1.00  0.00    -0.005 A
HETATM   31  C18 UNL     1      -2.110   0.628 -11.859  1.00  0.00     0.011 A
ENDBRANCH  25  29
ENDBRANCH  21  23
ENDBRANCH  20  21
ENDBRANCH  19  20
BRANCH  19  32
HETATM   32  C20 UNL     1       3.318  -3.266 -15.780  1.00  0.00    -0.016 C
HETATM   33  C21 UNL     1       4.180  -3.938 -14.698  1.00  0.00     0.010 C
HETATM   34  C22 UNL     1       3.514  -1.761 -15.598  1.00  0.00     0.010 C
ENDBRANCH  19  32
ENDBRANCH   6  19
BRANCH   1  35
HETATM   35  C2  UNL     1       3.141  -3.589 -20.918  1.00  0.00     0.009 C
HETATM   36  C1  UNL     1       3.741  -4.732 -21.654  1.00  0.00     0.012 C
HETATM   37  C3  UNL     1       4.223  -2.680 -20.382  1.00  0.00     0.012 C
ENDBRANCH   1  35
BRANCH  10  38
HETATM   38  C25 UNL     1      -1.634  -7.658 -16.739  1.00  0.00     0.017 C
HETATM   39  C26 UNL     1      -2.813  -8.429 -17.246  1.00  0.00     0.012 C
HETATM   40  C27 UNL     1      -0.525  -8.581 -16.348  1.00  0.00     0.012 C
ENDBRANCH  10  38
TORSDOF 9
ENDMDL