MODEL 1
REMARK VINA RESULT: -6.798324907      0.000      0.000
REMARK  11 active torsions:
REMARK  status: ('A' for Active; 'I' for Inactive)
REMARK    1  A    between atoms: O1_2  and  C2_3
REMARK    2  A    between atoms: C2_3  and  C3_4
REMARK    3  A    between atoms: C3_4  and  N1_5
REMARK    4  A    between atoms: C3_4  and  C24_33
REMARK       I    between atoms: N1_5  and  C4_7
REMARK    5  A    between atoms: C4_7  and  C5_9
REMARK    6  A    between atoms: C7_11  and  C8_12
REMARK       I    between atoms: C8_12  and  N2_14
REMARK    7  A    between atoms: C11_17  and  C12_18
REMARK       I    between atoms: N3_24  and  C18_25
REMARK    8  A    between atoms: C18_25  and  O5_27
REMARK    9  A    between atoms: O5_27  and  C19_28
REMARK   10  A    between atoms: C24_33  and  O6_35
REMARK   11  A    between atoms: C24_33  and  C26_37
ROOT
HETATM    1  C5  UNL     1      -1.824  -5.736 -17.365  1.00  0.00     0.099 C
HETATM    2  C6  UNL     1      -0.524  -6.410 -17.754  1.00  0.00     0.051 C
HETATM    3  C7  UNL     1       0.526  -5.318 -17.710  1.00  0.00     0.182 C
HETATM    4  N3  UNL     1       0.025  -4.356 -16.751  1.00  0.00    -0.314 N
HETATM    5  C18 UNL     1       0.782  -3.309 -16.121  1.00  0.00     0.364 C
HETATM    6  O4  UNL     1       2.004  -3.128 -16.356  1.00  0.00    -0.238 OA
HETATM    7  C23 UNL     1      -1.357  -4.609 -16.520  1.00  0.00     0.143 C
ENDROOT
BRANCH   1   8
HETATM    8  C4  UNL     1      -2.709  -6.615 -16.571  1.00  0.00     0.227 C
HETATM    9  N1  UNL     1      -3.916  -6.160 -15.975  1.00  0.00    -0.329 N
ATOM     10  H1  UNL     1      -4.177  -5.183 -16.106  1.00  0.00     0.168 HD
HETATM   11  O2  UNL     1      -2.381  -7.816 -16.416  1.00  0.00    -0.273 OA
BRANCH   9  12
HETATM   12  C3  UNL     1      -4.780  -6.985 -15.208  1.00  0.00     0.047 C
BRANCH  12  13
HETATM   13  C2  UNL     1      -4.989  -6.518 -13.771  1.00  0.00     0.222 C
BRANCH  13  14
HETATM   14  O1  UNL     1      -4.783  -5.137 -13.750  1.00  0.00    -0.390 OA
HETATM   15  C1  UNL     1      -5.745  -4.565 -12.903  1.00  0.00     0.201 C
ENDBRANCH  13  14
ENDBRANCH  12  13
BRANCH  12  16
HETATM   16  C24 UNL     1      -5.996  -7.523 -15.861  1.00  0.00     0.098 C
HETATM   17  C25 UNL     1      -5.751  -8.995 -16.146  1.00  0.00     0.053 C
BRANCH  16  18
HETATM   18  O6  UNL     1      -6.037  -6.919 -17.163  1.00  0.00    -0.384 OA
ATOM     19  H6  UNL     1      -5.134  -6.720 -17.383  1.00  0.00     0.211 HD
ENDBRANCH  16  18
BRANCH  16  20
HETATM   20  C26 UNL     1      -7.311  -7.370 -15.221  1.00  0.00     0.025 A
HETATM   21  C27 UNL     1      -8.610  -7.342 -15.981  1.00  0.00     0.008 A
HETATM   22  C28 UNL     1      -8.134  -6.153 -15.215  1.00  0.00     0.008 A
ENDBRANCH  16  20
ENDBRANCH  12  16
ENDBRANCH   9  12
ENDBRANCH   1   8
BRANCH   3  23
HETATM   23  C8  UNL     1       0.610  -4.734 -19.072  1.00  0.00     0.242 C
HETATM   24  O3  UNL     1      -0.452  -4.171 -19.506  1.00  0.00    -0.271 OA
HETATM   25  N2  UNL     1       1.758  -4.762 -19.888  1.00  0.00    -0.350 N
HETATM   26  C9  UNL     1       1.699  -4.163 -21.207  1.00  0.00     0.126 C
HETATM   27  C17 UNL     1       2.967  -5.379 -19.380  1.00  0.00     0.126 C
HETATM   28  C10 UNL     1       2.872  -3.230 -21.437  1.00  0.00     0.025 C
HETATM   29  C11 UNL     1       3.852  -3.286 -20.284  1.00  0.00    -0.004 C
HETATM   30  C16 UNL     1       4.190  -4.717 -20.018  1.00  0.00     0.025 C
BRANCH  29  31
HETATM   31  C12 UNL     1       5.061  -2.470 -20.682  1.00  0.00    -0.048 C
HETATM   32  C13 UNL     1       4.706  -1.669 -21.909  1.00  0.00     0.015 C
HETATM   33  C14 UNL     1       5.506  -1.520 -19.603  1.00  0.00     0.015 C
HETATM   34  C15 UNL     1       6.225  -3.368 -21.065  1.00  0.00     0.015 C
ENDBRANCH  29  31
ENDBRANCH   3  23
BRANCH   5  35
HETATM   35  O5  UNL     1       0.193  -2.439 -15.214  1.00  0.00    -0.294 OA
BRANCH  35  36
HETATM   36  C19 UNL     1       0.511  -2.388 -13.845  1.00  0.00     0.061 C
HETATM   37  C20 UNL     1      -0.730  -1.888 -13.124  1.00  0.00     0.046 C
HETATM   38  C21 UNL     1       1.636  -1.464 -13.517  1.00  0.00     0.046 C
HETATM   39  C22 UNL     1       0.836  -3.755 -13.282  1.00  0.00     0.046 C
ENDBRANCH  35  36
ENDBRANCH   5  35
TORSDOF 11
ENDMDL