MODEL 1
REMARK VINA RESULT: -6.994956652      0.000      0.000
REMARK  9 active torsions:
REMARK  status: ('A' for Active; 'I' for Inactive)
REMARK    1  A    between atoms: C2_2  and  C3_3
REMARK    2  A    between atoms: C3_3  and  C4_4
REMARK    3  A    between atoms: C4_4  and  C5_5
REMARK    4  A    between atoms: C7_7  and  O1_8
REMARK    5  A    between atoms: O1_8  and  C8_9
REMARK       I    between atoms: C8_9  and  N1_11
REMARK    6  A    between atoms: C18_22  and  C19_23
REMARK       I    between atoms: C19_23  and  N3_25
REMARK    7  A    between atoms: N3_25  and  C20_27
REMARK    8  A    between atoms: C20_27  and  C21_28
REMARK       I    between atoms: C21_28  and  N4_30
REMARK    9  A    between atoms: N4_30  and  O5_32
ROOT
HETATM    1  C5  UNL     1      -1.166  -6.147 -16.745  1.00  0.00    -0.011 C
HETATM    2  C6  UNL     1      -2.405  -6.750 -16.144  1.00  0.00     0.037 C
HETATM    3  C7  UNL     1      -3.116  -7.709 -17.054  1.00  0.00     0.135 C
HETATM    4  C17 UNL     1      -2.248  -8.757 -17.657  1.00  0.00     0.046 C
HETATM    5  C18 UNL     1      -0.800  -8.355 -17.768  1.00  0.00     0.080 C
HETATM    6  C28 UNL     1      -0.606  -6.884 -17.909  1.00  0.00     0.018 C
ENDROOT
BRANCH   5   7
HETATM    7  C19 UNL     1      -0.129  -9.057 -18.924  1.00  0.00     0.223 C
HETATM    8  O3  UNL     1      -0.851  -9.782 -19.660  1.00  0.00    -0.273 OA
HETATM    9  N3  UNL     1       1.257  -8.858 -19.105  1.00  0.00    -0.343 N
ATOM     10  H3  UNL     1       1.779  -8.258 -18.465  1.00  0.00     0.163 HD
BRANCH   9  11
HETATM   11  C20 UNL     1       1.935  -9.515 -20.211  1.00  0.00     0.116 C
HETATM   12  C23 UNL     1       3.445  -9.391 -20.034  1.00  0.00     0.041 C
HETATM   13  C24 UNL     1       3.903 -10.111 -18.782  1.00  0.00     0.003 C
HETATM   14  C25 UNL     1       3.185 -11.424 -18.594  1.00  0.00     0.000 C
HETATM   15  C26 UNL     1       2.609 -11.906 -19.909  1.00  0.00     0.003 C
HETATM   16  C27 UNL     1       1.497 -10.938 -20.288  1.00  0.00     0.041 C
BRANCH  11  17
HETATM   17  C21 UNL     1       1.563  -8.815 -21.457  1.00  0.00     0.271 C
HETATM   18  O4  UNL     1       1.168  -9.465 -22.488  1.00  0.00    -0.268 OA
HETATM   19  N4  UNL     1       1.607  -7.409 -21.623  1.00  0.00    -0.231 N
HETATM   20  C22 UNL     1       1.227  -6.743 -22.852  1.00  0.00     0.188 C
BRANCH  19  21
HETATM   21  O5  UNL     1       2.023  -6.627 -20.611  1.00  0.00    -0.285 OA
ATOM     22  H5  UNL     1       2.117  -5.691 -20.744  1.00  0.00     0.245 HD
ENDBRANCH  19  21
ENDBRANCH  11  17
ENDBRANCH   9  11
ENDBRANCH   5   7
BRANCH   3  23
HETATM   23  O1  UNL     1      -4.093  -8.385 -16.247  1.00  0.00    -0.298 OA
BRANCH  23  24
HETATM   24  C8  UNL     1      -5.426  -7.999 -16.255  1.00  0.00     0.363 C
HETATM   25  O2  UNL     1      -6.081  -8.253 -17.281  1.00  0.00    -0.238 OA
HETATM   26  N1  UNL     1      -6.028  -7.341 -15.148  1.00  0.00    -0.326 N
HETATM   27  C9  UNL     1      -5.127  -7.126 -14.039  1.00  0.00     0.130 C
HETATM   28  C16 UNL     1      -7.400  -7.013 -15.325  1.00  0.00     0.163 C
HETATM   29  C10 UNL     1      -4.901  -5.637 -13.866  1.00  0.00     0.050 C
HETATM   30  C11 UNL     1      -6.130  -5.090 -13.199  1.00  0.00     0.274 C
HETATM   31  N2  UNL     1      -7.244  -4.878 -14.068  1.00  0.00     0.094 N
HETATM   32  C12 UNL     1      -8.236  -4.140 -13.256  1.00  0.00     0.273 C
HETATM   33  C15 UNL     1      -8.004  -6.027 -14.418  1.00  0.00     0.241 C
HETATM   34  C13 UNL     1      -8.885  -5.238 -12.402  1.00  0.00     0.032 C
HETATM   35  C14 UNL     1      -8.476  -6.537 -13.084  1.00  0.00     0.039 C
ENDBRANCH  23  24
ENDBRANCH   3  23
BRANCH   1  36
HETATM   36  C4  UNL     1      -1.316  -4.691 -17.092  1.00  0.00     0.005 C
BRANCH  36  37
HETATM   37  C3  UNL     1      -2.413  -4.013 -16.340  1.00  0.00     0.000 C
BRANCH  37  38
HETATM   38  C2  UNL     1      -1.921  -3.237 -15.150  1.00  0.00    -0.005 C
HETATM   39  C1  UNL     1      -2.961  -2.362 -14.527  1.00  0.00     0.005 C
ENDBRANCH  37  38
ENDBRANCH  36  37
ENDBRANCH   1  36
TORSDOF 9
ENDMDL