MODEL 5
REMARK VINA RESULT: -6.159389340      3.915      8.024
REMARK  10 active torsions:
REMARK  status: ('A' for Active; 'I' for Inactive)
REMARK    1  A    between atoms: C2_2  and  C3_3
REMARK    2  A    between atoms: C3_3  and  C5_5
REMARK    3  A    between atoms: C5_5  and  N1_6
REMARK    4  A    between atoms: C5_5  and  C21_30
REMARK       I    between atoms: N1_6  and  C6_8
REMARK    5  A    between atoms: C6_8  and  C7_10
REMARK    6  A    between atoms: C11_14  and  N2_15
REMARK       I    between atoms: N2_15  and  C12_17
REMARK    7  A    between atoms: C12_17  and  O3_19
REMARK    8  A    between atoms: O3_19  and  C13_20
REMARK    9  A    between atoms: C21_30  and  O6_32
REMARK   10  A    between atoms: O6_32  and  C22_33
ROOT
HETATM    1  C7  UNL     1       0.386  -3.873 -17.225  1.00  0.00     0.186 C
HETATM    2  C8  UNL     1      -0.552  -5.084 -17.482  1.00  0.00     0.040 C
HETATM    3  C9  UNL     1      -1.889  -4.662 -16.992  1.00  0.00    -0.021 C
HETATM    4  C10 UNL     1      -2.284  -3.948 -15.955  1.00  0.00     0.004 C
HETATM    5  C11 UNL     1      -1.644  -3.246 -14.823  1.00  0.00     0.202 C
HETATM    6  C17 UNL     1      -0.147  -3.492 -14.774  1.00  0.00     0.247 C
HETATM    7  O4  UNL     1       0.459  -3.197 -13.731  1.00  0.00    -0.271 OA
HETATM    8  N3  UNL     1       0.623  -4.032 -15.815  1.00  0.00    -0.336 N
HETATM    9  C18 UNL     1       1.638  -4.942 -15.376  1.00  0.00     0.127 C
HETATM   10  C19 UNL     1       1.374  -6.200 -16.238  1.00  0.00     0.021 C
HETATM   11  C20 UNL     1      -0.050  -6.262 -16.714  1.00  0.00     0.013 C
ENDROOT
BRANCH   1  12
HETATM   12  C6  UNL     1       1.531  -3.830 -18.110  1.00  0.00     0.242 C
HETATM   13  N1  UNL     1       1.519  -4.478 -19.364  1.00  0.00    -0.345 N
ATOM     14  H1  UNL     1       0.683  -4.993 -19.639  1.00  0.00     0.163 HD
HETATM   15  O1  UNL     1       2.569  -3.213 -17.774  1.00  0.00    -0.271 OA
BRANCH  13  16
HETATM   16  C5  UNL     1       2.642  -4.445 -20.280  1.00  0.00     0.188 C
BRANCH  16  17
HETATM   17  C3  UNL     1       2.909  -5.807 -20.823  1.00  0.00     0.014 C
HETATM   18  C4  UNL     1       4.281  -6.257 -20.295  1.00  0.00     0.012 C
BRANCH  17  19
HETATM   19  C2  UNL     1       1.950  -6.879 -20.472  1.00  0.00     0.002 C
HETATM   20  C1  UNL     1       1.000  -7.332 -21.512  1.00  0.00     0.005 C
ENDBRANCH  17  19
ENDBRANCH  16  17
BRANCH  16  21
HETATM   21  C21 UNL     1       2.562  -3.424 -21.320  1.00  0.00     0.282 C
HETATM   22  O5  UNL     1       1.586  -3.314 -22.125  1.00  0.00    -0.263 OA
BRANCH  21  23
HETATM   23  O6  UNL     1       3.575  -2.465 -21.516  1.00  0.00    -0.314 OA
BRANCH  23  24
HETATM   24  C22 UNL     1       4.351  -1.997 -20.457  1.00  0.00     0.141 C
HETATM   25  C23 UNL     1       5.788  -2.529 -20.388  1.00  0.00     0.020 C
HETATM   26  C24 UNL     1       6.379  -2.862 -21.745  1.00  0.00     0.012 C
HETATM   27  C27 UNL     1       6.202  -1.106 -20.088  1.00  0.00    -0.001 C
HETATM   28  C25 UNL     1       6.665  -1.493 -22.293  1.00  0.00    -0.013 C
HETATM   29  C26 UNL     1       7.325  -0.841 -21.065  1.00  0.00     0.010 C
HETATM   30  C29 UNL     1       5.372  -0.717 -22.335  1.00  0.00     0.012 C
HETATM   31  C28 UNL     1       4.986  -0.666 -20.862  1.00  0.00     0.020 C
ENDBRANCH  23  24
ENDBRANCH  21  23
ENDBRANCH  16  21
ENDBRANCH  13  16
ENDBRANCH   1  12
BRANCH   5  32
HETATM   32  N2  UNL     1      -1.831  -1.818 -14.885  1.00  0.00    -0.320 N
HETATM   33  C12 UNL     1      -3.001  -1.252 -14.314  1.00  0.00     0.362 C
HETATM   34  O2  UNL     1      -3.888  -1.964 -13.755  1.00  0.00    -0.238 OA
ATOM     35  H2  UNL     1      -1.133  -1.224 -15.332  1.00  0.00     0.166 HD
BRANCH  33  36
HETATM   36  O3  UNL     1      -3.204   0.111 -14.354  1.00  0.00    -0.294 OA
BRANCH  36  37
HETATM   37  C13 UNL     1      -2.793   0.907 -13.241  1.00  0.00     0.061 C
HETATM   38  C14 UNL     1      -2.225   0.099 -12.120  1.00  0.00     0.046 C
HETATM   39  C15 UNL     1      -4.018   1.634 -12.740  1.00  0.00     0.046 C
HETATM   40  C16 UNL     1      -1.777   1.939 -13.696  1.00  0.00     0.046 C
ENDBRANCH  36  37
ENDBRANCH  33  36
ENDBRANCH   5  32
TORSDOF 10
ENDMDL