MODEL 2
REMARK VINA RESULT: -7.317588151      2.524      4.089
REMARK  9 active torsions:
REMARK  status: ('A' for Active; 'I' for Inactive)
REMARK    1  A    between atoms: C2_2  and  N1_3
REMARK    2  A    between atoms: N1_3  and  C4_5
REMARK    3  A    between atoms: C7_8  and  S1_9
REMARK    4  A    between atoms: S1_9  and  N2_12
REMARK    5  A    between atoms: N2_12  and  C8_14
REMARK    6  A    between atoms: C14_23  and  S2_24
REMARK    7  A    between atoms: S2_24  and  N4_27
REMARK    8  A    between atoms: N4_27  and  C15_29
REMARK    9  A    between atoms: C15_29  and  C17_31
ROOT
HETATM    1  C4  UNL     1      -1.650  -5.840 -16.928  1.00  0.00     0.053 A
HETATM    2  C5  UNL     1      -2.660  -5.101 -16.324  1.00  0.00     0.032 A
HETATM    3  C6  UNL     1      -3.875  -5.664 -16.021  1.00  0.00     0.027 A
HETATM    4  C7  UNL     1      -4.115  -6.988 -16.314  1.00  0.00     0.081 A
HETATM    5  C13 UNL     1      -3.105  -7.702 -16.911  1.00  0.00     0.052 A
HETATM    6  C14 UNL     1      -1.874  -7.166 -17.229  1.00  0.00     0.107 A
ENDROOT
BRANCH   6   7
HETATM    7  S2  UNL     1      -0.622  -8.110 -18.027  1.00  0.00     0.261 S
HETATM    8  O4  UNL     1       0.710  -8.001 -17.366  1.00  0.00    -0.200 OA
HETATM    9  O5  UNL     1      -1.031  -9.573 -17.859  1.00  0.00    -0.200 OA
BRANCH   7  10
HETATM   10  N4  UNL     1      -0.569  -7.733 -19.717  1.00  0.00    -0.311 N
ATOM     11  H4  UNL     1      -1.388  -7.457 -20.259  1.00  0.00     0.172 HD
BRANCH  10  12
HETATM   12  C15 UNL     1       0.763  -7.851 -20.279  1.00  0.00     0.093 C
HETATM   13  C16 UNL     1       0.834  -9.199 -20.972  1.00  0.00     0.033 C
BRANCH  12  14
HETATM   14  C17 UNL     1       1.156  -6.703 -21.110  1.00  0.00     0.014 C
HETATM   15  C18 UNL     1       1.253  -7.035 -22.612  1.00  0.00     0.012 C
HETATM   16  C19 UNL     1       2.484  -6.228 -22.935  1.00  0.00    -0.006 C
HETATM   17  C20 UNL     1       3.459  -6.780 -21.887  1.00  0.00     0.011 C
HETATM   18  C22 UNL     1       2.446  -5.005 -22.007  1.00  0.00    -0.040 C
HETATM   19  C21 UNL     1       2.487  -6.103 -20.921  1.00  0.00     0.000 C
HETATM   20  C23 UNL     1       1.184  -4.219 -22.078  1.00  0.00     0.015 C
HETATM   21  C24 UNL     1       3.707  -4.213 -22.019  1.00  0.00     0.015 C
ENDBRANCH  12  14
ENDBRANCH  10  12
ENDBRANCH   7  10
ENDBRANCH   6   7
BRANCH   1  22
HETATM   22  N1  UNL     1      -0.436  -5.164 -17.173  1.00  0.00    -0.384 N
HETATM   23  C3  UNL     1       0.565  -5.099 -16.139  1.00  0.00     0.149 C
BRANCH  22  24
HETATM   24  C2  UNL     1      -0.200  -4.519 -18.434  1.00  0.00     0.118 C
HETATM   25  C1  UNL     1       1.204  -3.877 -18.430  1.00  0.00     0.026 C
ENDBRANCH  22  24
ENDBRANCH   1  22
BRANCH   4  26
HETATM   26  S1  UNL     1      -5.675  -7.717 -15.934  1.00  0.00     0.264 S
HETATM   27  O1  UNL     1      -6.689  -7.190 -16.897  1.00  0.00    -0.200 OA
HETATM   28  O2  UNL     1      -5.485  -9.206 -16.061  1.00  0.00    -0.200 OA
BRANCH  26  29
HETATM   29  N2  UNL     1      -6.080  -7.276 -14.317  1.00  0.00    -0.258 N
ATOM     30  H2  UNL     1      -5.533  -7.628 -13.532  1.00  0.00     0.181 HD
BRANCH  29  31
HETATM   31  C8  UNL     1      -7.086  -6.494 -14.115  1.00  0.00     0.187 A
HETATM   32  O3  UNL     1      -8.340  -6.636 -14.434  1.00  0.00    -0.218 OA
HETATM   33  N3  UNL     1      -9.045  -5.606 -14.047  1.00  0.00    -0.263 N
HETATM   34  C9  UNL     1      -8.260  -4.701 -13.431  1.00  0.00     0.039 A
ATOM     35  H3  UNL     1     -10.049  -5.502 -14.192  1.00  0.00     0.194 HD
HETATM   36  C10 UNL     1      -8.649  -3.386 -12.837  1.00  0.00     0.071 C
HETATM   37  C11 UNL     1      -7.002  -5.263 -13.471  1.00  0.00     0.016 A
HETATM   38  C12 UNL     1      -5.758  -4.683 -12.931  1.00  0.00     0.055 C
ENDBRANCH  29  31
ENDBRANCH  26  29
ENDBRANCH   4  26
TORSDOF 9
ENDMDL