MODEL 1
REMARK VINA RESULT: -7.381893018      0.000      0.000
REMARK  9 active torsions:
REMARK  status: ('A' for Active; 'I' for Inactive)
REMARK    1  A    between atoms: C2_2  and  N1_3
REMARK    2  A    between atoms: C4_6  and  C5_7
REMARK    3  A    between atoms: C5_7  and  C6_8
REMARK    4  A    between atoms: C5_7  and  C18_25
REMARK    5  A    between atoms: C6_8  and  C7_9
REMARK    6  A    between atoms: N2_12  and  C10_13
REMARK    7  A    between atoms: N3_17  and  O2_19
REMARK       I    between atoms: C18_25  and  N4_27
REMARK    8  A    between atoms: C21_30  and  O4_31
REMARK    9  A    between atoms: C23_34  and  O5_35
ROOT
HETATM    1  C5  UNL     1      -1.501  -7.310 -17.264  1.00  0.00     0.004 C
ENDROOT
BRANCH   1   2
HETATM    2  C4  UNL     1      -0.848  -6.394 -18.245  1.00  0.00     0.141 C
HETATM    3  C3  UNL     1      -0.325  -5.172 -17.590  1.00  0.00     0.231 C
HETATM    4  N1  UNL     1       0.778  -4.464 -18.230  1.00  0.00    -0.343 N
HETATM    5  O1  UNL     1      -0.701  -4.649 -16.537  1.00  0.00    -0.272 OA
HETATM    6  C26 UNL     1       0.860  -4.516 -19.659  1.00  0.00     0.030 C
HETATM    7  C25 UNL     1       0.452  -5.845 -20.178  1.00  0.00     0.063 C
HETATM    8  C27 UNL     1      -0.140  -3.475 -20.183  1.00  0.00     0.038 C
HETATM    9  C28 UNL     1       2.248  -4.212 -20.186  1.00  0.00     0.038 C
HETATM   10  C23 UNL     1       0.303  -6.895 -19.030  1.00  0.00     0.140 C
BRANCH   4  11
HETATM   11  C2  UNL     1       1.760  -3.731 -17.472  1.00  0.00     0.122 C
HETATM   12  C1  UNL     1       2.710  -4.591 -16.688  1.00  0.00     0.026 C
ENDBRANCH   4  11
BRANCH  10  13
HETATM   13  O5  UNL     1       0.220  -8.065 -19.700  1.00  0.00    -0.389 OA
HETATM   14  C24 UNL     1       0.419  -7.834 -21.063  1.00  0.00     0.202 C
ENDBRANCH  10  13
ENDBRANCH   1   2
BRANCH   1  15
HETATM   15  C6  UNL     1      -2.958  -7.336 -17.480  1.00  0.00     0.046 C
BRANCH  15  16
HETATM   16  C7  UNL     1      -3.899  -7.703 -16.375  1.00  0.00    -0.004 C
HETATM   17  C8  UNL     1      -3.875  -6.424 -15.433  1.00  0.00     0.025 C
HETATM   18  C9  UNL     1      -4.703  -6.644 -14.233  1.00  0.00     0.122 C
HETATM   19  N2  UNL     1      -6.029  -7.121 -14.498  1.00  0.00    -0.389 N
HETATM   20  C16 UNL     1      -6.104  -8.126 -15.451  1.00  0.00     0.059 C
HETATM   21  C17 UNL     1      -5.357  -7.745 -16.714  1.00  0.00     0.049 C
BRANCH  19  22
HETATM   22  C10 UNL     1      -7.062  -6.218 -14.246  1.00  0.00     0.084 C
HETATM   23  C11 UNL     1      -8.188  -6.252 -15.220  1.00  0.00     0.031 C
HETATM   24  C12 UNL     1      -9.149  -5.083 -14.986  1.00  0.00     0.056 C
HETATM   25  C13 UNL     1      -8.923  -4.530 -13.638  1.00  0.00     0.010 C
HETATM   26  N3  UNL     1      -8.861  -3.270 -13.462  1.00  0.00    -0.277 N
HETATM   27  C14 UNL     1      -8.765  -5.545 -12.541  1.00  0.00     0.056 C
ATOM     28  H3  UNL     1      -8.702  -2.902 -12.524  1.00  0.00     0.193 HD
HETATM   29  C15 UNL     1      -7.514  -6.347 -12.805  1.00  0.00     0.031 C
BRANCH  26  30
HETATM   30  O2  UNL     1      -9.004  -2.414 -14.499  1.00  0.00    -0.290 OA
ATOM     31  H2  UNL     1      -8.985  -1.474 -14.363  1.00  0.00     0.244 HD
ENDBRANCH  26  30
ENDBRANCH  19  22
ENDBRANCH  15  16
ENDBRANCH   1  15
BRANCH   1  32
HETATM   32  C18 UNL     1      -0.824  -8.578 -17.008  1.00  0.00     0.246 C
HETATM   33  O3  UNL     1      -1.222  -9.697 -17.502  1.00  0.00    -0.268 OA
HETATM   34  N4  UNL     1       0.335  -8.693 -16.187  1.00  0.00    -0.346 N
HETATM   35  C19 UNL     1       0.982  -7.571 -15.550  1.00  0.00     0.129 C
HETATM   36  C22 UNL     1       1.032  -9.908 -15.823  1.00  0.00     0.157 C
HETATM   37  C20 UNL     1       2.350  -8.054 -15.128  1.00  0.00     0.053 C
HETATM   38  C21 UNL     1       2.444  -9.502 -15.560  1.00  0.00     0.137 C
BRANCH  38  39
HETATM   39  O4  UNL     1       3.190  -9.613 -16.728  1.00  0.00    -0.394 OA
ATOM     40  H4  UNL     1       3.239 -10.521 -17.006  1.00  0.00     0.210 HD
ENDBRANCH  38  39
ENDBRANCH   1  32
TORSDOF 9
ENDMDL