MODEL 1
REMARK VINA RESULT: -7.649090628      0.000      0.000
REMARK  10 active torsions:
REMARK  status: ('A' for Active; 'I' for Inactive)
REMARK    1  A    between atoms: C6_7  and  C7_8
REMARK    2  A    between atoms: C7_8  and  O1_9
REMARK    3  A    between atoms: C7_8  and  N2_11
REMARK    4  A    between atoms: N2_11  and  C9_13
REMARK    5  A    between atoms: C12_16  and  C13_17
REMARK    6  A    between atoms: C13_17  and  N3_20
REMARK    7  A    between atoms: N5_29  and  C19_31
REMARK    8  A    between atoms: C19_31  and  C20_32
REMARK    9  A    between atoms: C19_31  and  C25_39
REMARK   10  A    between atoms: C20_32  and  N6_33
ROOT
HETATM    1  C1  UNL     1       3.422  -8.053 -18.316  1.00  0.00     0.150 C
HETATM    2  N1  UNL     1       2.345  -8.880 -17.868  1.00  0.00    -0.381 N
HETATM    3  C2  UNL     1       2.487 -10.276 -17.503  1.00  0.00     0.127 A
HETATM    4  C3  UNL     1       1.188 -10.724 -16.933  1.00  0.00     0.061 A
HETATM    5  C4  UNL     1       0.274  -9.565 -17.172  1.00  0.00    -0.024 A
HETATM    6  C5  UNL     1      -1.085  -9.381 -16.960  1.00  0.00     0.043 A
HETATM    7  C6  UNL     1      -1.753  -8.233 -17.243  1.00  0.00     0.085 A
HETATM    8  N4  UNL     1      -0.956  -7.237 -17.774  1.00  0.00    -0.337 N
ATOM      9  H4  UNL     1      -1.406  -6.352 -18.006  1.00  0.00     0.167 HD
HETATM   10  C18 UNL     1       0.344  -7.334 -18.006  1.00  0.00     0.129 A
HETATM   11  N5  UNL     1       1.043  -6.363 -18.508  1.00  0.00    -0.367 N
ATOM     12  H5  UNL     1       2.039  -6.542 -18.644  1.00  0.00     0.161 HD
HETATM   13  C29 UNL     1       0.997  -8.529 -17.703  1.00  0.00     0.080 A
ENDROOT
BRANCH   7  14
HETATM   14  C7  UNL     1      -3.159  -7.948 -17.045  1.00  0.00     0.165 C
BRANCH  14  15
HETATM   15  O1  UNL     1      -3.997  -8.738 -17.698  1.00  0.00    -0.344 OA
ATOM     16  H1  UNL     1      -4.000  -8.639 -18.644  1.00  0.00     0.219 HD
ENDBRANCH  14  15
BRANCH  14  17
HETATM   17  N2  UNL     1      -3.820  -6.999 -16.299  1.00  0.00    -0.360 N
HETATM   18  C8  UNL     1      -3.614  -5.582 -16.390  1.00  0.00     0.152 C
BRANCH  17  19
HETATM   19  C9  UNL     1      -4.861  -7.416 -15.290  1.00  0.00     0.086 C
HETATM   20  C10 UNL     1      -6.167  -7.432 -15.983  1.00  0.00     0.026 C
HETATM   21  C11 UNL     1      -7.275  -6.632 -15.421  1.00  0.00     0.009 C
HETATM   22  C12 UNL     1      -7.179  -6.516 -13.936  1.00  0.00     0.020 C
HETATM   23  C16 UNL     1      -5.887  -5.756 -13.673  1.00  0.00     0.009 C
HETATM   24  C17 UNL     1      -4.684  -6.542 -14.121  1.00  0.00     0.026 C
BRANCH  22  25
HETATM   25  C13 UNL     1      -8.281  -5.611 -13.371  1.00  0.00     0.120 C
HETATM   26  C14 UNL     1      -7.633  -4.283 -12.957  1.00  0.00     0.046 C
HETATM   27  C15 UNL     1      -8.818  -6.215 -12.111  1.00  0.00     0.046 C
BRANCH  25  28
HETATM   28  N3  UNL     1      -9.290  -5.313 -14.340  1.00  0.00    -0.071 N
ATOM     29  H33 UNL     1      -8.900  -4.809 -15.136  1.00  0.00     0.275 HD
ATOM     30  H32 UNL     1      -9.601  -6.159 -14.820  1.00  0.00     0.275 HD
ATOM     31  H31 UNL     1     -10.080  -4.808 -13.936  1.00  0.00     0.275 HD
ENDBRANCH  25  28
ENDBRANCH  22  25
ENDBRANCH  17  19
ENDBRANCH  14  17
ENDBRANCH   7  14
BRANCH  11  32
HETATM   32  C19 UNL     1       0.577  -5.088 -18.886  1.00  0.00     0.118 C
BRANCH  32  33
HETATM   33  C20 UNL     1       0.652  -3.971 -17.929  1.00  0.00     0.298 C
BRANCH  33  34
HETATM   34  N6  UNL     1       0.983  -4.247 -16.569  1.00  0.00     0.094 N
HETATM   35  C21 UNL     1       2.307  -3.595 -16.363  1.00  0.00     0.298 C
HETATM   36  C22 UNL     1       2.743  -3.917 -14.960  1.00  0.00     0.198 C
HETATM   37  O2  UNL     1       1.955  -3.122 -14.116  1.00  0.00    -0.388 OA
HETATM   38  C23 UNL     1       0.667  -3.582 -14.236  1.00  0.00     0.198 C
HETATM   39  C24 UNL     1       0.111  -3.499 -15.651  1.00  0.00     0.298 C
ENDBRANCH  33  34
ENDBRANCH  32  33
BRANCH  32  40
HETATM   40  C25 UNL     1       1.162  -4.621 -20.220  1.00  0.00    -0.029 C
HETATM   41  C26 UNL     1       2.507  -3.994 -20.096  1.00  0.00     0.016 C
HETATM   42  C27 UNL     1       0.157  -3.671 -20.833  1.00  0.00     0.016 C
HETATM   43  C28 UNL     1       1.262  -5.815 -21.180  1.00  0.00     0.016 C
ENDBRANCH  32  40
ENDBRANCH  11  32
TORSDOF 10
ENDMDL