MODEL 3
REMARK VINA RESULT: -8.194051974      1.811      6.087
REMARK  8 active torsions:
REMARK  status: ('A' for Active; 'I' for Inactive)
REMARK    1  A    between atoms: C2_2  and  C4_4
REMARK    2  A    between atoms: C6_6  and  O1_7
REMARK    3  A    between atoms: O1_7  and  C7_8
REMARK       I    between atoms: C7_8  and  N1_10
REMARK    4  A    between atoms: N1_10  and  C8_12
REMARK    5  A    between atoms: C8_12  and  C9_13
REMARK    6  A    between atoms: C8_12  and  C13_17
REMARK    7  A    between atoms: C9_13  and  C10_14
REMARK       I    between atoms: C13_17  and  N2_19
REMARK    8  A    between atoms: N2_19  and  C14_20
REMARK       I    between atoms: N4_25  and  C17_26
ROOT
HETATM    1  C7  UNL     1      -5.326  -3.323 -12.841  1.00  0.00     0.363 C
HETATM    2  O2  UNL     1      -5.501  -3.285 -11.613  1.00  0.00    -0.238 OA
HETATM    3  N1  UNL     1      -5.634  -4.403 -13.685  1.00  0.00    -0.322 N
ATOM      4  H1  UNL     1      -5.452  -4.291 -14.682  1.00  0.00     0.165 HD
ENDROOT
BRANCH   3   5
HETATM    5  C8  UNL     1      -6.200  -5.683 -13.234  1.00  0.00     0.194 C
BRANCH   5   6
HETATM    6  C9  UNL     1      -7.668  -5.451 -12.927  1.00  0.00     0.040 C
BRANCH   6   7
HETATM    7  C10 UNL     1      -8.239  -4.332 -13.733  1.00  0.00    -0.020 C
HETATM    8  C11 UNL     1      -8.974  -3.353 -12.824  1.00  0.00     0.009 C
HETATM    9  C12 UNL     1      -9.298  -4.892 -14.686  1.00  0.00     0.009 C
ENDBRANCH   6   7
ENDBRANCH   5   6
BRANCH   5  10
HETATM   10  C13 UNL     1      -6.102  -6.556 -14.478  1.00  0.00     0.316 C
HETATM   11  O3  UNL     1      -7.110  -7.229 -14.702  1.00  0.00    -0.255 OA
HETATM   12  N2  UNL     1      -4.933  -6.503 -15.211  1.00  0.00    -0.344 NA
BRANCH  12  13
HETATM   13  C14 UNL     1      -3.822  -6.453 -15.909  1.00  0.00     0.251 C
HETATM   14  N3  UNL     1      -3.273  -5.234 -16.057  1.00  0.00    -0.339 N
HETATM   15  C15 UNL     1      -2.104  -4.886 -16.742  1.00  0.00     0.084 C
ATOM     16  H3  UNL     1      -3.774  -4.465 -15.612  1.00  0.00     0.167 HD
HETATM   17  C16 UNL     1      -1.116  -6.043 -16.746  1.00  0.00     0.180 C
HETATM   18  N4  UNL     1      -1.851  -7.185 -17.241  1.00  0.00    -0.276 N
HETATM   19  C17 UNL     1      -1.427  -7.972 -18.337  1.00  0.00     0.223 C
HETATM   20  C19 UNL     1      -3.069  -7.519 -16.543  1.00  0.00     0.309 C
HETATM   21  C18 UNL     1      -0.152  -7.622 -19.011  1.00  0.00     0.117 C
HETATM   22  O4  UNL     1      -2.126  -8.961 -18.732  1.00  0.00    -0.273 OA
HETATM   23  O5  UNL     1      -3.416  -8.740 -16.528  1.00  0.00    -0.262 OA
ENDBRANCH  12  13
ENDBRANCH   5  10
ENDBRANCH   3   5
BRANCH   1  24
HETATM   24  O1  UNL     1      -4.774  -2.201 -13.427  1.00  0.00    -0.272 OA
BRANCH  24  25
HETATM   25  C6  UNL     1      -3.806  -1.345 -12.814  1.00  0.00     0.272 C
HETATM   26  C5  UNL     1      -4.178   0.002 -13.204  1.00  0.00     0.070 C
HETATM   27  C4  UNL     1      -3.460   1.233 -12.991  1.00  0.00     0.022 C
HETATM   28  C24 UNL     1      -1.962   1.296 -12.885  1.00  0.00     0.000 C
HETATM   29  C23 UNL     1      -1.272   1.517 -14.225  1.00  0.00     0.006 C
HETATM   30  C25 UNL     1      -1.576  -0.103 -12.482  1.00  0.00     0.020 C
HETATM   31  C22 UNL     1      -0.202   0.553 -14.586  1.00  0.00     0.007 C
HETATM   32  C21 UNL     1      -0.532  -0.930 -14.329  1.00  0.00     0.015 C
HETATM   33  C20 UNL     1      -1.873  -0.879 -13.745  1.00  0.00     0.133 C
HETATM   34  C27 UNL     1       0.352  -1.299 -13.126  1.00  0.00     0.007 C
HETATM   35  O6  UNL     1      -2.622  -1.898 -13.411  1.00  0.00    -0.355 OA
HETATM   36  C26 UNL     1      -0.132  -0.257 -12.142  1.00  0.00     0.008 C
BRANCH  27  37
HETATM   37  C2  UNL     1      -3.986   2.042 -11.840  1.00  0.00    -0.088 C
HETATM   38  C1  UNL     1      -3.154   2.713 -11.050  1.00  0.00     0.014 C
HETATM   39  C3  UNL     1      -5.440   2.117 -11.539  1.00  0.00     0.043 C
ENDBRANCH  27  37
ENDBRANCH  24  25
ENDBRANCH   1  24
TORSDOF 8
ENDMDL