MODEL 2
REMARK VINA RESULT: -9.111219749      4.474      7.664
REMARK  17 active torsions:
REMARK  status: ('A' for Active; 'I' for Inactive)
REMARK    1  A    between atoms: C2_2  and  O2_4
REMARK    2  A    between atoms: O2_4  and  C3_5
REMARK    3  A    between atoms: C3_5  and  O3_6
REMARK    4  A    between atoms: C3_5  and  C4_8
REMARK    5  A    between atoms: C4_8  and  C5_9
REMARK    6  A    between atoms: C4_8  and  N10_53
REMARK    7  A    between atoms: C5_9  and  O4_10
REMARK    8  A    between atoms: C5_9  and  N1_12
REMARK    9  A    between atoms: N1_12  and  C6_14
REMARK   10  A    between atoms: C7_20  and  C8_21
REMARK   11  A    between atoms: C9_24  and  C10_25
REMARK   12  A    between atoms: C10_25  and  O6_26
REMARK   13  A    between atoms: C11_29  and  N5_30
REMARK   14  A    between atoms: C12_31  and  N6_32
REMARK   15  A    between atoms: C13_37  and  N8_38
REMARK   16  A    between atoms: C15_45  and  O9_46
REMARK   17  A    between atoms: C16_48  and  O10_49
ROOT
HETATM    1  C8  UNL     1      13.191  19.884  14.291  1.00  0.00     0.180 A
HETATM    2  N4  UNL     1      14.127  18.984  13.982  1.00  0.00    -0.332 N
ATOM      3  H4  UNL     1      14.338  18.148  14.527  1.00  0.00     0.168 HD
HETATM    4  C9  UNL     1      14.761  19.349  12.828  1.00  0.00     0.099 A
HETATM    5  C17 UNL     1      14.153  20.518  12.460  1.00  0.00     0.175 A
HETATM    6  O11 UNL     1      13.228  20.805  13.349  1.00  0.00    -0.301 OA
ENDROOT
BRANCH   4   7
HETATM    7  C10 UNL     1      15.873  18.577  12.177  1.00  0.00     0.239 C
HETATM    8  O7  UNL     1      16.219  19.162  11.014  1.00  0.00    -0.319 OA
HETATM    9  C11 UNL     1      15.521  18.577   9.945  1.00  0.00     0.286 C
HETATM   10  C15 UNL     1      14.637  17.617  10.536  1.00  0.00     0.202 C
HETATM   11  C16 UNL     1      15.329  17.190  11.835  1.00  0.00     0.220 C
BRANCH   7  12
HETATM   12  O6  UNL     1      16.889  18.461  13.141  1.00  0.00    -0.358 OA
ATOM     13  H6  UNL     1      17.712  18.505  12.667  1.00  0.00     0.213 HD
ENDBRANCH   7  12
BRANCH   9  14
HETATM   14  N5  UNL     1      16.386  18.419   8.875  1.00  0.00    -0.101 N
HETATM   15  C12 UNL     1      16.754  19.506   8.157  1.00  0.00     0.699 A
HETATM   16  N7  UNL     1      17.603  19.445   7.108  1.00  0.00    -0.022 N
HETATM   17  C13 UNL     1      18.127  18.294   6.722  1.00  0.00     0.694 A
ATOM     18  H7  UNL     1      17.844  20.300   6.606  1.00  0.00     0.203 HD
HETATM   19  N9  UNL     1      17.783  17.181   7.414  1.00  0.00    -0.140 N
HETATM   20  C14 UNL     1      16.940  17.245   8.455  1.00  0.00     0.357 A
ATOM     21  H9  UNL     1      18.172  16.279   7.138  1.00  0.00     0.189 HD
HETATM   22  O8  UNL     1      16.608  16.250   9.098  1.00  0.00    -0.245 OA
BRANCH  15  23
HETATM   23  N6  UNL     1      16.310  20.701   8.390  1.00  0.00    -0.234 N
ATOM     24  H62 UNL     1      15.306  20.797   8.237  1.00  0.00     0.174 HD
ATOM     25  H61 UNL     1      16.899  21.469   8.713  1.00  0.00     0.174 HD
ENDBRANCH  15  23
BRANCH  17  26
HETATM   26  N8  UNL     1      18.940  18.213   5.732  1.00  0.00    -0.234 N
ATOM     27  H82 UNL     1      19.942  18.116   5.897  1.00  0.00     0.174 HD
ATOM     28  H81 UNL     1      18.619  18.246   4.764  1.00  0.00     0.174 HD
ENDBRANCH  17  26
ENDBRANCH   9  14
BRANCH  10  29
HETATM   29  O9  UNL     1      14.038  16.604   9.893  1.00  0.00    -0.388 OA
ATOM     30  H9  UNL     1      13.101  16.505   9.764  1.00  0.00     0.210 HD
ENDBRANCH  10  29
BRANCH  11  31
HETATM   31  O10 UNL     1      14.407  16.766  12.779  1.00  0.00    -0.387 OA
ATOM     32  H10 UNL     1      13.890  16.039  12.452  1.00  0.00     0.210 HD
ENDBRANCH  11  31
ENDBRANCH   4   7
BRANCH   1  33
HETATM   33  C7  UNL     1      12.254  19.944  15.422  1.00  0.00     0.154 A
HETATM   34  C6  UNL     1      12.255  20.824  16.488  1.00  0.00     0.202 A
HETATM   35  O5  UNL     1      11.229  20.512  17.225  1.00  0.00    -0.202 OA
HETATM   36  N2  UNL     1      10.595  19.521  16.714  1.00  0.00    -0.199 N
HETATM   37  N3  UNL     1      11.181  19.139  15.612  1.00  0.00    -0.273 N
ATOM     38  H2  UNL     1       9.756  19.095  17.109  1.00  0.00     0.216 HD
ATOM     39  H3  UNL     1      10.885  18.374  15.006  1.00  0.00     0.189 HD
BRANCH  34  40
HETATM   40  N1  UNL     1      13.148  21.862  16.773  1.00  0.00    -0.339 N
ATOM     41  H1  UNL     1      13.636  21.776  17.664  1.00  0.00     0.164 HD
BRANCH  40  42
HETATM   42  C5  UNL     1      13.481  23.014  16.018  1.00  0.00     0.253 C
BRANCH  42  43
HETATM   43  C4  UNL     1      14.831  23.056  15.384  1.00  0.00     0.259 C
BRANCH  43  44
HETATM   44  C3  UNL     1      15.945  22.373  16.093  1.00  0.00     0.299 C
BRANCH  44  45
HETATM   45  O2  UNL     1      16.185  21.092  15.548  1.00  0.00    -0.288 OA
BRANCH  45  46
HETATM   46  C2  UNL     1      16.671  20.035  16.279  1.00  0.00     0.257 C
HETATM   47  C1  UNL     1      17.568  20.284  17.460  1.00  0.00     0.126 C
HETATM   48  O1  UNL     1      16.379  18.852  15.977  1.00  0.00    -0.266 OA
ENDBRANCH  45  46
ENDBRANCH  44  45
BRANCH  44  49
HETATM   49  O3  UNL     1      17.135  23.097  15.796  1.00  0.00    -0.368 OA
ATOM     50  H3  UNL     1      17.320  23.567  16.600  1.00  0.00     0.212 HD
ENDBRANCH  44  49
ENDBRANCH  43  44
BRANCH  43  51
HETATM   51  N10 UNL     1      15.128  24.373  14.879  1.00  0.00    -0.141 N
HETATM   52  O12 UNL     1      14.904  25.379  15.568  1.00  0.00    -0.536 OA
HETATM   53  O13 UNL     1      15.667  24.602  13.631  1.00  0.00    -0.536 OA
ENDBRANCH  43  51
ENDBRANCH  42  43
BRANCH  42  54
HETATM   54  O4  UNL     1      12.482  23.449  15.161  1.00  0.00    -0.374 OA
ATOM     55  H4  UNL     1      11.932  24.115  15.556  1.00  0.00     0.212 HD
ENDBRANCH  42  54
ENDBRANCH  40  42
ENDBRANCH  34  40
ENDBRANCH   1  33
TORSDOF 17
ENDMDL