MODEL 2
REMARK VINA RESULT: -6.344686882      3.431      8.396
REMARK  18 active torsions:
REMARK  status: ('A' for Active; 'I' for Inactive)
REMARK    1  A    between atoms: S1_2  and  C2_3
REMARK    2  A    between atoms: C2_3  and  C3_4
REMARK    3  A    between atoms: C3_4  and  C4_5
REMARK    4  A    between atoms: C4_5  and  C5_7
REMARK    5  A    between atoms: C5_7  and  O1_8
REMARK    6  A    between atoms: C5_7  and  N8_39
REMARK    7  A    between atoms: O1_8  and  C6_9
REMARK    8  A    between atoms: C7_12  and  N2_13
REMARK    9  A    between atoms: C8_20  and  C9_21
REMARK   10  A    between atoms: C9_21  and  O2_22
REMARK   11  A    between atoms: C9_21  and  O3_24
REMARK   12  A    between atoms: C10_26  and  N6_27
REMARK       I    between atoms: N6_27  and  C11_29
REMARK   13  A    between atoms: C11_29  and  O5_31
REMARK   14  A    between atoms: O5_31  and  N7_32
REMARK   15  A    between atoms: C12_35  and  O6_36
REMARK   16  A    between atoms: C14_44  and  C15_45
REMARK   17  A    between atoms: C15_45  and  N11_46
REMARK   18  A    between atoms: C15_45  and  N12_50
ROOT
HETATM    1  C6  UNL     1      12.397  20.213  15.415  1.00  0.00     0.120 C
HETATM    2  N1  UNL     1      11.646  20.217  14.362  1.00  0.00    -0.349 N
ATOM      3  H1  UNL     1      12.095  19.990  13.475  1.00  0.00     0.163 HD
HETATM    4  C7  UNL     1      10.203  20.521  14.323  1.00  0.00     0.240 C
HETATM    5  C8  UNL     1      10.037  21.884  14.918  1.00  0.00     0.112 C
HETATM    6  C10 UNL     1       9.937  21.885  16.404  1.00  0.00     0.128 C
HETATM    7  C12 UNL     1      11.335  21.835  16.989  1.00  0.00     0.149 C
HETATM    8  C13 UNL     1      12.013  20.502  16.826  1.00  0.00     0.117 C
ENDROOT
BRANCH   1   9
HETATM    9  O1  UNL     1      13.709  19.889  15.126  1.00  0.00    -0.311 OA
BRANCH   9  10
HETATM   10  C5  UNL     1      14.235  20.132  13.836  1.00  0.00     0.269 C
BRANCH  10  11
HETATM   11  C4  UNL     1      15.421  21.067  14.063  1.00  0.00     0.110 C
HETATM   12  S2  UNL     1      16.147  20.631  15.651  1.00  0.00    -0.088 SA
BRANCH  11  13
HETATM   13  C3  UNL     1      15.047  22.496  14.024  1.00  0.00     0.030 C
BRANCH  13  14
HETATM   14  C2  UNL     1      14.444  22.843  12.693  1.00  0.00     0.075 C
BRANCH  14  15
HETATM   15  S1  UNL     1      12.757  23.421  12.735  1.00  0.00    -0.173 SA
HETATM   16  C1  UNL     1      11.781  22.482  11.507  1.00  0.00     0.089 C
ENDBRANCH  14  15
ENDBRANCH  13  14
ENDBRANCH  11  13
ENDBRANCH  10  11
BRANCH  10  17
HETATM   17  N8  UNL     1      14.666  18.916  13.162  1.00  0.00    -0.231 N
HETATM   18  N9  UNL     1      14.907  17.754  13.745  1.00  0.00    -0.236 N
HETATM   19  N10 UNL     1      15.276  16.854  12.862  1.00  0.00    -0.283 N
ATOM     20  H9  UNL     1      14.818  17.580  14.746  1.00  0.00     0.208 HD
HETATM   21  C14 UNL     1      15.280  17.440  11.652  1.00  0.00     0.127 A
ATOM     22  H10 UNL     1      15.516  15.883  13.059  1.00  0.00     0.188 HD
HETATM   23  C16 UNL     1      14.895  18.738  11.848  1.00  0.00     0.165 A
HETATM   24  N13 UNL     1      14.769  19.703  10.819  1.00  0.00    -0.079 NA
BRANCH  21  25
HETATM   25  C15 UNL     1      15.645  16.747  10.373  1.00  0.00     0.432 C
BRANCH  25  26
HETATM   26  N11 UNL     1      16.736  17.491   9.722  1.00  0.00    -0.045 N
ATOM     27 3H11 UNL     1      17.537  17.624  10.338  1.00  0.00     0.277 HD
ATOM     28 2H11 UNL     1      17.202  16.943   8.998  1.00  0.00     0.277 HD
ATOM     29 1H11 UNL     1      16.367  18.373   9.365  1.00  0.00     0.277 HD
ENDBRANCH  25  26
BRANCH  25  30
HETATM   30  N12 UNL     1      14.553  16.717   9.447  1.00  0.00    -0.045 N
ATOM     31 3H12 UNL     1      14.556  15.857   8.899  1.00  0.00     0.277 HD
ATOM     32 2H12 UNL     1      13.662  16.597   9.930  1.00  0.00     0.277 HD
ATOM     33 1H12 UNL     1      14.540  17.540   8.844  1.00  0.00     0.277 HD
ENDBRANCH  25  30
ENDBRANCH  21  25
ENDBRANCH  10  17
ENDBRANCH   9  10
ENDBRANCH   1   9
BRANCH   4  34
HETATM   34  N2  UNL     1       9.446  19.472  14.940  1.00  0.00    -0.178 N
HETATM   35  N3  UNL     1       8.181  19.128  15.010  1.00  0.00    -0.207 N
HETATM   36  N4  UNL     1       8.455  18.092  15.746  1.00  0.00    -0.211 N
ATOM     37  H3  UNL     1       7.318  19.521  14.634  1.00  0.00     0.211 HD
HETATM   38  N5  UNL     1       9.716  18.395  15.703  1.00  0.00    -0.207 N
ATOM     39  H4  UNL     1       7.906  17.349  16.179  1.00  0.00     0.211 HD
ATOM     40  H5  UNL     1      10.566  17.984  16.090  1.00  0.00     0.211 HD
ENDBRANCH   4  34
BRANCH   7  41
HETATM   41  O6  UNL     1      12.127  22.848  16.455  1.00  0.00    -0.393 OA
ATOM     42  H6  UNL     1      12.896  22.484  16.033  1.00  0.00     0.210 HD
ENDBRANCH   7  41
BRANCH   5  43
HETATM   43  C9  UNL     1       8.963  22.605  14.176  1.00  0.00     0.263 C
BRANCH  43  44
HETATM   44  O2  UNL     1       9.163  23.973  14.036  1.00  0.00    -0.371 OA
ATOM     45  H2  UNL     1       8.370  24.486  13.934  1.00  0.00     0.212 HD
ENDBRANCH  43  44
BRANCH  43  46
HETATM   46  O3  UNL     1       7.679  22.306  14.582  1.00  0.00    -0.371 OA
ATOM     47  H3  UNL     1       7.034  22.296  13.885  1.00  0.00     0.212 HD
ENDBRANCH  43  46
ENDBRANCH   5  43
BRANCH   6  48
HETATM   48  N6  UNL     1       9.359  23.121  16.890  1.00  0.00    -0.328 N
HETATM   49  C11 UNL     1       8.473  23.079  18.025  1.00  0.00     0.382 C
HETATM   50  O4  UNL     1       8.196  21.993  18.595  1.00  0.00    -0.236 OA
ATOM     51  H6  UNL     1       9.576  24.008  16.437  1.00  0.00     0.165 HD
BRANCH  49  52
HETATM   52  O5  UNL     1       7.894  24.234  18.528  1.00  0.00    -0.188 OA
BRANCH  52  53
HETATM   53  N7  UNL     1       7.822  24.467  19.896  1.00  0.00    -0.301 N
ATOM     54  H72 UNL     1       7.029  24.084  20.412  1.00  0.00     0.184 HD
ATOM     55  H71 UNL     1       8.539  25.007  20.379  1.00  0.00     0.184 HD
ENDBRANCH  52  53
ENDBRANCH  49  52
ENDBRANCH   6  48
TORSDOF 18
ENDMDL