MODEL 1
REMARK VINA RESULT: -8.733523212      0.000      0.000
REMARK  21 active torsions:
REMARK  status: ('A' for Active; 'I' for Inactive)
REMARK    1  A    between atoms: C2_2  and  O2_4
REMARK    2  A    between atoms: O2_4  and  C3_5
REMARK    3  A    between atoms: C3_5  and  O3_6
REMARK    4  A    between atoms: C3_5  and  C12_27
REMARK    5  A    between atoms: O3_6  and  C4_7
REMARK    6  A    between atoms: C4_7  and  C6_10
REMARK    7  A    between atoms: C6_10  and  C7_12
REMARK    8  A    between atoms: C7_12  and  O5_13
REMARK    9  A    between atoms: C7_12  and  C8_15
REMARK   10  A    between atoms: C8_15  and  O6_17
REMARK   11  A    between atoms: C8_15  and  C10_19
REMARK   12  A    between atoms: C10_19  and  O7_20
REMARK   13  A    between atoms: C10_19  and  C11_22
REMARK   14  A    between atoms: C11_22  and  O8_23
REMARK   15  A    between atoms: C11_22  and  O9_25
REMARK   16  A    between atoms: C13_32  and  C14_33
REMARK   17  A    between atoms: N5_36  and  O10_37
REMARK   18  A    between atoms: C15_39  and  O11_40
REMARK   19  A    between atoms: C16_42  and  O12_43
REMARK   20  A    between atoms: C17_45  and  O13_46
REMARK   21  A    between atoms: C18_48  and  O14_49
ROOT
HETATM    1  C4  UNL     1      14.402  21.119  13.119  1.00  0.00     0.303 C
HETATM    2  C5  UNL     1      13.647  21.534  11.916  1.00  0.00     0.099 C
HETATM    3  N1  UNL     1      13.040  21.845  10.974  1.00  0.00    -0.194 NA
ENDROOT
BRANCH   1   4
HETATM    4  O3  UNL     1      14.414  19.752  13.306  1.00  0.00    -0.328 OA
BRANCH   4   5
HETATM    5  C3  UNL     1      15.660  19.159  13.268  1.00  0.00     0.328 C
BRANCH   5   6
HETATM    6  O2  UNL     1      15.815  18.197  14.311  1.00  0.00    -0.284 OA
BRANCH   6   7
HETATM    7  C2  UNL     1      15.734  18.547  15.632  1.00  0.00     0.257 C
HETATM    8  C1  UNL     1      16.684  19.507  16.278  1.00  0.00     0.126 C
HETATM    9  O1  UNL     1      14.817  18.034  16.324  1.00  0.00    -0.266 OA
ENDBRANCH   6   7
ENDBRANCH   5   6
BRANCH   5  10
HETATM   10  C12 UNL     1      16.098  18.648  11.976  1.00  0.00     0.134 C
HETATM   11  N2  UNL     1      17.221  19.172  11.446  1.00  0.00    -0.296 N
HETATM   12  N3  UNL     1      17.612  19.324  10.202  1.00  0.00    -0.295 N
ATOM     13  H2  UNL     1      17.888  19.512  12.137  1.00  0.00     0.187 HD
HETATM   14  C13 UNL     1      17.017  18.865   9.101  1.00  0.00     0.115 C
ATOM     15  H3  UNL     1      18.472  19.854  10.061  1.00  0.00     0.187 HD
HETATM   16  C17 UNL     1      16.093  17.830   9.016  1.00  0.00     0.134 C
HETATM   17  C18 UNL     1      15.159  17.469   9.979  1.00  0.00     0.154 C
HETATM   18  C19 UNL     1      15.352  17.671  11.353  1.00  0.00     0.236 C
HETATM   19  O15 UNL     1      14.768  16.851  12.095  1.00  0.00    -0.283 OA
BRANCH  14  20
HETATM   20  C14 UNL     1      17.352  19.492   7.822  1.00  0.00     0.119 A
HETATM   21  N4  UNL     1      16.552  20.274   7.078  1.00  0.00    -0.267 N
HETATM   22  N5  UNL     1      17.192  20.663   5.981  1.00  0.00    -0.136 N
ATOM     23  H4  UNL     1      15.594  20.531   7.320  1.00  0.00     0.190 HD
HETATM   24  C15 UNL     1      18.430  20.152   5.970  1.00  0.00     0.222 A
HETATM   25  C16 UNL     1      18.544  19.402   7.139  1.00  0.00     0.151 A
BRANCH  22  26
HETATM   26  O10 UNL     1      16.681  21.469   4.997  1.00  0.00    -0.266 OA
ATOM     27  H10 UNL     1      17.115  22.221   4.613  1.00  0.00     0.247 HD
ENDBRANCH  22  26
BRANCH  24  28
HETATM   28  O11 UNL     1      19.431  20.297   5.027  1.00  0.00    -0.341 OA
ATOM     29  H11 UNL     1      20.198  20.858   5.043  1.00  0.00     0.219 HD
ENDBRANCH  24  28
BRANCH  25  30
HETATM   30  O12 UNL     1      19.634  18.688   7.565  1.00  0.00    -0.355 OA
ATOM     31  H12 UNL     1      19.808  17.782   7.341  1.00  0.00     0.218 HD
ENDBRANCH  25  30
ENDBRANCH  14  20
BRANCH  16  32
HETATM   32  O13 UNL     1      16.104  17.086   7.856  1.00  0.00    -0.356 OA
ATOM     33  H13 UNL     1      15.353  16.526   7.702  1.00  0.00     0.218 HD
ENDBRANCH  16  32
BRANCH  17  34
HETATM   34  O14 UNL     1      13.981  16.885   9.587  1.00  0.00    -0.355 OA
ATOM     35  H14 UNL     1      13.189  17.058  10.081  1.00  0.00     0.218 HD
ENDBRANCH  17  34
ENDBRANCH   5  10
ENDBRANCH   4   5
ENDBRANCH   1   4
BRANCH   1  36
HETATM   36  C6  UNL     1      14.034  21.935  14.285  1.00  0.00     0.201 C
HETATM   37  O4  UNL     1      14.176  23.168  14.089  1.00  0.00    -0.291 OA
BRANCH  36  38
HETATM   38  C7  UNL     1      13.561  21.499  15.566  1.00  0.00     0.228 C
BRANCH  38  39
HETATM   39  O5  UNL     1      14.375  22.156  16.601  1.00  0.00    -0.385 OA
ATOM     40  H5  UNL     1      14.483  21.546  17.323  1.00  0.00     0.210 HD
ENDBRANCH  38  39
BRANCH  38  41
HETATM   41  C8  UNL     1      12.182  21.599  16.046  1.00  0.00     0.117 C
HETATM   42  C9  UNL     1      11.890  22.765  16.899  1.00  0.00     0.052 C
BRANCH  41  43
HETATM   43  O6  UNL     1      11.469  21.953  14.781  1.00  0.00    -0.384 OA
ATOM     44  H6  UNL     1      11.942  22.734  14.520  1.00  0.00     0.210 HD
ENDBRANCH  41  43
BRANCH  41  45
HETATM   45  C10 UNL     1      11.431  20.350  16.418  1.00  0.00     0.209 C
BRANCH  45  46
HETATM   46  O7  UNL     1      12.424  19.505  17.072  1.00  0.00    -0.388 OA
ATOM     47  H7  UNL     1      12.460  19.825  17.966  1.00  0.00     0.210 HD
ENDBRANCH  45  46
BRANCH  45  48
HETATM   48  C11 UNL     1      10.968  19.477  15.308  1.00  0.00     0.285 C
BRANCH  48  49
HETATM   49  O8  UNL     1      10.049  18.504  15.590  1.00  0.00    -0.369 OA
ATOM     50  H8  UNL     1       9.183  18.773  15.872  1.00  0.00     0.212 HD
ENDBRANCH  48  49
BRANCH  48  51
HETATM   51  O9  UNL     1      12.070  18.789  14.723  1.00  0.00    -0.369 OA
ATOM     52  H9  UNL     1      11.799  18.342  13.931  1.00  0.00     0.212 HD
ENDBRANCH  48  51
ENDBRANCH  45  48
ENDBRANCH  41  45
ENDBRANCH  38  41
ENDBRANCH  36  38
ENDBRANCH   1  36
TORSDOF 21
ENDMDL