MODEL 1
REMARK VINA RESULT: -6.805989948      0.000      0.000
REMARK  18 active torsions:
REMARK  status: ('A' for Active; 'I' for Inactive)
REMARK    1  A    between atoms: C2_2  and  O1_3
REMARK    2  A    between atoms: O1_3  and  C3_4
REMARK    3  A    between atoms: C3_4  and  C4_6
REMARK    4  A    between atoms: C4_6  and  N1_7
REMARK    5  A    between atoms: N1_7  and  N2_8
REMARK    6  A    between atoms: N1_7  and  N6_27
REMARK    7  A    between atoms: N2_8  and  C5_10
REMARK    8  A    between atoms: C6_13  and  N4_14
REMARK    9  A    between atoms: C8_21  and  C9_22
REMARK   10  A    between atoms: C9_22  and  O4_23
REMARK   11  A    between atoms: C9_22  and  O5_25
REMARK   12  A    between atoms: C10_28  and  O6_29
REMARK   13  A    between atoms: O6_29  and  C11_30
REMARK   14  A    between atoms: C15_37  and  O10_38
REMARK   15  A    between atoms: C17_42  and  O12_43
REMARK   16  A    between atoms: C18_45  and  C19_46
REMARK   17  A    between atoms: C19_46  and  O13_47
REMARK   18  A    between atoms: C19_46  and  O14_49
ROOT
HETATM    1  N1  UNL     1      14.448  22.323  13.918  1.00  0.00    -0.214 N
ENDROOT
BRANCH   1   2
HETATM    2  C4  UNL     1      13.825  22.428  12.644  1.00  0.00     0.281 C
BRANCH   2   3
HETATM    3  C3  UNL     1      14.165  21.512  11.572  1.00  0.00     0.280 C
HETATM    4  O2  UNL     1      13.457  21.206  10.589  1.00  0.00    -0.263 OA
BRANCH   3   5
HETATM    5  O1  UNL     1      15.426  20.840  11.567  1.00  0.00    -0.320 OA
BRANCH   5   6
HETATM    6  C2  UNL     1      15.810  19.945  10.586  1.00  0.00     0.174 C
HETATM    7  C1  UNL     1      17.215  19.454  10.620  1.00  0.00     0.034 C
ENDBRANCH   5   6
ENDBRANCH   3   5
ENDBRANCH   2   3
ENDBRANCH   1   2
BRANCH   1   8
HETATM    8  N2  UNL     1      15.781  22.343  14.220  1.00  0.00    -0.267 N
ATOM      9  H2  UNL     1      16.381  22.075  13.440  1.00  0.00     0.190 HD
BRANCH   8  10
HETATM   10  C5  UNL     1      16.485  22.659  15.391  1.00  0.00     0.153 A
HETATM   11  N3  UNL     1      16.666  21.750  16.350  1.00  0.00    -0.175 N
HETATM   12  C6  UNL     1      17.373  22.012  17.481  1.00  0.00     0.680 A
ATOM     13  H3  UNL     1      16.258  20.823  16.229  1.00  0.00     0.186 HD
HETATM   14  N5  UNL     1      17.922  23.233  17.661  1.00  0.00    -0.156 N
HETATM   15  C7  UNL     1      17.769  24.177  16.730  1.00  0.00     0.274 A
ATOM     16  H5  UNL     1      18.453  23.434  18.508  1.00  0.00     0.187 HD
HETATM   17  O3  UNL     1      18.273  25.302  16.890  1.00  0.00    -0.267 OA
HETATM   18  C8  UNL     1      17.051  23.895  15.590  1.00  0.00     0.110 A
BRANCH  12  19
HETATM   19  N4  UNL     1      17.493  21.127  18.307  1.00  0.00    -0.234 N
ATOM     20  H42 UNL     1      17.267  20.157  18.092  1.00  0.00     0.174 HD
ATOM     21  H41 UNL     1      17.829  21.374  19.238  1.00  0.00     0.174 HD
ENDBRANCH  12  19
BRANCH  18  22
HETATM   22  C9  UNL     1      16.919  24.955  14.575  1.00  0.00     0.297 C
BRANCH  22  23
HETATM   23  O4  UNL     1      18.220  25.324  14.196  1.00  0.00    -0.367 OA
ATOM     24  H4  UNL     1      18.337  26.231  14.453  1.00  0.00     0.213 HD
ENDBRANCH  22  23
BRANCH  22  25
HETATM   25  O5  UNL     1      16.398  26.089  15.227  1.00  0.00    -0.367 OA
ATOM     26  H5  UNL     1      15.800  26.509  14.620  1.00  0.00     0.213 HD
ENDBRANCH  22  25
ENDBRANCH  18  22
ENDBRANCH   8  10
ENDBRANCH   1   8
BRANCH   1  27
HETATM   27  N6  UNL     1      13.507  22.151  14.996  1.00  0.00    -0.211 N
HETATM   28  C10 UNL     1      13.272  20.850  15.422  1.00  0.00     0.207 A
HETATM   29  C15 UNL     1      12.349  20.638  16.426  1.00  0.00     0.172 A
HETATM   30  C16 UNL     1      11.713  21.777  16.944  1.00  0.00     0.244 A
HETATM   31  O11 UNL     1      10.857  21.597  17.873  1.00  0.00    -0.282 OA
HETATM   32  C17 UNL     1      11.966  23.042  16.505  1.00  0.00     0.149 A
HETATM   33  C18 UNL     1      12.910  23.209  15.485  1.00  0.00     0.130 A
BRANCH  28  34
HETATM   34  O6  UNL     1      13.949  19.884  14.845  1.00  0.00    -0.284 OA
BRANCH  34  35
HETATM   35  C11 UNL     1      14.882  18.995  14.729  1.00  0.00     0.268 C
HETATM   36  C12 UNL     1      14.971  18.009  13.592  1.00  0.00     0.141 C
HETATM   37  C13 UNL     1      16.386  18.053  14.041  1.00  0.00     0.279 C
HETATM   38  O7  UNL     1      16.384  17.485  15.361  1.00  0.00    -0.285 OA
HETATM   39  O9  UNL     1      16.198  19.398  14.341  1.00  0.00    -0.315 OA
HETATM   40  C14 UNL     1      15.291  18.146  15.914  1.00  0.00     0.325 C
HETATM   41  O8  UNL     1      14.775  18.080  17.053  1.00  0.00    -0.259 OA
ENDBRANCH  34  35
ENDBRANCH  28  34
BRANCH  29  42
HETATM   42  O10 UNL     1      12.012  19.411  16.950  1.00  0.00    -0.354 OA
ATOM     43  H10 UNL     1      11.498  19.273  17.737  1.00  0.00     0.218 HD
ENDBRANCH  29  42
BRANCH  32  44
HETATM   44  O12 UNL     1      11.332  24.162  17.026  1.00  0.00    -0.355 OA
ATOM     45  H12 UNL     1      11.717  24.705  17.705  1.00  0.00     0.218 HD
ENDBRANCH  32  44
BRANCH  33  46
HETATM   46  C19 UNL     1      13.169  24.595  15.059  1.00  0.00     0.310 C
BRANCH  46  47
HETATM   47  O13 UNL     1      11.943  25.199  14.691  1.00  0.00    -0.366 OA
ATOM     48  H13 UNL     1      12.105  26.104  14.449  1.00  0.00     0.213 HD
ENDBRANCH  46  47
BRANCH  46  49
HETATM   49  O14 UNL     1      13.622  25.324  16.199  1.00  0.00    -0.366 OA
ATOM     50  H14 UNL     1      14.138  24.733  16.734  1.00  0.00     0.213 HD
ENDBRANCH  46  49
ENDBRANCH  33  46
ENDBRANCH   1  27
TORSDOF 18
ENDMDL