MODEL 1
REMARK VINA RESULT: -9.741757747      0.000      0.000
REMARK  14 active torsions:
REMARK  status: ('A' for Active; 'I' for Inactive)
REMARK    1  A    between atoms: C2_3  and  C3_4
REMARK    2  A    between atoms: C2_3  and  C11_32
REMARK    3  A    between atoms: C3_4  and  O1_5
REMARK    4  A    between atoms: O1_5  and  C4_6
REMARK    5  A    between atoms: C6_10  and  N4_11
REMARK    6  A    between atoms: C7_18  and  C8_19
REMARK    7  A    between atoms: C8_19  and  C9_24
REMARK    8  A    between atoms: N8_20  and  O2_22
REMARK    9  A    between atoms: C9_24  and  O3_25
REMARK   10  A    between atoms: C9_24  and  C10_27
REMARK   11  A    between atoms: C10_27  and  O4_28
REMARK   12  A    between atoms: C10_27  and  O5_30
REMARK       I    between atoms: C11_32  and  N9_34
REMARK       I    between atoms: N9_34  and  C12_36
REMARK   13  A    between atoms: C12_36  and  C13_38
REMARK   14  A    between atoms: C17_50  and  N14_51
ROOT
HETATM    1  N1  UNL     1      11.935  19.152  15.012  1.00  0.00    -0.196 NA
HETATM    2  C1  UNL     1      12.977  19.386  14.572  1.00  0.00     0.075 C
HETATM    3  C2  UNL     1      14.339  19.713  14.020  1.00  0.00     0.208 C
ENDROOT
BRANCH   3   4
HETATM    4  C3  UNL     1      14.645  18.471  13.164  1.00  0.00     0.197 C
BRANCH   4   5
HETATM    5  O1  UNL     1      14.536  18.731  11.820  1.00  0.00    -0.379 OA
BRANCH   5   6
HETATM    6  C4  UNL     1      15.679  18.333  11.172  1.00  0.00     0.179 C
HETATM    7  C5  UNL     1      16.839  19.150  11.737  1.00  0.00     0.166 C
HETATM    8  N2  UNL     1      17.595  19.496  10.548  1.00  0.00    -0.144 NA
HETATM    9  N3  UNL     1      16.550  19.931   9.704  1.00  0.00    -0.118 NA
HETATM   10  C6  UNL     1      15.731  18.701   9.704  1.00  0.00     0.250 C
BRANCH  10  11
HETATM   11  N4  UNL     1      16.499  17.718   8.981  1.00  0.00    -0.234 N
HETATM   12  N5  UNL     1      16.720  16.474   9.437  1.00  0.00    -0.223 N
HETATM   13  N6  UNL     1      17.463  15.810   8.578  1.00  0.00    -0.226 N
ATOM     14  H5  UNL     1      16.365  16.100  10.318  1.00  0.00     0.210 HD
HETATM   15  N7  UNL     1      17.714  16.625   7.581  1.00  0.00    -0.267 N
ATOM     16  H6  UNL     1      17.783  14.846   8.670  1.00  0.00     0.210 HD
HETATM   17  C7  UNL     1      17.131  17.804   7.809  1.00  0.00     0.168 A
ATOM     18  H7  UNL     1      18.270  16.393   6.758  1.00  0.00     0.190 HD
BRANCH  17  19
HETATM   19  C8  UNL     1      17.188  18.951   6.907  1.00  0.00     0.112 C
HETATM   20  N8  UNL     1      16.191  19.106   6.101  1.00  0.00    -0.267 N
ATOM     21  H8  UNL     1      15.422  18.437   6.122  1.00  0.00     0.194 HD
BRANCH  20  22
HETATM   22  O2  UNL     1      16.147  20.141   5.228  1.00  0.00    -0.290 OA
ATOM     23  H2  UNL     1      15.393  20.717   5.184  1.00  0.00     0.244 HD
ENDBRANCH  20  22
BRANCH  19  24
HETATM   24  C9  UNL     1      18.284  19.917   6.831  1.00  0.00     0.228 C
BRANCH  24  25
HETATM   25  O3  UNL     1      18.870  20.222   8.063  1.00  0.00    -0.384 OA
ATOM     26  H3  UNL     1      18.777  21.130   8.328  1.00  0.00     0.210 HD
ENDBRANCH  24  25
BRANCH  24  27
HETATM   27  C10 UNL     1      19.383  19.592   5.876  1.00  0.00     0.288 C
BRANCH  27  28
HETATM   28  O4  UNL     1      20.118  18.458   6.277  1.00  0.00    -0.368 OA
ATOM     29  H4  UNL     1      21.028  18.508   6.009  1.00  0.00     0.212 HD
ENDBRANCH  27  28
BRANCH  27  30
HETATM   30  O5  UNL     1      20.162  20.649   5.491  1.00  0.00    -0.368 OA
ATOM     31  H5  UNL     1      20.069  20.919   4.585  1.00  0.00     0.212 HD
ENDBRANCH  27  30
ENDBRANCH  24  27
ENDBRANCH  19  24
ENDBRANCH  17  19
ENDBRANCH  10  11
ENDBRANCH   5   6
ENDBRANCH   4   5
ENDBRANCH   3   4
BRANCH   3  32
HETATM   32  C11 UNL     1      15.294  19.861  15.111  1.00  0.00     0.244 C
HETATM   33  O6  UNL     1      15.506  18.807  15.830  1.00  0.00    -0.272 OA
HETATM   34  N9  UNL     1      15.998  20.994  15.461  1.00  0.00    -0.290 N
HETATM   35  C12 UNL     1      15.882  22.279  14.849  1.00  0.00     0.283 C
ATOM     36  H9  UNL     1      16.664  20.905  16.228  1.00  0.00     0.172 HD
HETATM   37  O7  UNL     1      15.062  22.417  13.913  1.00  0.00    -0.265 OA
BRANCH  35  38
HETATM   38  C13 UNL     1      16.692  23.402  15.296  1.00  0.00     0.159 A
HETATM   39  N10 UNL     1      17.451  23.308  16.306  1.00  0.00    -0.289 N
HETATM   40  N11 UNL     1      18.271  24.300  16.832  1.00  0.00    -0.294 N
ATOM     41  H10 UNL     1      17.462  22.408  16.785  1.00  0.00     0.188 HD
HETATM   42  C14 UNL     1      18.403  25.621  16.319  1.00  0.00     0.126 A
ATOM     43  H11 UNL     1      18.824  24.061  17.655  1.00  0.00     0.187 HD
HETATM   44  C15 UNL     1      17.709  26.052  15.220  1.00  0.00     0.109 A
HETATM   45  C17 UNL     1      19.257  26.536  16.921  1.00  0.00     0.131 A
HETATM   46  N12 UNL     1      17.872  27.298  14.777  1.00  0.00    -0.345 N
HETATM   47  S1  UNL     1      16.602  24.934  14.400  1.00  0.00    -0.045 SA
HETATM   48  C16 UNL     1      18.706  28.176  15.374  1.00  0.00     0.183 A
ATOM     49  H12 UNL     1      17.347  27.600  13.957  1.00  0.00     0.167 HD
HETATM   50  N13 UNL     1      19.395  27.801  16.438  1.00  0.00    -0.337 N
ATOM     51  H13 UNL     1      20.029  28.457  16.895  1.00  0.00     0.168 HD
BRANCH  45  52
HETATM   52  N14 UNL     1      19.939  26.217  17.956  1.00  0.00    -0.383 N
ATOM     53 2H14 UNL     1      19.549  25.513  18.581  1.00  0.00     0.157 HD
ATOM     54 1H14 UNL     1      20.842  26.652  18.143  1.00  0.00     0.157 HD
ENDBRANCH  45  52
ENDBRANCH  35  38
ENDBRANCH   3  32
TORSDOF 14
ENDMDL