MODEL 3
REMARK VINA RESULT: -7.544839661      1.567      2.663
REMARK  20 active torsions:
REMARK  status: ('A' for Active; 'I' for Inactive)
REMARK    1  A    between atoms: O1_2  and  C2_3
REMARK    2  A    between atoms: C2_3  and  C3_5
REMARK    3  A    between atoms: C3_5  and  O4_7
REMARK    4  A    between atoms: O4_7  and  C4_8
REMARK    5  A    between atoms: C5_9  and  O5_10
REMARK    6  A    between atoms: O5_10  and  C6_11
REMARK    7  A    between atoms: C6_11  and  C7_12
REMARK    8  A    between atoms: C7_12  and  O6_14
REMARK    9  A    between atoms: C9_16  and  N1_17
REMARK   10  A    between atoms: N1_17  and  C10_19
REMARK   11  A    between atoms: C11_20  and  O7_21
REMARK   12  A    between atoms: C13_25  and  O9_26
REMARK   13  A    between atoms: C14_28  and  N2_29
REMARK   14  A    between atoms: C15_31  and  O10_33
REMARK   15  A    between atoms: N3_35  and  O11_36
REMARK   16  A    between atoms: C17_38  and  N4_39
REMARK   17  A    between atoms: N4_39  and  N5_40
REMARK   18  A    between atoms: C18_43  and  O12_44
REMARK   19  A    between atoms: C18_43  and  C19_46
REMARK   20  A    between atoms: C19_46  and  O14_48
ROOT
HETATM    1  C4  UNL     1      13.938  21.757  14.785  1.00  0.00     0.209 C
HETATM    2  C5  UNL     1      15.033  21.393  13.817  1.00  0.00     0.179 C
HETATM    3  C9  UNL     1      14.542  20.134  13.078  1.00  0.00     0.139 C
HETATM    4  C17 UNL     1      13.475  19.627  14.043  1.00  0.00     0.171 C
HETATM    5  C18 UNL     1      12.766  20.963  14.257  1.00  0.00     0.195 C
ENDROOT
BRANCH   3   6
HETATM    6  N1  UNL     1      15.573  19.226  12.823  1.00  0.00    -0.363 N
ATOM      7  H1  UNL     1      16.220  19.058  13.593  1.00  0.00     0.161 HD
BRANCH   6   8
HETATM    8  C10 UNL     1      15.829  18.516  11.642  1.00  0.00     0.169 A
HETATM    9  C11 UNL     1      15.321  17.275  11.340  1.00  0.00     0.166 A
HETATM   10  C12 UNL     1      15.658  16.627  10.163  1.00  0.00     0.245 A
HETATM   11  O8  UNL     1      15.185  15.498   9.907  1.00  0.00    -0.282 OA
HETATM   12  C13 UNL     1      16.514  17.201   9.248  1.00  0.00     0.166 A
HETATM   13  C14 UNL     1      17.027  18.437   9.528  1.00  0.00     0.174 A
HETATM   14  N3  UNL     1      16.661  19.049  10.726  1.00  0.00    -0.186 N
BRANCH   9  15
HETATM   15  O7  UNL     1      14.454  16.667  12.229  1.00  0.00    -0.354 OA
ATOM     16  H7  UNL     1      13.836  16.021  11.906  1.00  0.00     0.218 HD
ENDBRANCH   9  15
BRANCH  12  17
HETATM   17  O9  UNL     1      16.832  16.500   8.086  1.00  0.00    -0.354 OA
ATOM     18  H9  UNL     1      16.547  16.844   7.247  1.00  0.00     0.218 HD
ENDBRANCH  12  17
BRANCH  13  19
HETATM   19  N2  UNL     1      17.813  19.218   8.669  1.00  0.00    -0.323 N
HETATM   20  C15 UNL     1      17.700  19.691   7.396  1.00  0.00     0.112 C
HETATM   21  C16 UNL     1      16.585  19.701   6.451  1.00  0.00     0.097 C
ATOM     22  H2  UNL     1      18.688  19.504   9.107  1.00  0.00     0.169 HD
BRANCH  20  23
HETATM   23  O10 UNL     1      18.822  20.258   6.942  1.00  0.00    -0.350 OA
ATOM     24  H10 UNL     1      19.570  19.671   6.956  1.00  0.00     0.219 HD
ENDBRANCH  20  23
ENDBRANCH  13  19
BRANCH  14  25
HETATM   25  O11 UNL     1      17.173  20.305  11.020  1.00  0.00    -0.279 OA
ATOM     26  H11 UNL     1      18.003  20.526  10.613  1.00  0.00     0.245 HD
ENDBRANCH  14  25
ENDBRANCH   6   8
ENDBRANCH   3   6
BRANCH   2  27
HETATM   27  O5  UNL     1      16.248  21.197  14.410  1.00  0.00    -0.379 OA
BRANCH  27  28
HETATM   28  C6  UNL     1      16.184  21.584  15.743  1.00  0.00     0.199 C
BRANCH  28  29
HETATM   29  C7  UNL     1      17.117  20.775  16.609  1.00  0.00     0.138 C
HETATM   30  C8  UNL     1      17.527  21.537  17.835  1.00  0.00     0.041 C
BRANCH  29  31
HETATM   31  O6  UNL     1      16.501  19.568  16.908  1.00  0.00    -0.394 OA
ATOM     32  H6  UNL     1      16.052  19.659  17.740  1.00  0.00     0.210 HD
ENDBRANCH  29  31
ENDBRANCH  28  29
ENDBRANCH  27  28
ENDBRANCH   2  27
BRANCH   4  33
HETATM   33  N4  UNL     1      14.055  19.259  15.319  1.00  0.00    -0.138 NA
BRANCH  33  34
HETATM   34  N5  UNL     1      14.370  17.896  15.380  1.00  0.00    -0.348 N
ATOM     35  H52 UNL     1      13.790  17.171  14.959  1.00  0.00     0.172 HD
ATOM     36  H51 UNL     1      15.237  17.725  15.890  1.00  0.00     0.172 HD
ENDBRANCH  33  34
ENDBRANCH   4  33
BRANCH   1  37
HETATM   37  O4  UNL     1      13.574  23.124  14.690  1.00  0.00    -0.302 OA
BRANCH  37  38
HETATM   38  C3  UNL     1      14.253  23.925  13.811  1.00  0.00     0.359 C
HETATM   39  O3  UNL     1      13.929  23.915  12.590  1.00  0.00    -0.253 OA
BRANCH  38  40
HETATM   40  C2  UNL     1      15.352  24.808  14.215  1.00  0.00     0.358 C
HETATM   41  O2  UNL     1      15.111  25.847  14.882  1.00  0.00    -0.253 OA
BRANCH  40  42
HETATM   42  O1  UNL     1      16.666  24.542  13.888  1.00  0.00    -0.318 OA
HETATM   43  C1  UNL     1      17.694  24.897  14.782  1.00  0.00     0.213 C
ENDBRANCH  40  42
ENDBRANCH  38  40
ENDBRANCH  37  38
ENDBRANCH   1  37
BRANCH   5  44
HETATM   44  O12 UNL     1      12.467  21.433  12.969  1.00  0.00    -0.376 OA
ATOM     45  H12 UNL     1      12.167  22.330  13.045  1.00  0.00     0.211 HD
ENDBRANCH   5  44
BRANCH   5  46
HETATM   46  C19 UNL     1      11.612  20.929  15.124  1.00  0.00     0.297 C
HETATM   47  O13 UNL     1      10.469  20.575  14.773  1.00  0.00    -0.262 OA
BRANCH  46  48
HETATM   48  O14 UNL     1      11.777  21.317  16.449  1.00  0.00    -0.324 OA
HETATM   49  C20 UNL     1      10.977  22.279  17.089  1.00  0.00     0.213 C
ENDBRANCH  46  48
ENDBRANCH   5  46
TORSDOF 20
ENDMDL