MODEL 3
REMARK VINA RESULT: -8.425278648      1.937      5.272
REMARK  16 active torsions:
REMARK  status: ('A' for Active; 'I' for Inactive)
REMARK    1  A    between atoms: O1_2  and  C2_3
REMARK    2  A    between atoms: C2_3  and  C3_5
REMARK    3  A    between atoms: C4_6  and  C5_7
REMARK    4  A    between atoms: C5_7  and  O3_9
REMARK    5  A    between atoms: N3_14  and  C7_15
REMARK    6  A    between atoms: C7_15  and  C8_16
REMARK    7  A    between atoms: N7_23  and  C9_24
REMARK    8  A    between atoms: C10_25  and  N8_26
REMARK    9  A    between atoms: N8_26  and  N9_28
REMARK   10  A    between atoms: N9_28  and  C11_30
REMARK   11  A    between atoms: C15_42  and  C16_43
REMARK   12  A    between atoms: C16_43  and  O6_44
REMARK   13  A    between atoms: C16_43  and  O7_46
REMARK   14  A    between atoms: C17_48  and  O8_49
REMARK   15  A    between atoms: C18_51  and  N13_52
REMARK   16  A    between atoms: N13_52  and  O9_54
ROOT
HETATM    1  C9  UNL     1      14.011  20.357  15.223  1.00  0.00     0.136 A
HETATM    2  C10 UNL     1      14.246  21.659  14.877  1.00  0.00     0.152 A
HETATM    3  N12 UNL     1      13.312  22.600  15.018  1.00  0.00    -0.336 N
ATOM      4  H12 UNL     1      13.533  23.558  14.747  1.00  0.00     0.167 HD
HETATM    5  C15 UNL     1      12.117  22.336  15.493  1.00  0.00     0.102 A
HETATM    6  C17 UNL     1      11.777  21.035  15.876  1.00  0.00     0.124 A
HETATM    7  C18 UNL     1      12.736  20.050  15.736  1.00  0.00     0.122 A
ENDROOT
BRANCH   1   8
HETATM    8  N7  UNL     1      14.933  19.288  15.120  1.00  0.00    -0.219 N
HETATM    9  C8  UNL     1      15.162  18.417  14.109  1.00  0.00     0.139 A
HETATM   10  N4  UNL     1      16.141  17.619  14.522  1.00  0.00    -0.270 N
HETATM   11  N5  UNL     1      16.516  17.963  15.735  1.00  0.00    -0.226 N
ATOM     12  H4  UNL     1      16.541  16.854  13.979  1.00  0.00     0.190 HD
HETATM   13  N6  UNL     1      15.790  18.975  16.111  1.00  0.00    -0.219 N
ATOM     14  H5  UNL     1      17.248  17.515  16.285  1.00  0.00     0.210 HD
ATOM     15  H6  UNL     1      15.858  19.453  17.009  1.00  0.00     0.210 HD
BRANCH   9  16
HETATM   16  C7  UNL     1      14.473  18.380  12.807  1.00  0.00     0.210 C
BRANCH  16  17
HETATM   17  N3  UNL     1      15.273  18.805  11.683  1.00  0.00    -0.329 N
HETATM   18  C3  UNL     1      15.568  18.179  10.511  1.00  0.00     0.142 A
HETATM   19  C4  UNL     1      16.327  19.004   9.721  1.00  0.00     0.115 A
HETATM   20  N2  UNL     1      16.476  20.154  10.473  1.00  0.00    -0.347 N
HETATM   21  C6  UNL     1      15.860  20.042  11.627  1.00  0.00     0.184 A
ATOM     22  H2  UNL     1      16.995  20.978  10.171  1.00  0.00     0.167 HD
BRANCH  18  23
HETATM   23  C2  UNL     1      15.116  16.853  10.205  1.00  0.00     0.312 C
HETATM   24  O2  UNL     1      13.932  16.643   9.796  1.00  0.00    -0.258 OA
BRANCH  23  25
HETATM   25  O1  UNL     1      15.859  15.700  10.304  1.00  0.00    -0.321 OA
HETATM   26  C1  UNL     1      16.790  15.273   9.330  1.00  0.00     0.213 C
ENDBRANCH  23  25
ENDBRANCH  18  23
BRANCH  19  27
HETATM   27  C5  UNL     1      16.923  18.847   8.426  1.00  0.00     0.179 C
HETATM   28  N1  UNL     1      16.363  18.529   7.196  1.00  0.00    -0.073 NA
BRANCH  27  29
HETATM   29  O3  UNL     1      18.219  19.027   8.367  1.00  0.00    -0.347 OA
ATOM     30  H3  UNL     1      18.660  18.638   7.621  1.00  0.00     0.219 HD
ENDBRANCH  27  29
ENDBRANCH  19  27
ENDBRANCH  16  17
ENDBRANCH   9  16
ENDBRANCH   1   8
BRANCH   2  31
HETATM   31  N8  UNL     1      15.544  22.022  14.358  1.00  0.00    -0.282 N
ATOM     32  H8  UNL     1      16.023  21.372  13.735  1.00  0.00     0.188 HD
BRANCH  31  33
HETATM   33  N9  UNL     1      16.158  23.217  14.673  1.00  0.00    -0.284 N
ATOM     34  H9  UNL     1      16.020  24.028  14.070  1.00  0.00     0.188 HD
BRANCH  33  35
HETATM   35  C11 UNL     1      16.976  23.336  15.822  1.00  0.00     0.129 A
HETATM   36  C12 UNL     1      17.866  24.380  15.939  1.00  0.00     0.124 A
HETATM   37  C13 UNL     1      18.658  24.498  17.049  1.00  0.00     0.252 A
HETATM   38  O4  UNL     1      19.472  25.454  17.151  1.00  0.00    -0.268 OA
HETATM   39  N10 UNL     1      18.555  23.568  18.042  1.00  0.00    -0.275 N
HETATM   40  C14 UNL     1      17.686  22.550  17.929  1.00  0.00     0.328 A
ATOM     41  H10 UNL     1      19.140  23.647  18.875  1.00  0.00     0.173 HD
HETATM   42  O5  UNL     1      17.593  21.701  18.841  1.00  0.00    -0.247 OA
HETATM   43  N11 UNL     1      16.925  22.451  16.844  1.00  0.00    -0.293 N
ATOM     44  H11 UNL     1      16.272  21.671  16.778  1.00  0.00     0.172 HD
ENDBRANCH  33  35
ENDBRANCH  31  33
ENDBRANCH   2  31
BRANCH   7  45
HETATM   45  N13 UNL     1      12.505  18.837  16.066  1.00  0.00    -0.264 N
ATOM     46  H13 UNL     1      13.040  18.110  15.589  1.00  0.00     0.194 HD
BRANCH  45  47
HETATM   47  O9  UNL     1      11.622  18.447  16.984  1.00  0.00    -0.289 OA
ATOM     48  H9  UNL     1      11.637  17.612  17.438  1.00  0.00     0.244 HD
ENDBRANCH  45  47
ENDBRANCH   7  45
BRANCH   6  49
HETATM   49  O8  UNL     1      10.516  20.867  16.356  1.00  0.00    -0.356 OA
ATOM     50  H8  UNL     1      10.385  20.118  16.927  1.00  0.00     0.218 HD
ENDBRANCH   6  49
BRANCH   5  51
HETATM   51  C16 UNL     1      11.116  23.447  15.623  1.00  0.00     0.308 C
BRANCH  51  52
HETATM   52  O6  UNL     1      10.011  23.140  14.824  1.00  0.00    -0.366 OA
ATOM     53  H6  UNL     1      10.063  23.657  14.029  1.00  0.00     0.213 HD
ENDBRANCH  51  52
BRANCH  51  54
HETATM   54  O7  UNL     1      10.746  23.616  16.947  1.00  0.00    -0.366 OA
ATOM     55  H7  UNL     1      11.432  24.061  17.431  1.00  0.00     0.213 HD
ENDBRANCH  51  54
ENDBRANCH   5  51
TORSDOF 16
ENDMDL