MODEL 2
REMARK VINA RESULT: -8.977889559      1.151      1.763
REMARK  12 active torsions:
REMARK  status: ('A' for Active; 'I' for Inactive)
REMARK    1  A    between atoms: N1_2  and  C3_4
REMARK    2  A    between atoms: C3_4  and  C4_5
REMARK    3  A    between atoms: C6_7  and  N2_8
REMARK    4  A    between atoms: N2_8  and  N3_9
REMARK    5  A    between atoms: N3_9  and  C7_11
REMARK    6  A    between atoms: N5_14  and  N6_15
REMARK    7  A    between atoms: C9_18  and  N7_19
REMARK    8  A    between atoms: N7_19  and  C10_21
REMARK    9  A    between atoms: C10_21  and  C11_22
REMARK   10  A    between atoms: C12_24  and  N8_25
REMARK   11  A    between atoms: C15_37  and  O4_38
REMARK   12  A    between atoms: C18_47  and  C19_48
ROOT
HETATM    1  C7  UNL     1      14.964  19.820  12.009  1.00  0.00     0.172 A
HETATM    2  C8  UNL     1      14.330  21.016  11.647  1.00  0.00     0.190 A
HETATM    3  N4  UNL     1      13.578  21.035  10.452  1.00  0.00    -0.077 NA
HETATM    4  N5  UNL     1      14.448  22.081  12.438  1.00  0.00    -0.076 N
HETATM    5  C9  UNL     1      15.184  21.916  13.622  1.00  0.00     0.703 A
HETATM    6  N12 UNL     1      15.760  20.761  13.938  1.00  0.00    -0.152 N
ATOM      7  H12 UNL     1      16.286  20.690  14.808  1.00  0.00     0.187 HD
HETATM    8  C16 UNL     1      15.666  19.679  13.139  1.00  0.00     0.292 A
HETATM    9  O5  UNL     1      16.227  18.595  13.522  1.00  0.00    -0.265 OA
ENDROOT
BRANCH   5  10
HETATM   10  N7  UNL     1      15.120  22.850  14.425  1.00  0.00    -0.222 N
ATOM     11  H7  UNL     1      15.631  23.581  13.929  1.00  0.00     0.177 HD
BRANCH  10  12
HETATM   12  C10 UNL     1      14.772  23.499  15.587  1.00  0.00     0.175 C
BRANCH  12  13
HETATM   13  C11 UNL     1      13.260  23.747  15.491  1.00  0.00     0.200 C
HETATM   14  O1  UNL     1      12.466  22.985  14.800  1.00  0.00    -0.331 OA
HETATM   15  C12 UNL     1      11.523  22.423  15.744  1.00  0.00     0.401 C
HETATM   16  O3  UNL     1      11.508  23.223  16.826  1.00  0.00    -0.309 OA
HETATM   17  C15 UNL     1      12.787  23.700  16.949  1.00  0.00     0.292 C
BRANCH  15  18
HETATM   18  N8  UNL     1      11.963  21.091  15.989  1.00  0.00    -0.173 N
HETATM   19  N9  UNL     1      13.137  20.471  15.795  1.00  0.00    -0.122 N
HETATM   20  C13 UNL     1      13.072  19.220  16.162  1.00  0.00     0.695 A
ATOM     21  H9  UNL     1      13.970  20.918  15.413  1.00  0.00     0.206 HD
HETATM   22  N10 UNL     1      14.011  18.296  16.090  1.00  0.00    -0.233 N
HETATM   23  N11 UNL     1      11.809  18.959  16.625  1.00  0.00    -0.139 N
ATOM     24 2H10 UNL     1      14.951  18.489  15.745  1.00  0.00     0.174 HD
ATOM     25 1H10 UNL     1      13.960  17.318  16.376  1.00  0.00     0.174 HD
HETATM   26  C14 UNL     1      11.154  20.094  16.522  1.00  0.00     0.360 A
ATOM     27  H11 UNL     1      11.453  18.071  16.976  1.00  0.00     0.189 HD
HETATM   28  O2  UNL     1       9.998  20.430  16.817  1.00  0.00    -0.244 OA
ENDBRANCH  15  18
BRANCH  17  29
HETATM   29  O4  UNL     1      13.531  22.734  17.616  1.00  0.00    -0.368 OA
ATOM     30  H4  UNL     1      14.228  22.444  17.040  1.00  0.00     0.212 HD
ENDBRANCH  17  29
ENDBRANCH  12  13
ENDBRANCH  10  12
ENDBRANCH   5  10
BRANCH   4  31
HETATM   31  N6  UNL     1      13.874  23.311  12.002  1.00  0.00    -0.323 N
ATOM     32  H62 UNL     1      13.221  23.875  12.547  1.00  0.00     0.178 HD
ATOM     33  H61 UNL     1      14.163  23.684  11.097  1.00  0.00     0.178 HD
ENDBRANCH   4  31
BRANCH   1  34
HETATM   34  N3  UNL     1      14.999  18.720  10.974  1.00  0.00    -0.226 N
ATOM     35  H3  UNL     1      14.469  17.849  10.976  1.00  0.00     0.202 HD
BRANCH  34  36
HETATM   36  N2  UNL     1      15.777  19.089  10.155  1.00  0.00    -0.319 NA
BRANCH  36  37
HETATM   37  C6  UNL     1      16.554  19.466   9.113  1.00  0.00     0.207 A
HETATM   38  C5  UNL     1      16.221  19.207   7.771  1.00  0.00     0.069 A
HETATM   39  C4  UNL     1      17.208  19.248   6.819  1.00  0.00     0.024 A
HETATM   40  C18 UNL     1      18.435  19.568   7.229  1.00  0.00     0.167 A
HETATM   41  O7  UNL     1      18.773  19.821   8.481  1.00  0.00    -0.265 OA
HETATM   42  C17 UNL     1      17.817  19.762   9.413  1.00  0.00     0.331 A
HETATM   43  O6  UNL     1      18.203  19.993  10.544  1.00  0.00    -0.256 OA
BRANCH  39  44
HETATM   44  C3  UNL     1      16.944  18.679   5.463  1.00  0.00     0.099 C
BRANCH  44  45
HETATM   45  N1  UNL     1      16.619  19.528   4.419  1.00  0.00    -0.398 N
HETATM   46  C1  UNL     1      16.162  20.839   4.473  1.00  0.00     0.148 C
HETATM   47  C2  UNL     1      15.916  18.792   3.359  1.00  0.00     0.148 C
ENDBRANCH  44  45
ENDBRANCH  39  44
BRANCH  40  48
HETATM   48  C19 UNL     1      19.545  19.615   6.202  1.00  0.00     0.235 C
HETATM   49  O8  UNL     1      19.993  20.891   5.969  1.00  0.00    -0.642 OA
HETATM   50  O9  UNL     1      20.465  18.617   6.291  1.00  0.00    -0.642 OA
ENDBRANCH  40  48
ENDBRANCH  36  37
ENDBRANCH  34  36
ENDBRANCH   1  34
TORSDOF 12
ENDMDL