MODEL 3
REMARK VINA RESULT: -8.195554218      1.503      2.337
REMARK  17 active torsions:
REMARK  status: ('A' for Active; 'I' for Inactive)
REMARK    1  A    between atoms: O1_2  and  C2_3
REMARK    2  A    between atoms: C2_3  and  O2_4
REMARK    3  A    between atoms: C2_3  and  C3_6
REMARK    4  A    between atoms: C6_14  and  C7_15
REMARK       I    between atoms: C7_15  and  N3_17
REMARK    5  A    between atoms: C8_22  and  C9_23
REMARK    6  A    between atoms: C9_23  and  O5_24
REMARK    7  A    between atoms: C9_23  and  C10_26
REMARK    8  A    between atoms: C10_26  and  C11_27
REMARK    9  A    between atoms: C10_26  and  C15_38
REMARK   10  A    between atoms: C14_32  and  N7_33
REMARK   11  A    between atoms: C15_38  and  N9_39
REMARK   12  A    between atoms: C15_38  and  O6_43
REMARK   13  A    between atoms: C15_38  and  C18_47
REMARK   14  A    between atoms: O6_43  and  C16_44
REMARK   15  A    between atoms: C18_47  and  O8_48
REMARK   16  A    between atoms: C18_47  and  O9_50
REMARK   17  A    between atoms: C19_52  and  O10_53
ROOT
HETATM    1  C9  UNL     1      15.001  20.189  12.113  1.00  0.00     0.188 C
ENDROOT
BRANCH   1   2
HETATM    2  C8  UNL     1      15.265  18.909  11.373  1.00  0.00     0.109 A
HETATM    3  N5  UNL     1      14.948  17.666  11.683  1.00  0.00    -0.283 N
HETATM    4  N4  UNL     1      15.428  16.887  10.739  1.00  0.00    -0.231 N
ATOM      5  H5  UNL     1      14.425  17.365  12.505  1.00  0.00     0.188 HD
HETATM    6  N3  UNL     1      16.063  17.609   9.799  1.00  0.00    -0.178 N
ATOM      7  H4  UNL     1      15.331  15.872  10.723  1.00  0.00     0.209 HD
HETATM    8  C7  UNL     1      16.730  17.104   8.665  1.00  0.00     0.316 C
HETATM    9  C19 UNL     1      15.968  18.868  10.182  1.00  0.00     0.193 A
HETATM   10  O4  UNL     1      16.880  15.871   8.475  1.00  0.00    -0.262 OA
BRANCH   8  11
HETATM   11  C6  UNL     1      17.278  18.005   7.648  1.00  0.00     0.206 A
HETATM   12  N2  UNL     1      18.541  18.479   7.605  1.00  0.00    -0.168 N
HETATM   13  C5  UNL     1      18.679  19.262   6.527  1.00  0.00     0.704 A
ATOM     14  H2  UNL     1      19.273  18.273   8.284  1.00  0.00     0.186 HD
HETATM   15  N1  UNL     1      19.624  20.105   5.837  1.00  0.00    -0.156 N
HETATM   16  N11 UNL     1      17.503  19.280   5.892  1.00  0.00    -0.103 N
HETATM   17  C4  UNL     1      18.936  20.647   4.722  1.00  0.00     0.266 A
ATOM     18  H1  UNL     1      20.595  20.276   6.099  1.00  0.00     0.187 HD
HETATM   19  C3  UNL     1      17.583  20.078   4.706  1.00  0.00     0.273 A
HETATM   20  O3  UNL     1      19.418  21.478   3.891  1.00  0.00    -0.270 OA
HETATM   21  N10 UNL     1      16.648  18.509   6.584  1.00  0.00    -0.263 N
ATOM     22  H10 UNL     1      15.674  18.337   6.336  1.00  0.00     0.189 HD
BRANCH  19  23
HETATM   23  C2  UNL     1      16.551  21.189   4.648  1.00  0.00     0.290 C
BRANCH  23  24
HETATM   24  O1  UNL     1      15.516  20.804   3.782  1.00  0.00    -0.364 OA
HETATM   25  C1  UNL     1      16.015  20.748   2.493  1.00  0.00     0.204 C
ENDBRANCH  23  24
BRANCH  23  26
HETATM   26  O2  UNL     1      16.079  21.557   5.882  1.00  0.00    -0.369 OA
ATOM     27  H2  UNL     1      16.745  21.989   6.404  1.00  0.00     0.212 HD
ENDBRANCH  23  26
ENDBRANCH  19  23
ENDBRANCH   8  11
BRANCH   9  28
HETATM   28  O10 UNL     1      16.478  19.995   9.527  1.00  0.00    -0.343 OA
ATOM     29  H10 UNL     1      17.028  20.676   9.897  1.00  0.00     0.219 HD
ENDBRANCH   9  28
ENDBRANCH   1   2
BRANCH   1  30
HETATM   30  O5  UNL     1      16.250  20.722  12.385  1.00  0.00    -0.388 OA
ATOM     31  H5  UNL     1      16.447  21.291  11.650  1.00  0.00     0.210 HD
ENDBRANCH   1  30
BRANCH   1  32
HETATM   32  C10 UNL     1      14.106  19.993  13.278  1.00  0.00     0.140 C
BRANCH  32  33
HETATM   33  C11 UNL     1      13.025  20.958  13.231  1.00  0.00     0.040 A
HETATM   34  C12 UNL     1      12.997  21.813  12.128  1.00  0.00     0.044 A
HETATM   35  C13 UNL     1      11.997  22.758  12.019  1.00  0.00     0.108 A
HETATM   36  N6  UNL     1      11.040  22.873  12.964  1.00  0.00    -0.202 N
HETATM   37  C14 UNL     1      11.069  22.051  14.022  1.00  0.00     0.675 A
ATOM     38  H6  UNL     1      10.305  23.576  12.874  1.00  0.00     0.183 HD
HETATM   39  N8  UNL     1      12.035  21.146  14.114  1.00  0.00    -0.195 N
ATOM     40  H8  UNL     1      12.024  20.538  14.932  1.00  0.00     0.184 HD
BRANCH  37  41
HETATM   41  N7  UNL     1      10.148  22.143  14.953  1.00  0.00    -0.234 N
ATOM     42  H72 UNL     1       9.872  23.052  15.324  1.00  0.00     0.174 HD
ATOM     43  H71 UNL     1       9.700  21.301  15.313  1.00  0.00     0.174 HD
ENDBRANCH  37  41
ENDBRANCH  32  33
BRANCH  32  44
HETATM   44  C15 UNL     1      14.922  19.953  14.576  1.00  0.00     0.292 C
BRANCH  44  45
HETATM   45  N9  UNL     1      16.236  19.529  14.155  1.00  0.00    -0.041 N
ATOM     46  H93 UNL     1      16.890  20.294  13.992  1.00  0.00     0.278 HD
ATOM     47  H92 UNL     1      16.781  19.069  14.885  1.00  0.00     0.278 HD
ATOM     48  H91 UNL     1      16.060  18.947  13.335  1.00  0.00     0.278 HD
ENDBRANCH  44  45
BRANCH  44  49
HETATM   49  O6  UNL     1      14.951  21.216  15.142  1.00  0.00    -0.276 OA
BRANCH  49  50
HETATM   50  C16 UNL     1      15.952  22.125  15.286  1.00  0.00     0.257 C
HETATM   51  C17 UNL     1      16.688  22.317  16.584  1.00  0.00     0.126 C
HETATM   52  O7  UNL     1      16.269  22.822  14.310  1.00  0.00    -0.266 OA
ENDBRANCH  49  50
ENDBRANCH  44  49
BRANCH  44  53
HETATM   53  C18 UNL     1      14.371  18.851  15.456  1.00  0.00     0.319 C
BRANCH  53  54
HETATM   54  O8  UNL     1      13.925  17.749  14.724  1.00  0.00    -0.367 OA
ATOM     55  H8  UNL     1      13.515  17.088  15.270  1.00  0.00     0.212 HD
ENDBRANCH  53  54
BRANCH  53  56
HETATM   56  O9  UNL     1      13.363  19.215  16.315  1.00  0.00    -0.367 OA
ATOM     57  H9  UNL     1      13.602  19.286  17.232  1.00  0.00     0.212 HD
ENDBRANCH  53  56
ENDBRANCH  44  53
ENDBRANCH  32  44
ENDBRANCH   1  32
TORSDOF 17
ENDMDL