MODEL 1
REMARK VINA RESULT: -8.243180890      0.000      0.000
REMARK  21 active torsions:
REMARK  status: ('A' for Active; 'I' for Inactive)
REMARK    1  A    between atoms: O1_2  and  C2_3
REMARK    2  A    between atoms: C3_6  and  C4_7
REMARK    3  A    between atoms: C6_9  and  N2_10
REMARK    4  A    between atoms: N2_10  and  O2_12
REMARK    5  A    between atoms: N4_21  and  O3_22
REMARK    6  A    between atoms: C11_24  and  C12_25
REMARK    7  A    between atoms: C12_25  and  O4_26
REMARK    8  A    between atoms: C12_25  and  N5_28
REMARK    9  A    between atoms: N5_28  and  C13_30
REMARK   10  A    between atoms: C13_30  and  O5_31
REMARK   11  A    between atoms: C13_30  and  C14_33
REMARK   12  A    between atoms: C14_33  and  O6_34
REMARK   13  A    between atoms: C14_33  and  C15_36
REMARK   14  A    between atoms: C15_36  and  O7_37
REMARK   15  A    between atoms: C15_36  and  C16_39
REMARK   16  A    between atoms: C16_39  and  O8_40
REMARK   17  A    between atoms: C16_39  and  O9_42
REMARK   18  A    between atoms: N6_44  and  O10_45
REMARK   19  A    between atoms: C17_47  and  O11_48
REMARK   20  A    between atoms: O11_48  and  C18_49
REMARK   21  A    between atoms: C20_52  and  O13_53
ROOT
HETATM    1  C4  UNL     1      13.679  21.347  15.057  1.00  0.00    -0.030 A
HETATM    2  C5  UNL     1      13.976  20.065  15.501  1.00  0.00     0.043 A
HETATM    3  C6  UNL     1      14.404  19.067  14.656  1.00  0.00     0.085 A
HETATM    4  C7  UNL     1      14.554  19.321  13.309  1.00  0.00     0.107 A
HETATM    5  C8  UNL     1      14.266  20.592  12.823  1.00  0.00     0.042 A
HETATM    6  C9  UNL     1      13.834  21.580  13.709  1.00  0.00     0.027 A
HETATM    7  C10 UNL     1      14.417  20.832  11.490  1.00  0.00     0.141 A
HETATM    8  N3  UNL     1      14.159  22.000  11.010  1.00  0.00    -0.383 N
ATOM      9  H31 UNL     1      14.272  22.179  10.012  1.00  0.00     0.157 HD
ATOM     10  H32 UNL     1      13.840  22.753  11.620  1.00  0.00     0.157 HD
HETATM   11  N4  UNL     1      14.843  19.824  10.673  1.00  0.00    -0.188 N
HETATM   12  C11 UNL     1      15.120  18.609  11.130  1.00  0.00     0.188 A
HETATM   13  N6  UNL     1      14.970  18.373  12.446  1.00  0.00    -0.202 N
ENDROOT
BRANCH  12  14
HETATM   14  C12 UNL     1      15.603  17.512  10.218  1.00  0.00     0.289 C
BRANCH  14  15
HETATM   15  O4  UNL     1      14.502  17.065   9.545  1.00  0.00    -0.370 OA
ATOM     16  H4  UNL     1      14.684  16.163   9.310  1.00  0.00     0.212 HD
ENDBRANCH  14  15
BRANCH  14  17
HETATM   17  N5  UNL     1      16.762  17.869   9.500  1.00  0.00    -0.363 N
ATOM     18  H5  UNL     1      17.464  18.509   9.873  1.00  0.00     0.158 HD
BRANCH  17  19
HETATM   19  C13 UNL     1      16.879  17.274   8.223  1.00  0.00     0.247 C
BRANCH  19  20
HETATM   20  O5  UNL     1      17.506  16.003   8.295  1.00  0.00    -0.374 OA
ATOM     21  H5  UNL     1      17.559  15.591   7.441  1.00  0.00     0.212 HD
ENDBRANCH  19  20
BRANCH  19  22
HETATM   22  C14 UNL     1      17.397  18.068   7.087  1.00  0.00     0.200 C
BRANCH  22  23
HETATM   23  O6  UNL     1      18.172  17.160   6.250  1.00  0.00    -0.388 OA
ATOM     24  H6  UNL     1      18.746  17.696   5.715  1.00  0.00     0.210 HD
ENDBRANCH  22  23
BRANCH  22  25
HETATM   25  C15 UNL     1      18.377  19.153   7.419  1.00  0.00     0.205 C
BRANCH  25  26
HETATM   26  O7  UNL     1      17.821  20.232   8.111  1.00  0.00    -0.388 OA
ATOM     27  H7  UNL     1      17.113  20.665   7.649  1.00  0.00     0.210 HD
ENDBRANCH  25  26
BRANCH  25  28
HETATM   28  C16 UNL     1      19.303  19.542   6.353  1.00  0.00     0.285 C
BRANCH  28  29
HETATM   29  O8  UNL     1      19.738  20.846   6.391  1.00  0.00    -0.369 OA
ATOM     30  H8  UNL     1      19.081  21.490   6.632  1.00  0.00     0.212 HD
ENDBRANCH  28  29
BRANCH  28  31
HETATM   31  O9  UNL     1      20.413  18.664   6.400  1.00  0.00    -0.369 OA
ATOM     32  H9  UNL     1      21.202  19.192   6.422  1.00  0.00     0.212 HD
ENDBRANCH  28  31
ENDBRANCH  25  28
ENDBRANCH  22  25
ENDBRANCH  19  22
ENDBRANCH  17  19
ENDBRANCH  14  17
ENDBRANCH  12  14
BRANCH  11  33
HETATM   33  O3  UNL     1      14.962  20.123   9.345  1.00  0.00    -0.280 OA
ATOM     34  H3  UNL     1      14.167  20.081   8.828  1.00  0.00     0.245 HD
ENDBRANCH  11  33
BRANCH  13  35
HETATM   35  O10 UNL     1      15.254  17.119  12.916  1.00  0.00    -0.281 OA
ATOM     36  H10 UNL     1      15.862  16.570  12.435  1.00  0.00     0.245 HD
ENDBRANCH  13  35
BRANCH   3  37
HETATM   37  N2  UNL     1      14.707  17.751  15.120  1.00  0.00    -0.267 N
ATOM     38  H2  UNL     1      14.131  16.959  14.836  1.00  0.00     0.194 HD
BRANCH  37  39
HETATM   39  O2  UNL     1      15.686  17.578  15.880  1.00  0.00    -0.289 OA
ATOM     40  H2  UNL     1      15.672  16.861  16.501  1.00  0.00     0.244 HD
ENDBRANCH  37  39
ENDBRANCH   3  37
BRANCH   1  41
HETATM   41  C3  UNL     1      13.229  22.350  16.022  1.00  0.00     0.149 C
HETATM   42  N1  UNL     1      12.376  21.811  17.064  1.00  0.00    -0.361 N
HETATM   43  C2  UNL     1      11.156  22.179  16.900  1.00  0.00     0.146 C
ATOM     44  H1  UNL     1      12.702  21.218  17.827  1.00  0.00     0.162 HD
HETATM   45  C20 UNL     1      11.009  23.037  15.701  1.00  0.00     0.224 C
HETATM   46  C17 UNL     1      12.433  23.477  15.444  1.00  0.00     0.195 C
BRANCH  43  47
HETATM   47  O1  UNL     1      10.100  21.813  17.753  1.00  0.00    -0.342 OA
HETATM   48  C1  UNL     1       8.884  21.299  17.223  1.00  0.00     0.211 C
ENDBRANCH  43  47
BRANCH  45  49
HETATM   49  O13 UNL     1      10.198  24.143  15.945  1.00  0.00    -0.385 OA
ATOM     50  H13 UNL     1       9.568  24.283  15.248  1.00  0.00     0.210 HD
ENDBRANCH  45  49
BRANCH  46  51
HETATM   51  O11 UNL     1      12.658  24.624  16.243  1.00  0.00    -0.311 OA
BRANCH  51  52
HETATM   52  C18 UNL     1      13.514  25.655  15.875  1.00  0.00     0.255 C
HETATM   53  C19 UNL     1      14.418  25.555  14.699  1.00  0.00     0.126 C
HETATM   54  O12 UNL     1      13.495  26.690  16.585  1.00  0.00    -0.266 OA
ENDBRANCH  51  52
ENDBRANCH  46  51
ENDBRANCH   1  41
TORSDOF 21
ENDMDL