MODEL 4
REMARK VINA RESULT: -8.866510139      2.320      3.172
REMARK  17 active torsions:
REMARK  status: ('A' for Active; 'I' for Inactive)
REMARK    1  A    between atoms: C2_2  and  C4_4
REMARK    2  A    between atoms: C2_2  and  O2_6
REMARK    3  A    between atoms: O2_6  and  N1_7
REMARK       I    between atoms: N1_7  and  C5_8
REMARK    4  A    between atoms: C5_8  and  C6_10
REMARK    5  A    between atoms: C7_14  and  N4_15
REMARK    6  A    between atoms: C8_20  and  C9_21
REMARK    7  A    between atoms: C9_21  and  N7_22
REMARK    8  A    between atoms: C9_21  and  N8_26
REMARK    9  A    between atoms: C10_30  and  O4_31
REMARK   10  A    between atoms: C11_33  and  O5_34
REMARK   11  A    between atoms: C12_36  and  N9_37
REMARK       I    between atoms: N9_37  and  C13_39
REMARK   12  A    between atoms: C13_39  and  C14_41
REMARK   13  A    between atoms: C14_41  and  O7_42
REMARK   14  A    between atoms: C14_41  and  C15_44
REMARK   15  A    between atoms: C17_48  and  N11_49
REMARK   16  A    between atoms: C18_52  and  O8_53
REMARK   17  A    between atoms: C19_55  and  O9_56
ROOT
HETATM    1  C6  UNL     1     -26.054  13.016 -22.386  1.00  0.00     0.132 C
HETATM    2  N2  UNL     1     -27.180  13.682 -22.501  1.00  0.00    -0.298 N
ATOM      3  H2  UNL     1     -28.087  13.220 -22.572  1.00  0.00     0.182 HD
HETATM    4  N3  UNL     1     -27.039  15.093 -22.520  1.00  0.00    -0.110 NA
HETATM    5  C7  UNL     1     -26.141  15.511 -23.610  1.00  0.00     0.255 C
HETATM    6  C11 UNL     1     -24.818  14.814 -23.495  1.00  0.00     0.189 C
HETATM    7  C12 UNL     1     -24.853  13.896 -22.271  1.00  0.00     0.174 C
ENDROOT
BRANCH   7   8
HETATM    8  N9  UNL     1     -23.641  13.222 -22.002  1.00  0.00    -0.346 N
HETATM    9  C13 UNL     1     -23.224  12.807 -20.714  1.00  0.00     0.254 C
HETATM   10  O6  UNL     1     -23.979  13.110 -19.740  1.00  0.00    -0.270 OA
ATOM     11  H9  UNL     1     -23.023  13.020 -22.788  1.00  0.00     0.163 HD
BRANCH   9  12
HETATM   12  C14 UNL     1     -22.006  12.061 -20.402  1.00  0.00     0.277 C
BRANCH  12  13
HETATM   13  O7  UNL     1     -22.165  10.778 -21.017  1.00  0.00    -0.378 OA
ATOM     14  H7  UNL     1     -21.359  10.618 -21.496  1.00  0.00     0.211 HD
ENDBRANCH  12  13
BRANCH  12  15
HETATM   15  C15 UNL     1     -20.743  12.563 -20.961  1.00  0.00     0.121 C
HETATM   16  N10 UNL     1     -20.202  11.899 -21.998  1.00  0.00    -0.351 N
HETATM   17  C16 UNL     1     -19.343  12.314 -22.970  1.00  0.00     0.121 C
ATOM     18  H10 UNL     1     -20.482  10.920 -22.068  1.00  0.00     0.166 HD
HETATM   19  C17 UNL     1     -18.831  13.587 -23.156  1.00  0.00     0.079 C
HETATM   20  C18 UNL     1     -19.205  14.715 -22.454  1.00  0.00     0.144 C
HETATM   21  C19 UNL     1     -19.706  14.764 -21.179  1.00  0.00     0.177 C
HETATM   22  N12 UNL     1     -20.173  13.695 -20.442  1.00  0.00    -0.322 N
ATOM     23  H12 UNL     1     -20.086  13.753 -19.427  1.00  0.00     0.169 HD
BRANCH  19  24
HETATM   24  N11 UNL     1     -17.932  13.711 -24.060  1.00  0.00    -0.396 N
ATOM     25 2H11 UNL     1     -17.853  12.976 -24.763  1.00  0.00     0.156 HD
ATOM     26 1H11 UNL     1     -17.353  14.550 -24.011  1.00  0.00     0.156 HD
ENDBRANCH  19  24
BRANCH  20  27
HETATM   27  O8  UNL     1     -19.052  15.918 -23.121  1.00  0.00    -0.355 OA
ATOM     28  H8  UNL     1     -18.916  16.680 -22.571  1.00  0.00     0.218 HD
ENDBRANCH  20  27
BRANCH  21  29
HETATM   29  O9  UNL     1     -19.733  16.017 -20.624  1.00  0.00    -0.344 OA
ATOM     30  H9  UNL     1     -20.502  16.530 -20.842  1.00  0.00     0.219 HD
ENDBRANCH  21  29
ENDBRANCH  12  15
ENDBRANCH   9  12
ENDBRANCH   7   8
BRANCH   1  31
HETATM   31  C5  UNL     1     -26.007  11.555 -22.355  1.00  0.00     0.369 C
HETATM   32  N1  UNL     1     -24.885  10.832 -22.724  1.00  0.00    -0.234 NA
HETATM   33  O3  UNL     1     -27.070  11.014 -21.955  1.00  0.00    -0.247 OA
BRANCH  32  34
HETATM   34  O2  UNL     1     -23.883  10.156 -23.051  1.00  0.00    -0.188 OA
BRANCH  34  35
HETATM   35  C2  UNL     1     -23.420  10.218 -24.345  1.00  0.00     0.148 C
HETATM   36  C1  UNL     1     -23.259  11.630 -24.846  1.00  0.00     0.057 C
HETATM   37  C3  UNL     1     -24.318   9.483 -25.329  1.00  0.00     0.057 C
BRANCH  35  38
HETATM   38  C4  UNL     1     -22.043   9.574 -24.358  1.00  0.00     0.272 C
HETATM   39  O1  UNL     1     -21.462   9.399 -23.314  1.00  0.00    -0.303 OA
ENDBRANCH  35  38
ENDBRANCH  34  35
ENDBRANCH  32  34
ENDBRANCH   1  31
BRANCH   6  40
HETATM   40  O5  UNL     1     -23.717  15.650 -23.466  1.00  0.00    -0.390 OA
ATOM     41  H5  UNL     1     -23.351  15.802 -22.603  1.00  0.00     0.210 HD
ENDBRANCH   6  40
BRANCH   5  42
HETATM   42  N4  UNL     1     -26.088  16.920 -23.813  1.00  0.00    -0.230 N
HETATM   43  N5  UNL     1     -25.765  17.811 -22.847  1.00  0.00    -0.236 N
HETATM   44  N6  UNL     1     -25.802  19.041 -23.297  1.00  0.00    -0.282 N
ATOM     45  H5  UNL     1     -25.524  17.557 -21.888  1.00  0.00     0.208 HD
HETATM   46  C8  UNL     1     -26.158  18.990 -24.606  1.00  0.00     0.137 A
ATOM     47  H6  UNL     1     -25.599  19.884 -22.761  1.00  0.00     0.188 HD
HETATM   48  C10 UNL     1     -26.330  17.651 -24.900  1.00  0.00     0.188 A
BRANCH  46  49
HETATM   49  C9  UNL     1     -26.366  20.160 -25.531  1.00  0.00     0.433 C
BRANCH  49  50
HETATM   50  N7  UNL     1     -27.759  20.260 -25.951  1.00  0.00    -0.045 N
ATOM     51  H73 UNL     1     -27.835  20.465 -26.948  1.00  0.00     0.277 HD
ATOM     52  H72 UNL     1     -28.219  19.350 -25.943  1.00  0.00     0.277 HD
ATOM     53  H71 UNL     1     -28.266  20.942 -25.389  1.00  0.00     0.277 HD
ENDBRANCH  49  50
BRANCH  49  54
HETATM   54  N8  UNL     1     -25.466  20.114 -26.647  1.00  0.00    -0.045 N
ATOM     55  H83 UNL     1     -24.619  19.591 -26.423  1.00  0.00     0.277 HD
ATOM     56  H82 UNL     1     -25.826  19.518 -27.392  1.00  0.00     0.277 HD
ATOM     57  H81 UNL     1     -25.247  21.049 -26.990  1.00  0.00     0.277 HD
ENDBRANCH  49  54
ENDBRANCH  46  49
BRANCH  48  58
HETATM   58  O4  UNL     1     -26.700  17.171 -26.158  1.00  0.00    -0.343 OA
ATOM     59  H4  UNL     1     -26.873  17.692 -26.934  1.00  0.00     0.219 HD
ENDBRANCH  48  58
ENDBRANCH   5  42
TORSDOF 17
ENDMDL