MODEL 1
REMARK VINA RESULT: -9.310431265      0.000      0.000
REMARK  15 active torsions:
REMARK  status: ('A' for Active; 'I' for Inactive)
REMARK    1  A    between atoms: N1_2  and  C3_4
REMARK    2  A    between atoms: C3_4  and  C4_5
REMARK    3  A    between atoms: C3_4  and  C5_11
REMARK    4  A    between atoms: N3_7  and  O1_9
REMARK    5  A    between atoms: N6_16  and  C6_17
REMARK    6  A    between atoms: C7_23  and  N9_24
REMARK    7  A    between atoms: C8_27  and  C9_28
REMARK    8  A    between atoms: C11_35  and  C12_36
REMARK    9  A    between atoms: N13_38  and  C14_39
REMARK   10  A    between atoms: C16_42  and  O4_43
REMARK   11  A    between atoms: C16_42  and  C17_45
REMARK   12  A    between atoms: C17_45  and  O5_46
REMARK   13  A    between atoms: C17_45  and  C18_48
REMARK   14  A    between atoms: C18_48  and  O6_49
REMARK   15  A    between atoms: C19_51  and  O7_52
ROOT
HETATM    1  C9  UNL     1     -22.478  10.391 -22.333  1.00  0.00     0.095 A
HETATM    2  N10 UNL     1     -21.467   9.751 -21.669  1.00  0.00    -0.296 N
ATOM      3  H10 UNL     1     -21.062   8.863 -21.965  1.00  0.00     0.187 HD
HETATM    4  N11 UNL     1     -21.086  10.409 -20.616  1.00  0.00    -0.286 N
ATOM      5  H11 UNL     1     -20.351  10.133 -19.965  1.00  0.00     0.188 HD
HETATM    6  C10 UNL     1     -21.827  11.503 -20.545  1.00  0.00     0.145 A
HETATM    7  N12 UNL     1     -21.763  12.521 -19.563  1.00  0.00    -0.080 NA
HETATM    8  C11 UNL     1     -22.720  11.539 -21.603  1.00  0.00     0.066 A
ENDROOT
BRANCH   1   9
HETATM    9  C8  UNL     1     -23.160   9.965 -23.524  1.00  0.00     0.116 A
HETATM   10  C5  UNL     1     -22.778   9.938 -24.814  1.00  0.00     0.099 A
HETATM   11  N4  UNL     1     -23.870   9.466 -25.529  1.00  0.00    -0.285 N
HETATM   12  N5  UNL     1     -24.846   9.225 -24.703  1.00  0.00    -0.234 N
ATOM     13  H4  UNL     1     -23.902   9.331 -26.539  1.00  0.00     0.188 HD
HETATM   14  N6  UNL     1     -24.452   9.516 -23.476  1.00  0.00    -0.216 N
ATOM     15  H5  UNL     1     -25.766   8.870 -24.962  1.00  0.00     0.209 HD
BRANCH  10  16
HETATM   16  C3  UNL     1     -21.484  10.276 -25.411  1.00  0.00     0.341 C
BRANCH  16  17
HETATM   17  N1  UNL     1     -20.329   9.742 -24.723  1.00  0.00     0.097 N
HETATM   18  C1  UNL     1     -19.357  10.813 -24.435  1.00  0.00     0.310 C
HETATM   19  C2  UNL     1     -19.581   8.849 -25.631  1.00  0.00     0.310 C
ENDBRANCH  16  17
BRANCH  16  20
HETATM   20  C4  UNL     1     -21.365   9.900 -26.842  1.00  0.00     0.152 C
HETATM   21  N2  UNL     1     -21.800   8.627 -27.262  1.00  0.00    -0.083 NA
HETATM   22  N3  UNL     1     -20.873  10.703 -27.726  1.00  0.00    -0.257 N
ATOM     23  H3  UNL     1     -20.554  11.628 -27.440  1.00  0.00     0.195 HD
BRANCH  22  24
HETATM   24  O1  UNL     1     -20.774  10.332 -29.038  1.00  0.00    -0.289 OA
ATOM     25  H1  UNL     1     -20.085  10.676 -29.594  1.00  0.00     0.244 HD
ENDBRANCH  22  24
ENDBRANCH  16  20
ENDBRANCH  10  16
BRANCH  14  26
HETATM   26  C6  UNL     1     -25.276   9.369 -22.327  1.00  0.00     0.196 A
HETATM   27  N7  UNL     1     -25.112   8.518 -21.295  1.00  0.00    -0.220 N
HETATM   28  O2  UNL     1     -26.088   8.715 -20.463  1.00  0.00    -0.153 OA
ATOM     29  H7  UNL     1     -24.358   7.840 -21.188  1.00  0.00     0.198 HD
HETATM   30  N8  UNL     1     -26.899   9.642 -20.861  1.00  0.00    -0.222 N
HETATM   31  C7  UNL     1     -26.419  10.081 -22.038  1.00  0.00     0.169 A
ATOM     32  H8  UNL     1     -27.735   9.973 -20.380  1.00  0.00     0.198 HD
BRANCH  31  33
HETATM   33  N9  UNL     1     -26.973  11.005 -22.729  1.00  0.00    -0.381 N
ATOM     34  H92 UNL     1     -26.536  11.907 -22.919  1.00  0.00     0.157 HD
ATOM     35  H91 UNL     1     -27.889  10.996 -23.177  1.00  0.00     0.157 HD
ENDBRANCH  31  33
ENDBRANCH  14  26
ENDBRANCH   1   9
BRANCH   8  36
HETATM   36  C12 UNL     1     -23.716  12.589 -21.854  1.00  0.00     0.082 A
HETATM   37  C13 UNL     1     -23.889  13.381 -22.971  1.00  0.00     0.144 A
HETATM   38  N13 UNL     1     -24.924  14.218 -22.787  1.00  0.00    -0.277 N
HETATM   39  N14 UNL     1     -25.384  13.955 -21.587  1.00  0.00    -0.240 N
HETATM   40  N15 UNL     1     -24.686  12.989 -21.004  1.00  0.00    -0.284 N
ATOM     41  H14 UNL     1     -26.176  14.433 -21.156  1.00  0.00     0.208 HD
ATOM     42  H15 UNL     1     -24.853  12.612 -20.072  1.00  0.00     0.188 HD
BRANCH  38  43
HETATM   43  C14 UNL     1     -25.386  15.192 -23.757  1.00  0.00     0.167 C
HETATM   44  C15 UNL     1     -24.284  16.023 -24.314  1.00  0.00     0.201 C
HETATM   45  O3  UNL     1     -24.563  17.350 -24.017  1.00  0.00    -0.349 OA
HETATM   46  C16 UNL     1     -25.948  17.449 -23.934  1.00  0.00     0.219 C
HETATM   47  C19 UNL     1     -26.293  16.221 -23.127  1.00  0.00     0.210 C
BRANCH  46  48
HETATM   48  O4  UNL     1     -26.583  17.347 -25.163  1.00  0.00    -0.361 OA
ATOM     49  H4  UNL     1     -27.386  16.841 -25.132  1.00  0.00     0.213 HD
ENDBRANCH  46  48
BRANCH  46  50
HETATM   50  C17 UNL     1     -26.366  18.721 -23.246  1.00  0.00     0.206 C
BRANCH  50  51
HETATM   51  O5  UNL     1     -27.665  18.550 -22.770  1.00  0.00    -0.388 OA
ATOM     52  H5  UNL     1     -27.656  17.851 -22.127  1.00  0.00     0.210 HD
ENDBRANCH  50  51
BRANCH  50  53
HETATM   53  C18 UNL     1     -26.404  19.822 -24.283  1.00  0.00     0.201 C
BRANCH  53  54
HETATM   54  O6  UNL     1     -27.672  19.939 -24.858  1.00  0.00    -0.398 OA
ATOM     55  H6  UNL     1     -28.354  19.933 -24.197  1.00  0.00     0.209 HD
ENDBRANCH  53  54
ENDBRANCH  50  53
ENDBRANCH  46  50
BRANCH  47  56
HETATM   56  O7  UNL     1     -27.635  15.863 -23.235  1.00  0.00    -0.388 OA
ATOM     57  H7  UNL     1     -28.181  16.361 -22.640  1.00  0.00     0.210 HD
ENDBRANCH  47  56
ENDBRANCH  38  43
ENDBRANCH   8  36
TORSDOF 15
ENDMDL