MODEL 4
REMARK VINA RESULT: -9.241109126      4.823     11.018
REMARK  12 active torsions:
REMARK  status: ('A' for Active; 'I' for Inactive)
REMARK    1  A    between atoms: N4_10  and  N5_11
REMARK    2  A    between atoms: N7_17  and  C4_18
REMARK    3  A    between atoms: C6_20  and  N8_21
REMARK    4  A    between atoms: C8_23  and  C9_24
REMARK    5  A    between atoms: N10_27  and  C10_28
REMARK    6  A    between atoms: C10_28  and  C11_29
REMARK    7  A    between atoms: C11_29  and  O1_30
REMARK    8  A    between atoms: C11_29  and  C12_32
REMARK    9  A    between atoms: C12_32  and  O2_33
REMARK   10  A    between atoms: C13_35  and  S1_36
REMARK   11  A    between atoms: C14_40  and  O6_41
REMARK   12  A    between atoms: N13_47  and  N14_48
REMARK       I    between atoms: N14_48  and  C15_50
ROOT
HETATM    1  C4  UNL     1     -26.074  17.525 -24.553  1.00  0.00     0.149 A
HETATM    2  C5  UNL     1     -26.625  18.679 -24.079  1.00  0.00     0.106 A
HETATM    3  C6  UNL     1     -26.843  19.507 -25.166  1.00  0.00     0.171 A
HETATM    4  N13 UNL     1     -26.420  18.835 -26.273  1.00  0.00    -0.172 N
HETATM    5  N16 UNL     1     -25.975  17.678 -25.875  1.00  0.00    -0.261 N
ATOM      6  H16 UNL     1     -25.594  16.970 -26.502  1.00  0.00     0.191 HD
ENDROOT
BRANCH   3   7
HETATM    7  N8  UNL     1     -27.395  20.814 -25.197  1.00  0.00    -0.231 N
HETATM    8  C7  UNL     1     -26.684  21.977 -25.127  1.00  0.00     0.153 A
HETATM    9  C8  UNL     1     -27.546  23.030 -25.186  1.00  0.00     0.098 A
HETATM   10  N11 UNL     1     -28.773  22.505 -25.291  1.00  0.00    -0.282 N
HETATM   11  N12 UNL     1     -28.658  21.196 -25.296  1.00  0.00    -0.234 N
ATOM     12  H11 UNL     1     -29.645  23.029 -25.356  1.00  0.00     0.188 HD
ATOM     13  H12 UNL     1     -29.447  20.553 -25.366  1.00  0.00     0.209 HD
BRANCH   9  14
HETATM   14  C9  UNL     1     -27.235  24.473 -25.143  1.00  0.00     0.114 A
HETATM   15  N9  UNL     1     -26.071  25.022 -25.423  1.00  0.00    -0.292 N
HETATM   16  N10 UNL     1     -26.155  26.372 -25.276  1.00  0.00    -0.274 N
ATOM     17  H9  UNL     1     -25.234  24.513 -25.707  1.00  0.00     0.187 HD
HETATM   18  C13 UNL     1     -27.366  26.701 -24.906  1.00  0.00     0.203 A
HETATM   19  C14 UNL     1     -28.088  25.493 -24.809  1.00  0.00     0.139 A
BRANCH  16  20
HETATM   20  C10 UNL     1     -24.939  27.141 -25.428  1.00  0.00     0.184 C
BRANCH  20  21
HETATM   21  C11 UNL     1     -24.631  27.357 -26.900  1.00  0.00     0.161 C
BRANCH  21  22
HETATM   22  O1  UNL     1     -25.890  27.224 -27.570  1.00  0.00    -0.392 OA
ATOM     23  H1  UNL     1     -25.705  27.402 -28.485  1.00  0.00     0.210 HD
ENDBRANCH  21  22
BRANCH  21  24
HETATM   24  C12 UNL     1     -23.701  26.421 -27.548  1.00  0.00     0.197 C
BRANCH  24  25
HETATM   25  O2  UNL     1     -24.265  25.215 -27.908  1.00  0.00    -0.398 OA
ATOM     26  H2  UNL     1     -24.126  24.514 -27.283  1.00  0.00     0.209 HD
ENDBRANCH  24  25
ENDBRANCH  21  24
ENDBRANCH  20  21
ENDBRANCH  16  20
BRANCH  18  27
HETATM   27  S1  UNL     1     -28.077  28.276 -24.697  1.00  0.00     0.159 S
HETATM   28  O3  UNL     1     -27.375  29.112 -23.672  1.00  0.00    -0.590 OA
HETATM   29  O4  UNL     1     -29.552  28.265 -24.570  1.00  0.00    -0.590 OA
HETATM   30  O5  UNL     1     -27.732  29.102 -26.173  1.00  0.00    -0.590 OA
ENDBRANCH  18  27
BRANCH  19  31
HETATM   31  O6  UNL     1     -29.407  25.384 -24.444  1.00  0.00    -0.356 OA
ATOM     32  H6  UNL     1     -30.164  25.394 -25.019  1.00  0.00     0.218 HD
ENDBRANCH  19  31
ENDBRANCH   9  14
ENDBRANCH   3   7
BRANCH   4  33
HETATM   33  N14 UNL     1     -26.446  19.277 -27.595  1.00  0.00    -0.231 N
HETATM   34  C15 UNL     1     -25.417  20.088 -28.102  1.00  0.00     0.348 C
HETATM   35  N15 UNL     1     -25.452  20.528 -29.441  1.00  0.00    -0.038 NA
HETATM   36  O7  UNL     1     -24.462  20.425 -27.373  1.00  0.00    -0.249 OA
ATOM     37  H14 UNL     1     -27.222  19.008 -28.201  1.00  0.00     0.193 HD
ENDBRANCH   4  33
BRANCH   1  38
HETATM   38  N7  UNL     1     -25.664  16.350 -23.824  1.00  0.00    -0.218 N
HETATM   39  C1  UNL     1     -26.461  15.496 -23.126  1.00  0.00     0.155 A
HETATM   40  N1  UNL     1     -27.725  15.614 -23.006  1.00  0.00    -0.382 N
HETATM   41  C2  UNL     1     -25.692  14.500 -22.575  1.00  0.00     0.144 A
ATOM     42  H12 UNL     1     -28.323  14.974 -22.483  1.00  0.00     0.157 HD
ATOM     43  H11 UNL     1     -28.295  16.354 -23.415  1.00  0.00     0.157 HD
HETATM   44  N2  UNL     1     -25.625  13.364 -21.822  1.00  0.00    -0.278 N
HETATM   45  C3  UNL     1     -24.401  14.761 -22.953  1.00  0.00     0.193 A
HETATM   46  N3  UNL     1     -24.358  12.990 -21.768  1.00  0.00    -0.219 N
ATOM     47  H2  UNL     1     -26.412  12.888 -21.380  1.00  0.00     0.189 HD
HETATM   48  N4  UNL     1     -23.584  13.809 -22.441  1.00  0.00    -0.168 N
ATOM     49  H3  UNL     1     -24.024  12.168 -21.267  1.00  0.00     0.210 HD
HETATM   50  N6  UNL     1     -24.441  15.875 -23.697  1.00  0.00    -0.271 N
ATOM     51  H6  UNL     1     -23.618  16.307 -24.117  1.00  0.00     0.189 HD
BRANCH  48  52
HETATM   52  N5  UNL     1     -22.203  13.713 -22.593  1.00  0.00    -0.321 N
ATOM     53  H52 UNL     1     -21.693  13.389 -23.415  1.00  0.00     0.179 HD
ATOM     54  H51 UNL     1     -21.495  13.954 -21.899  1.00  0.00     0.179 HD
ENDBRANCH  48  52
ENDBRANCH   1  38
TORSDOF 12
ENDMDL