MODEL 3
REMARK VINA RESULT: -7.820297866      1.419      1.813
REMARK  13 active torsions:
REMARK  status: ('A' for Active; 'I' for Inactive)
REMARK    1  A    between atoms: N1_2  and  C2_4
REMARK    2  A    between atoms: C3_7  and  C4_8
REMARK    3  A    between atoms: C5_12  and  C6_13
REMARK    4  A    between atoms: C6_13  and  N5_14
REMARK    5  A    between atoms: N5_14  and  C7_16
REMARK    6  A    between atoms: C7_16  and  O1_17
REMARK    7  A    between atoms: C7_16  and  C8_19
REMARK    8  A    between atoms: C8_19  and  N6_20
REMARK    9  A    between atoms: C8_19  and  C9_24
REMARK   10  A    between atoms: C9_24  and  O2_25
REMARK   11  A    between atoms: C13_35  and  C14_36
REMARK   12  A    between atoms: C14_36  and  N10_37
REMARK   13  A    between atoms: C17_47  and  N15_48
ROOT
HETATM    1  C2  UNL     1     -19.001  10.623 -18.809  1.00  0.00     0.673 C
HETATM    2  N2  UNL     1     -19.420  11.381 -19.727  1.00  0.00    -0.193 N
ATOM      3  H2  UNL     1     -19.474  12.342 -19.390  1.00  0.00     0.184 HD
HETATM    4  C3  UNL     1     -19.835  11.321 -21.065  1.00  0.00     0.066 C
HETATM    5  C13 UNL     1     -19.216  10.301 -21.956  1.00  0.00     0.060 C
HETATM    6  C19 UNL     1     -18.211   9.389 -21.312  1.00  0.00     0.033 C
HETATM    7  C20 UNL     1     -18.830   8.476 -20.246  1.00  0.00     0.139 C
HETATM    8  N17 UNL     1     -18.802   9.213 -18.984  1.00  0.00    -0.226 N
ATOM      9  H17 UNL     1     -18.623   8.668 -18.140  1.00  0.00     0.177 HD
ENDROOT
BRANCH   4  10
HETATM   10  C4  UNL     1     -21.218  11.627 -21.371  1.00  0.00     0.145 A
HETATM   11  N3  UNL     1     -22.255  10.798 -21.468  1.00  0.00    -0.271 N
HETATM   12  N4  UNL     1     -23.344  11.469 -21.877  1.00  0.00    -0.174 N
ATOM     13  H3  UNL     1     -22.225   9.799 -21.261  1.00  0.00     0.189 HD
HETATM   14  C5  UNL     1     -24.617  11.187 -22.125  1.00  0.00     0.075 A
HETATM   15  N9  UNL     1     -23.017  12.764 -22.047  1.00  0.00    -0.132 N
HETATM   16  C10 UNL     1     -25.567  12.110 -22.513  1.00  0.00     0.077 A
HETATM   17  C11 UNL     1     -25.181  13.443 -22.669  1.00  0.00     0.134 A
HETATM   18  N7  UNL     1     -26.115  14.443 -23.028  1.00  0.00    -0.081 NA
HETATM   19  N8  UNL     1     -23.885  13.697 -22.419  1.00  0.00    -0.261 N
ATOM     20  H8  UNL     1     -23.552  14.656 -22.520  1.00  0.00     0.190 HD
HETATM   21  C12 UNL     1     -21.709  12.856 -21.740  1.00  0.00     0.313 A
HETATM   22  O3  UNL     1     -21.017  13.890 -21.779  1.00  0.00    -0.262 OA
BRANCH  14  23
HETATM   23  C6  UNL     1     -25.048   9.719 -22.155  1.00  0.00     0.178 C
BRANCH  23  24
HETATM   24  N5  UNL     1     -25.647   9.459 -23.391  1.00  0.00    -0.390 N
ATOM     25  H5  UNL     1     -25.160   9.758 -24.237  1.00  0.00     0.156 HD
BRANCH  24  26
HETATM   26  C7  UNL     1     -26.861   8.821 -23.528  1.00  0.00     0.246 C
BRANCH  26  27
HETATM   27  O1  UNL     1     -27.140   7.990 -22.371  1.00  0.00    -0.375 OA
ATOM     28  H1  UNL     1     -26.978   8.469 -21.566  1.00  0.00     0.212 HD
ENDBRANCH  26  27
BRANCH  26  29
HETATM   29  C8  UNL     1     -27.066   7.935 -24.745  1.00  0.00     0.254 C
BRANCH  29  30
HETATM   30  N6  UNL     1     -27.578   6.621 -24.320  1.00  0.00    -0.069 N
ATOM     31  H63 UNL     1     -27.959   6.645 -23.374  1.00  0.00     0.275 HD
ATOM     32  H62 UNL     1     -28.430   6.362 -24.816  1.00  0.00     0.275 HD
ATOM     33  H61 UNL     1     -26.845   5.919 -24.421  1.00  0.00     0.275 HD
ENDBRANCH  29  30
BRANCH  29  34
HETATM   34  C9  UNL     1     -25.763   7.732 -25.464  1.00  0.00     0.201 C
BRANCH  34  35
HETATM   35  O2  UNL     1     -25.504   8.703 -26.388  1.00  0.00    -0.399 OA
ATOM     36  H2  UNL     1     -24.805   8.469 -26.989  1.00  0.00     0.209 HD
ENDBRANCH  34  35
ENDBRANCH  29  34
ENDBRANCH  26  29
ENDBRANCH  24  26
ENDBRANCH  23  24
ENDBRANCH  14  23
ENDBRANCH   4  10
BRANCH   5  37
HETATM   37  C14 UNL     1     -18.670  10.823 -23.245  1.00  0.00     0.163 C
BRANCH  37  38
HETATM   38  N10 UNL     1     -19.052  10.067 -24.411  1.00  0.00    -0.259 N
HETATM   39  N11 UNL     1     -18.221   9.268 -25.085  1.00  0.00    -0.238 N
HETATM   40  N12 UNL     1     -18.808   8.737 -26.132  1.00  0.00    -0.279 N
ATOM     41  H11 UNL     1     -17.251   9.093 -24.820  1.00  0.00     0.208 HD
HETATM   42  C15 UNL     1     -20.105   9.177 -26.195  1.00  0.00     0.137 A
ATOM     43  H12 UNL     1     -18.369   8.098 -26.794  1.00  0.00     0.189 HD
HETATM   44  C16 UNL     1     -21.152   8.949 -27.043  1.00  0.00     0.163 A
HETATM   45  C18 UNL     1     -20.203  10.023 -25.072  1.00  0.00     0.170 A
HETATM   46  N13 UNL     1     -21.011   8.101 -28.167  1.00  0.00    -0.080 NA
HETATM   47  N14 UNL     1     -22.331   9.542 -26.808  1.00  0.00    -0.177 N
HETATM   48  C17 UNL     1     -22.431  10.343 -25.736  1.00  0.00     0.678 A
ATOM     49  H14 UNL     1     -23.128   9.390 -27.427  1.00  0.00     0.185 HD
HETATM   50  N16 UNL     1     -21.425  10.591 -24.892  1.00  0.00    -0.173 N
ATOM     51  H16 UNL     1     -21.576  11.218 -24.100  1.00  0.00     0.186 HD
BRANCH  48  52
HETATM   52  N15 UNL     1     -23.571  10.881 -25.485  1.00  0.00    -0.234 N
ATOM     53 2H15 UNL     1     -24.409  10.380 -25.781  1.00  0.00     0.174 HD
ATOM     54 1H15 UNL     1     -23.583  11.790 -25.025  1.00  0.00     0.174 HD
ENDBRANCH  48  52
ENDBRANCH  37  38
ENDBRANCH   5  37
BRANCH   1  55
HETATM   55  N1  UNL     1     -18.689  11.172 -17.532  1.00  0.00    -0.231 N
HETATM   56  C1  UNL     1     -18.237  12.522 -17.396  1.00  0.00     0.165 C
ATOM     57  H1  UNL     1     -18.789  10.592 -16.699  1.00  0.00     0.177 HD
ENDBRANCH   1  55
TORSDOF 13
ENDMDL