MODEL 4
REMARK VINA RESULT: -8.774720851      2.818      5.057
REMARK  17 active torsions:
REMARK  status: ('A' for Active; 'I' for Inactive)
REMARK    1  A    between atoms: N1_1  and  C1_4
REMARK    2  A    between atoms: C2_7  and  C3_8
REMARK    3  A    between atoms: C3_8  and  S1_9
REMARK    4  A    between atoms: S1_9  and  C4_10
REMARK    5  A    between atoms: N6_16  and  C5_17
REMARK    6  A    between atoms: C7_19  and  O1_20
REMARK    7  A    between atoms: C8_22  and  O2_23
REMARK    8  A    between atoms: C9_25  and  O3_26
REMARK    9  A    between atoms: O3_26  and  C10_27
REMARK   10  A    between atoms: C10_27  and  C11_28
REMARK   11  A    between atoms: C13_40  and  N12_41
REMARK   12  A    between atoms: N12_41  and  C14_42
REMARK   13  A    between atoms: C15_46  and  O4_47
REMARK   14  A    between atoms: C15_46  and  O5_49
REMARK   15  A    between atoms: C16_51  and  O6_52
REMARK   16  A    between atoms: C16_51  and  C17_54
REMARK   17  A    between atoms: C17_54  and  O7_55
ROOT
HETATM    1  C3  UNL     1     -22.076  13.703 -22.287  1.00  0.00     0.159 C
ENDROOT
BRANCH   1   2
HETATM    2  C2  UNL     1     -23.383  14.156 -22.752  1.00  0.00     0.110 A
HETATM    3  N2  UNL     1     -24.482  13.486 -22.348  1.00  0.00    -0.180 N
HETATM    4  C1  UNL     1     -25.718  13.866 -22.725  1.00  0.00     0.680 A
ATOM      5  H2  UNL     1     -24.374  12.673 -21.742  1.00  0.00     0.185 HD
HETATM    6  N14 UNL     1     -25.904  14.915 -23.509  1.00  0.00    -0.149 N
HETATM    7  C13 UNL     1     -24.820  15.642 -23.958  1.00  0.00     0.273 A
ATOM      8  H14 UNL     1     -26.848  15.187 -23.783  1.00  0.00     0.188 HD
HETATM    9  N11 UNL     1     -23.590  15.207 -23.541  1.00  0.00    -0.304 N
ATOM     10  H11 UNL     1     -22.772  15.727 -23.859  1.00  0.00     0.171 HD
BRANCH   4  11
HETATM   11  N1  UNL     1     -26.765  13.193 -22.315  1.00  0.00    -0.234 N
ATOM     12  H12 UNL     1     -26.714  12.175 -22.288  1.00  0.00     0.174 HD
ATOM     13  H11 UNL     1     -27.610  13.688 -22.029  1.00  0.00     0.174 HD
ENDBRANCH   4  11
BRANCH   7  14
HETATM   14  N12 UNL     1     -24.991  16.572 -24.660  1.00  0.00    -0.354 NA
BRANCH  14  15
HETATM   15  C14 UNL     1     -25.196  17.602 -25.464  1.00  0.00     0.519 C
HETATM   16  N13 UNL     1     -26.611  17.952 -25.678  1.00  0.00     0.045 N
HETATM   17  C15 UNL     1     -26.593  19.276 -26.220  1.00  0.00     0.400 C
ATOM     18 2H13 UNL     1     -27.119  17.279 -26.251  1.00  0.00     0.290 HD
ATOM     19 1H13 UNL     1     -27.189  17.858 -24.843  1.00  0.00     0.290 HD
HETATM   20  C16 UNL     1     -25.346  19.846 -25.625  1.00  0.00     0.275 C
HETATM   21  O8  UNL     1     -24.596  18.830 -25.106  1.00  0.00    -0.287 OA
BRANCH  17  22
HETATM   22  O4  UNL     1     -27.741  19.967 -25.773  1.00  0.00    -0.339 OA
ATOM     23  H4  UNL     1     -28.461  19.778 -26.362  1.00  0.00     0.215 HD
ENDBRANCH  17  22
BRANCH  17  24
HETATM   24  O5  UNL     1     -26.586  19.326 -27.598  1.00  0.00    -0.339 OA
ATOM     25  H5  UNL     1     -26.160  20.094 -27.960  1.00  0.00     0.215 HD
ENDBRANCH  17  24
BRANCH  20  26
HETATM   26  O6  UNL     1     -25.701  20.709 -24.567  1.00  0.00    -0.358 OA
ATOM     27  H6  UNL     1     -25.423  21.591 -24.786  1.00  0.00     0.213 HD
ENDBRANCH  20  26
BRANCH  20  28
HETATM   28  C17 UNL     1     -24.575  20.699 -26.615  1.00  0.00     0.240 C
BRANCH  28  29
HETATM   29  O7  UNL     1     -25.344  21.718 -27.154  1.00  0.00    -0.395 OA
ATOM     30  H7  UNL     1     -25.644  22.337 -26.498  1.00  0.00     0.209 HD
ENDBRANCH  28  29
ENDBRANCH  20  28
ENDBRANCH  14  15
ENDBRANCH   7  14
ENDBRANCH   1   2
BRANCH   1  31
HETATM   31  S1  UNL     1     -22.037  12.206 -21.327  1.00  0.00    -0.083 SA
BRANCH  31  32
HETATM   32  C4  UNL     1     -20.705  11.124 -21.760  1.00  0.00     0.180 A
HETATM   33  N3  UNL     1     -19.542  10.895 -21.083  1.00  0.00    -0.266 N
HETATM   34  N4  UNL     1     -18.820  10.004 -21.710  1.00  0.00    -0.224 N
ATOM     35  H3  UNL     1     -19.275  11.355 -20.212  1.00  0.00     0.190 HD
HETATM   36  N5  UNL     1     -19.485   9.639 -22.791  1.00  0.00     0.003 NA
ATOM     37  H4  UNL     1     -17.908   9.653 -21.417  1.00  0.00     0.205 HD
HETATM   38  N6  UNL     1     -20.648  10.322 -22.832  1.00  0.00    -0.215 N
BRANCH  38  39
HETATM   39  C5  UNL     1     -21.603  10.135 -23.870  1.00  0.00     0.062 A
HETATM   40  C6  UNL     1     -21.219  10.253 -25.183  1.00  0.00     0.071 A
HETATM   41  C7  UNL     1     -22.125  10.067 -26.205  1.00  0.00     0.103 A
HETATM   42  C8  UNL     1     -23.447   9.759 -25.963  1.00  0.00     0.132 A
HETATM   43  C9  UNL     1     -23.851   9.636 -24.631  1.00  0.00     0.107 A
HETATM   44  C12 UNL     1     -22.931   9.825 -23.624  1.00  0.00     0.071 A
BRANCH  41  45
HETATM   45  O1  UNL     1     -21.689  10.198 -27.512  1.00  0.00    -0.358 OA
ATOM     46  H1  UNL     1     -21.950   9.541 -28.148  1.00  0.00     0.217 HD
ENDBRANCH  41  45
BRANCH  42  47
HETATM   47  O2  UNL     1     -24.347   9.576 -27.005  1.00  0.00    -0.356 OA
ATOM     48  H2  UNL     1     -24.454  10.231 -27.685  1.00  0.00     0.218 HD
ENDBRANCH  42  47
BRANCH  43  49
HETATM   49  O3  UNL     1     -25.157   9.330 -24.377  1.00  0.00    -0.341 OA
BRANCH  49  50
HETATM   50  C10 UNL     1     -26.053   9.983 -23.541  1.00  0.00     0.255 C
BRANCH  50  51
HETATM   51  C11 UNL     1     -26.264   9.382 -22.224  1.00  0.00     0.137 A
HETATM   52  N7  UNL     1     -27.414   8.815 -21.812  1.00  0.00    -0.270 N
HETATM   53  N8  UNL     1     -27.258   8.385 -20.583  1.00  0.00    -0.227 N
ATOM     54  H7  UNL     1     -28.267   8.733 -22.365  1.00  0.00     0.190 HD
HETATM   55  N9  UNL     1     -26.018   8.661 -20.178  1.00  0.00    -0.227 N
ATOM     56  H8  UNL     1     -27.971   7.914 -20.027  1.00  0.00     0.210 HD
HETATM   57  N10 UNL     1     -25.435   9.260 -21.173  1.00  0.00    -0.270 N
ATOM     58  H9  UNL     1     -25.610   8.446 -19.268  1.00  0.00     0.210 HD
ATOM     59  H10 UNL     1     -24.470   9.593 -21.158  1.00  0.00     0.190 HD
ENDBRANCH  50  51
ENDBRANCH  49  50
ENDBRANCH  43  49
ENDBRANCH  38  39
ENDBRANCH  31  32
ENDBRANCH   1  31
TORSDOF 17
ENDMDL