MODEL 1
REMARK VINA RESULT: -8.169075790      0.000      0.000
REMARK  17 active torsions:
REMARK  status: ('A' for Active; 'I' for Inactive)
REMARK    1  A    between atoms: O1_2  and  C2_3
REMARK    2  A    between atoms: C3_5  and  C4_6
REMARK    3  A    between atoms: C5_8  and  C6_9
REMARK    4  A    between atoms: C6_9  and  O4_10
REMARK    5  A    between atoms: C6_9  and  N1_12
REMARK    6  A    between atoms: N1_12  and  O5_13
REMARK    7  A    between atoms: N1_12  and  C7_17
REMARK    8  A    between atoms: O5_13  and  S1_14
REMARK    9  A    between atoms: C7_17  and  O8_18
REMARK   10  A    between atoms: C7_17  and  O9_20
REMARK   11  A    between atoms: C8_22  and  O10_23
REMARK   12  A    between atoms: C10_27  and  O12_28
REMARK   13  A    between atoms: C11_30  and  O13_31
REMARK   14  A    between atoms: C11_30  and  C12_33
REMARK   15  A    between atoms: C14_38  and  C15_39
REMARK   16  A    between atoms: C15_39  and  O17_40
REMARK   17  A    between atoms: C15_39  and  O18_42
ROOT
HETATM    1  C4  UNL     1     -24.122  15.111 -23.090  1.00  0.00     0.123 A
HETATM    2  O3  UNL     1     -24.937  14.175 -22.729  1.00  0.00    -0.306 OA
HETATM    3  C5  UNL     1     -24.634  13.104 -22.020  1.00  0.00     0.136 A
HETATM    4  C8  UNL     1     -23.325  12.989 -21.638  1.00  0.00     0.153 A
HETATM    5  C9  UNL     1     -22.390  13.949 -21.985  1.00  0.00     0.243 A
HETATM    6  O11 UNL     1     -21.171  13.864 -21.643  1.00  0.00    -0.282 OA
HETATM    7  C10 UNL     1     -22.793  15.051 -22.736  1.00  0.00     0.152 A
ENDROOT
BRANCH   1   8
HETATM    8  C3  UNL     1     -24.640  16.259 -23.897  1.00  0.00     0.237 C
HETATM    9  O2  UNL     1     -25.298  15.784 -25.052  1.00  0.00    -0.339 OA
HETATM   10  C2  UNL     1     -25.282  16.807 -25.974  1.00  0.00     0.314 C
HETATM   11  C16 UNL     1     -26.013  17.970 -25.412  1.00  0.00     0.100 A
HETATM   12  C13 UNL     1     -26.213  18.092 -24.061  1.00  0.00     0.131 A
HETATM   13  N2  UNL     1     -26.591  19.065 -25.970  1.00  0.00    -0.333 N
HETATM   14  C11 UNL     1     -25.689  17.030 -23.134  1.00  0.00     0.230 C
HETATM   15  O16 UNL     1     -26.876  19.207 -23.861  1.00  0.00    -0.291 OA
HETATM   16  C14 UNL     1     -27.117  19.811 -24.987  1.00  0.00     0.180 A
ATOM     17  H2  UNL     1     -26.621  19.282 -26.966  1.00  0.00     0.168 HD
BRANCH  10  18
HETATM   18  O1  UNL     1     -25.819  16.450 -27.202  1.00  0.00    -0.360 OA
HETATM   19  C1  UNL     1     -27.197  16.275 -27.153  1.00  0.00     0.205 C
ENDBRANCH  10  18
BRANCH  14  20
HETATM   20  O13 UNL     1     -25.194  17.701 -22.032  1.00  0.00    -0.370 OA
ATOM     21  H13 UNL     1     -25.862  18.145 -21.523  1.00  0.00     0.212 HD
ENDBRANCH  14  20
BRANCH  14  22
HETATM   22  C12 UNL     1     -26.868  16.176 -22.822  1.00  0.00     0.219 C
HETATM   23  O14 UNL     1     -27.747  15.954 -23.672  1.00  0.00    -0.645 OA
HETATM   24  O15 UNL     1     -26.982  15.625 -21.567  1.00  0.00    -0.645 OA
ENDBRANCH  14  22
BRANCH  16  25
HETATM   25  C15 UNL     1     -27.857  21.114 -25.133  1.00  0.00     0.331 C
BRANCH  25  26
HETATM   26  O17 UNL     1     -29.218  20.891 -25.309  1.00  0.00    -0.364 OA
ATOM     27  H17 UNL     1     -29.658  20.818 -24.470  1.00  0.00     0.213 HD
ENDBRANCH  25  26
BRANCH  25  28
HETATM   28  O18 UNL     1     -27.303  21.879 -26.140  1.00  0.00    -0.364 OA
ATOM     29  H18 UNL     1     -27.960  22.440 -26.535  1.00  0.00     0.213 HD
ENDBRANCH  25  28
ENDBRANCH  16  25
ENDBRANCH   1   8
BRANCH   7  30
HETATM   30  O12 UNL     1     -21.857  16.022 -23.086  1.00  0.00    -0.355 OA
ATOM     31  H12 UNL     1     -21.834  16.892 -22.704  1.00  0.00     0.218 HD
ENDBRANCH   7  30
BRANCH   3  32
HETATM   32  C6  UNL     1     -25.691  12.127 -21.697  1.00  0.00     0.285 C
BRANCH  32  33
HETATM   33  O4  UNL     1     -26.893  12.434 -22.355  1.00  0.00    -0.372 OA
ATOM     34  H4  UNL     1     -27.621  12.482 -21.745  1.00  0.00     0.212 HD
ENDBRANCH  32  33
BRANCH  32  35
HETATM   35  N1  UNL     1     -25.318  10.772 -22.072  1.00  0.00    -0.090 NA
BRANCH  35  36
HETATM   36  O5  UNL     1     -25.509  10.686 -23.402  1.00  0.00    -0.156 OA
BRANCH  36  37
HETATM   37  S1  UNL     1     -24.093  10.355 -24.257  1.00  0.00     0.418 S
HETATM   38  O6  UNL     1     -23.588  11.516 -25.068  1.00  0.00    -0.178 OA
HETATM   39  O7  UNL     1     -22.855   9.760 -23.247  1.00  0.00    -0.178 OA
ENDBRANCH  36  37
ENDBRANCH  35  36
BRANCH  35  40
HETATM   40  C7  UNL     1     -26.147   9.856 -21.327  1.00  0.00     0.367 C
BRANCH  40  41
HETATM   41  O8  UNL     1     -27.340   9.573 -21.936  1.00  0.00    -0.357 OA
ATOM     42  H8  UNL     1     -27.248   9.215 -22.811  1.00  0.00     0.214 HD
ENDBRANCH  40  41
BRANCH  40  43
HETATM   43  O9  UNL     1     -25.505   8.675 -21.013  1.00  0.00    -0.357 OA
ATOM     44  H9  UNL     1     -25.426   8.084 -21.753  1.00  0.00     0.214 HD
ENDBRANCH  40  43
ENDBRANCH  35  40
ENDBRANCH  32  35
ENDBRANCH   3  32
BRANCH   4  45
HETATM   45  O10 UNL     1     -22.899  11.919 -20.896  1.00  0.00    -0.355 OA
ATOM     46  H10 UNL     1     -22.546  12.039 -20.023  1.00  0.00     0.218 HD
ENDBRANCH   4  45
TORSDOF 17
ENDMDL