MODEL 3
REMARK VINA RESULT: -7.802321085      3.670      5.523
REMARK  17 active torsions:
REMARK  status: ('A' for Active; 'I' for Inactive)
REMARK    1  A    between atoms: N1_1  and  N2_4
REMARK    2  A    between atoms: N2_4  and  C1_6
REMARK    3  A    between atoms: C3_12  and  C4_13
REMARK    4  A    between atoms: C7_21  and  C8_22
REMARK    5  A    between atoms: C8_22  and  N8_23
REMARK    6  A    between atoms: C10_26  and  O2_27
REMARK    7  A    between atoms: C11_29  and  C12_30
REMARK    8  A    between atoms: C12_30  and  O3_31
REMARK    9  A    between atoms: C12_30  and  O4_33
REMARK   10  A    between atoms: O4_33  and  C13_34
REMARK   11  A    between atoms: C13_34  and  N9_35
REMARK   12  A    between atoms: C16_42  and  C17_43
REMARK   13  A    between atoms: C17_43  and  O6_44
REMARK   14  A    between atoms: C17_43  and  O7_46
REMARK   15  A    between atoms: C18_48  and  C19_49
REMARK   16  A    between atoms: C19_49  and  O8_50
REMARK   17  A    between atoms: C19_49  and  O9_52
ROOT
HETATM    1  N8  UNL     1     -22.173  11.985 -22.769  1.00  0.00    -0.362 N
ATOM      2  H8  UNL     1     -22.014  10.978 -22.824  1.00  0.00     0.165 HD
HETATM    3  C9  UNL     1     -23.385  12.356 -22.725  1.00  0.00     0.082 A
HETATM    4  C10 UNL     1     -23.754  13.697 -22.649  1.00  0.00     0.128 A
HETATM    5  C11 UNL     1     -25.090  13.985 -22.603  1.00  0.00     0.143 A
HETATM    6  O5  UNL     1     -25.977  13.044 -22.629  1.00  0.00    -0.305 OA
HETATM    7  C16 UNL     1     -25.684  11.757 -22.700  1.00  0.00     0.121 A
HETATM    8  C18 UNL     1     -24.397  11.353 -22.752  1.00  0.00     0.060 A
ENDROOT
BRANCH   1   9
HETATM    9  C8  UNL     1     -21.027  12.789 -22.751  1.00  0.00     0.101 C
BRANCH   9  10
HETATM   10  C7  UNL     1     -20.327  12.739 -21.408  1.00  0.00    -0.001 A
HETATM   11  C6  UNL     1     -20.018  11.579 -20.740  1.00  0.00     0.066 A
HETATM   12  C5  UNL     1     -19.390  11.920 -19.560  1.00  0.00     0.169 A
HETATM   13  N7  UNL     1     -18.882  11.169 -18.541  1.00  0.00    -0.066 N
HETATM   14  N12 UNL     1     -19.326  13.266 -19.526  1.00  0.00    -0.138 N
HETATM   15  C2  UNL     1     -18.318  11.805 -17.501  1.00  0.00     0.721 A
HETATM   16  N6  UNL     1     -18.828   9.862 -18.351  1.00  0.00    -0.258 N
HETATM   17  N3  UNL     1     -18.258  13.145 -17.475  1.00  0.00    -0.018 N
HETATM   18  N4  UNL     1     -17.911  10.812 -16.657  1.00  0.00    -0.168 N
HETATM   19  C1  UNL     1     -18.751  13.902 -18.468  1.00  0.00     0.719 A
ATOM     20  H3  UNL     1     -17.824  13.603 -16.674  1.00  0.00     0.203 HD
HETATM   21  C3  UNL     1     -18.225   9.615 -17.179  1.00  0.00     0.202 A
ATOM     22  H4  UNL     1     -17.440  10.958 -15.764  1.00  0.00     0.186 HD
ATOM     23  H6  UNL     1     -19.188   9.155 -18.993  1.00  0.00     0.190 HD
HETATM   24  C20 UNL     1     -19.889  13.776 -20.638  1.00  0.00     0.130 A
BRANCH  19  25
HETATM   25  N2  UNL     1     -18.703  15.179 -18.458  1.00  0.00    -0.138 N
ATOM     26  H2  UNL     1     -18.213  15.686 -19.196  1.00  0.00     0.205 HD
BRANCH  25  27
HETATM   27  N1  UNL     1     -19.335  15.872 -17.416  1.00  0.00    -0.331 N
ATOM     28  H12 UNL     1     -18.789  16.490 -16.817  1.00  0.00     0.177 HD
ATOM     29  H11 UNL     1     -20.338  15.743 -17.278  1.00  0.00     0.177 HD
ENDBRANCH  25  27
ENDBRANCH  19  25
BRANCH  21  30
HETATM   30  C4  UNL     1     -17.966   8.288 -16.597  1.00  0.00     0.300 C
HETATM   31  N5  UNL     1     -18.769   7.748 -15.576  1.00  0.00    -0.054 NA
HETATM   32  O1  UNL     1     -17.001   7.614 -17.020  1.00  0.00    -0.268 OA
ENDBRANCH  21  30
ENDBRANCH   9  10
ENDBRANCH   1   9
BRANCH   4  33
HETATM   33  O2  UNL     1     -22.767  14.651 -22.629  1.00  0.00    -0.356 OA
ATOM     34  H2  UNL     1     -22.629  15.148 -21.832  1.00  0.00     0.218 HD
ENDBRANCH   4  33
BRANCH   8  35
HETATM   35  C19 UNL     1     -23.932   9.965 -22.859  1.00  0.00     0.293 C
BRANCH  35  36
HETATM   36  O8  UNL     1     -23.136   9.515 -21.817  1.00  0.00    -0.367 OA
ATOM     37  H8  UNL     1     -22.206   9.685 -21.905  1.00  0.00     0.213 HD
ENDBRANCH  35  36
BRANCH  35  38
HETATM   38  O9  UNL     1     -23.390   9.646 -24.114  1.00  0.00    -0.367 OA
ATOM     39  H9  UNL     1     -22.798  10.306 -24.452  1.00  0.00     0.213 HD
ENDBRANCH  35  38
ENDBRANCH   8  35
BRANCH   5  40
HETATM   40  C12 UNL     1     -25.557  15.389 -22.514  1.00  0.00     0.325 C
BRANCH  40  41
HETATM   41  O3  UNL     1     -26.579  15.452 -21.569  1.00  0.00    -0.365 OA
ATOM     42  H3  UNL     1     -26.229  15.840 -20.775  1.00  0.00     0.213 HD
ENDBRANCH  40  41
BRANCH  40  43
HETATM   43  O4  UNL     1     -26.077  15.851 -23.696  1.00  0.00    -0.308 OA
BRANCH  43  44
HETATM   44  C13 UNL     1     -25.322  16.740 -24.404  1.00  0.00     0.252 C
BRANCH  44  45
HETATM   45  N9  UNL     1     -25.967  17.978 -24.733  1.00  0.00    -0.239 N
HETATM   46  C14 UNL     1     -26.102  19.090 -24.007  1.00  0.00     0.134 A
HETATM   47  C15 UNL     1     -26.810  20.045 -24.735  1.00  0.00     0.123 A
HETATM   48  N10 UNL     1     -27.078  19.446 -25.906  1.00  0.00    -0.293 N
HETATM   49  N11 UNL     1     -26.578  18.222 -25.903  1.00  0.00    -0.015 NA
ATOM     50  H10 UNL     1     -27.589  19.870 -26.681  1.00  0.00     0.183 HD
ENDBRANCH  44  45
ENDBRANCH  43  44
ENDBRANCH  40  43
ENDBRANCH   5  40
BRANCH   7  51
HETATM   51  C17 UNL     1     -26.849  10.851 -22.705  1.00  0.00     0.313 C
BRANCH  51  52
HETATM   52  O6  UNL     1     -28.023  11.694 -22.621  1.00  0.00    -0.365 OA
ATOM     53  H6  UNL     1     -28.508  11.561 -23.427  1.00  0.00     0.213 HD
ENDBRANCH  51  52
BRANCH  51  54
HETATM   54  O7  UNL     1     -26.997  10.072 -21.561  1.00  0.00    -0.365 OA
ATOM     55  H7  UNL     1     -27.600   9.343 -21.645  1.00  0.00     0.213 HD
ENDBRANCH  51  54
ENDBRANCH   7  51
TORSDOF 17
ENDMDL