MODEL 2
REMARK VINA RESULT: -11.320118761      1.192      2.119
REMARK  13 active torsions:
REMARK  status: ('A' for Active; 'I' for Inactive)
REMARK       I    between atoms: C2_2  and  N1_4
REMARK    1  A    between atoms: N1_4  and  C3_6
REMARK    2  A    between atoms: N5_15  and  C5_16
REMARK    3  A    between atoms: C6_18  and  C7_19
REMARK    4  A    between atoms: C7_19  and  O3_20
REMARK    5  A    between atoms: C8_23  and  C9_24
REMARK    6  A    between atoms: C8_23  and  O6_27
REMARK    7  A    between atoms: C9_24  and  O5_25
REMARK    8  A    between atoms: O6_27  and  C10_28
REMARK    9  A    between atoms: N7_34  and  O8_35
REMARK   10  A    between atoms: C14_38  and  N8_39
REMARK   11  A    between atoms: N8_39  and  C16_41
REMARK   12  A    between atoms: C17_44  and  N10_45
REMARK   13  A    between atoms: C18_52  and  O11_53
ROOT
HETATM    1  C5  UNL     1     -24.694  11.863 -22.803  1.00  0.00     0.300 C
HETATM    2  O2  UNL     1     -23.480  11.935 -22.156  1.00  0.00    -0.329 OA
HETATM    3  C6  UNL     1     -23.367  13.065 -21.400  1.00  0.00     0.289 C
HETATM    4  O4  UNL     1     -24.444  13.893 -21.320  1.00  0.00    -0.318 OA
HETATM    5  C8  UNL     1     -24.963  14.309 -22.549  1.00  0.00     0.227 C
HETATM    6  C18 UNL     1     -24.837  13.185 -23.577  1.00  0.00     0.234 C
ENDROOT
BRANCH   5   7
HETATM    7  C9  UNL     1     -26.463  14.489 -22.313  1.00  0.00     0.236 C
BRANCH   7   8
HETATM    8  O5  UNL     1     -26.719  15.283 -21.219  1.00  0.00    -0.395 OA
ATOM      9  H5  UNL     1     -27.541  15.057 -20.801  1.00  0.00     0.209 HD
ENDBRANCH   7   8
ENDBRANCH   5   7
BRANCH   5  10
HETATM   10  O6  UNL     1     -24.332  15.488 -22.910  1.00  0.00    -0.273 OA
BRANCH  10  11
HETATM   11  C10 UNL     1     -24.792  16.487 -23.734  1.00  0.00     0.276 A
HETATM   12  N6  UNL     1     -24.976  17.786 -23.435  1.00  0.00    -0.292 N
HETATM   13  C11 UNL     1     -25.442  18.441 -24.522  1.00  0.00     0.203 A
ATOM     14  H6  UNL     1     -24.791  18.211 -22.527  1.00  0.00     0.172 HD
HETATM   15  C12 UNL     1     -25.531  17.461 -25.501  1.00  0.00     0.225 A
HETATM   16  O10 UNL     1     -25.805  19.745 -24.819  1.00  0.00    -0.304 OA
HETATM   17  O7  UNL     1     -25.136  16.325 -24.983  1.00  0.00    -0.250 OA
HETATM   18  N7  UNL     1     -25.999  17.861 -26.774  1.00  0.00    -0.231 N
HETATM   19  C13 UNL     1     -25.851  19.264 -27.129  1.00  0.00     0.212 C
HETATM   20  C14 UNL     1     -26.525  20.046 -26.002  1.00  0.00     0.254 C
BRANCH  18  21
HETATM   21  O8  UNL     1     -26.553  16.970 -27.606  1.00  0.00    -0.285 OA
ATOM     22  H8  UNL     1     -27.494  16.843 -27.620  1.00  0.00     0.245 HD
ENDBRANCH  18  21
BRANCH  20  23
HETATM   23  N8  UNL     1     -26.587  21.449 -26.251  1.00  0.00    -0.321 N
HETATM   24  C15 UNL     1     -25.602  22.079 -27.100  1.00  0.00     0.156 C
BRANCH  23  25
HETATM   25  C16 UNL     1     -27.599  22.268 -25.688  1.00  0.00     0.262 A
HETATM   26  N9  UNL     1     -27.512  23.604 -25.458  1.00  0.00    -0.152 N
HETATM   27  C17 UNL     1     -28.663  24.034 -24.916  1.00  0.00     0.699 A
ATOM     28  H9  UNL     1     -26.701  24.188 -25.663  1.00  0.00     0.188 HD
HETATM   29  N11 UNL     1     -29.447  22.948 -24.820  1.00  0.00    -0.088 N
HETATM   30  O9  UNL     1     -28.800  21.913 -25.282  1.00  0.00    -0.185 OA
ATOM     31  H11 UNL     1     -30.396  22.935 -24.446  1.00  0.00     0.214 HD
BRANCH  27  32
HETATM   32  N10 UNL     1     -28.995  25.203 -24.553  1.00  0.00    -0.233 N
ATOM     33 2H10 UNL     1     -28.341  25.938 -24.284  1.00  0.00     0.174 HD
ATOM     34 1H10 UNL     1     -29.925  25.614 -24.463  1.00  0.00     0.174 HD
ENDBRANCH  27  32
ENDBRANCH  23  25
ENDBRANCH  20  23
ENDBRANCH  10  11
ENDBRANCH   5  10
BRANCH   6  35
HETATM   35  O11 UNL     1     -23.778  13.342 -24.437  1.00  0.00    -0.385 OA
ATOM     36  H11 UNL     1     -23.854  14.169 -24.897  1.00  0.00     0.210 HD
ENDBRANCH   6  35
BRANCH   3  37
HETATM   37  C7  UNL     1     -22.972  12.725 -19.956  1.00  0.00     0.225 C
BRANCH  37  38
HETATM   38  O3  UNL     1     -24.146  12.319 -19.321  1.00  0.00    -0.396 OA
ATOM     39  H3  UNL     1     -23.927  12.226 -18.401  1.00  0.00     0.209 HD
ENDBRANCH  37  38
ENDBRANCH   3  37
BRANCH   1  40
HETATM   40  N5  UNL     1     -24.746  10.723 -23.694  1.00  0.00    -0.076 N
HETATM   41  C3  UNL     1     -24.968   9.442 -23.371  1.00  0.00     0.719 A
HETATM   42  N2  UNL     1     -24.929   8.710 -24.500  1.00  0.00    -0.020 N
HETATM   43  C4  UNL     1     -24.684   9.518 -25.528  1.00  0.00     0.705 A
ATOM     44  H2  UNL     1     -25.065   7.701 -24.558  1.00  0.00     0.203 HD
HETATM   45  N3  UNL     1     -24.574   9.186 -26.766  1.00  0.00    -0.233 N
HETATM   46  N4  UNL     1     -24.574  10.752 -25.016  1.00  0.00    -0.113 N
ATOM     47  H32 UNL     1     -24.657   8.247 -27.154  1.00  0.00     0.174 HD
ATOM     48  H31 UNL     1     -24.387   9.805 -27.554  1.00  0.00     0.174 HD
ATOM     49  H4  UNL     1     -24.385  11.594 -25.561  1.00  0.00     0.206 HD
BRANCH  41  50
HETATM   50  N1  UNL     1     -25.206   8.936 -22.043  1.00  0.00    -0.158 N
HETATM   51  C2  UNL     1     -26.493   9.067 -21.476  1.00  0.00     0.232 C
HETATM   52  C1  UNL     1     -26.739   8.552 -20.115  1.00  0.00     0.118 C
HETATM   53  O1  UNL     1     -27.417   9.607 -22.107  1.00  0.00    -0.273 OA
ATOM     54  H1  UNL     1     -24.454   8.489 -21.519  1.00  0.00     0.187 HD
ENDBRANCH  41  50
ENDBRANCH   1  40
TORSDOF 13
ENDMDL