MODEL 5
REMARK VINA RESULT: -9.116789891      2.091      3.665
REMARK  17 active torsions:
REMARK  status: ('A' for Active; 'I' for Inactive)
REMARK    1  A    between atoms: C2_2  and  O2_4
REMARK    2  A    between atoms: O2_4  and  C3_5
REMARK    3  A    between atoms: C3_5  and  N1_6
REMARK    4  A    between atoms: C4_7  and  C5_8
REMARK    5  A    between atoms: C5_8  and  O3_9
REMARK    6  A    between atoms: C5_8  and  N2_11
REMARK    7  A    between atoms: N2_11  and  C6_13
REMARK    8  A    between atoms: C6_13  and  C7_14
REMARK    9  A    between atoms: C6_13  and  C8_17
REMARK   10  A    between atoms: C7_14  and  O4_15
REMARK   11  A    between atoms: C8_17  and  O5_18
REMARK   12  A    between atoms: C8_17  and  O6_20
REMARK   13  A    between atoms: C9_24  and  C10_25
REMARK   14  A    between atoms: C12_27  and  N4_28
REMARK   15  A    between atoms: N4_28  and  C13_30
REMARK   16  A    between atoms: C14_33  and  N6_34
REMARK   17  A    between atoms: C16_44  and  O7_45
ROOT
HETATM    1  N1  UNL     1     -26.104  17.714 -24.061  1.00  0.00    -0.259 N
HETATM    2  C4  UNL     1     -25.720  17.008 -25.112  1.00  0.00     0.166 A
HETATM    3  N3  UNL     1     -24.978  15.853 -24.870  1.00  0.00    -0.324 N
ATOM      4  H3  UNL     1     -24.668  15.288 -25.661  1.00  0.00     0.169 HD
HETATM    5  C9  UNL     1     -24.664  15.470 -23.647  1.00  0.00     0.121 A
HETATM    6  N11 UNL     1     -25.073  16.218 -22.606  1.00  0.00    -0.293 N
ATOM      7  H11 UNL     1     -24.829  15.920 -21.661  1.00  0.00     0.172 HD
HETATM    8  C20 UNL     1     -25.786  17.333 -22.763  1.00  0.00     0.331 A
HETATM    9  O9  UNL     1     -26.177  18.044 -21.790  1.00  0.00    -0.246 OA
ENDROOT
BRANCH   5  10
HETATM   10  C10 UNL     1     -23.885  14.260 -23.359  1.00  0.00     0.014 C
HETATM   11  C11 UNL     1     -24.196  13.131 -24.086  1.00  0.00     0.048 C
HETATM   12  C12 UNL     1     -23.552  11.904 -24.157  1.00  0.00     0.085 C
HETATM   13  C16 UNL     1     -22.279  11.624 -23.721  1.00  0.00     0.121 C
HETATM   14  C17 UNL     1     -21.585  12.207 -22.670  1.00  0.00     0.131 C
HETATM   15  N10 UNL     1     -20.453  11.496 -22.215  1.00  0.00    -0.095 NA
HETATM   16  C18 UNL     1     -21.909  13.402 -22.054  1.00  0.00     0.199 C
HETATM   17  O8  UNL     1     -21.198  13.668 -21.057  1.00  0.00    -0.286 OA
HETATM   18  C19 UNL     1     -22.902  14.325 -22.395  1.00  0.00     0.072 C
BRANCH  12  19
HETATM   19  N4  UNL     1     -24.249  10.823 -24.723  1.00  0.00    -0.189 N
ATOM     20  H4  UNL     1     -24.063  10.582 -25.696  1.00  0.00     0.184 HD
BRANCH  19  21
HETATM   21  C13 UNL     1     -25.204  10.047 -24.001  1.00  0.00     0.684 A
HETATM   22  N5  UNL     1     -25.573  10.419 -22.844  1.00  0.00    -0.179 N
HETATM   23  C14 UNL     1     -26.537   9.709 -22.022  1.00  0.00     0.403 A
ATOM     24  H5  UNL     1     -25.166  11.275 -22.468  1.00  0.00     0.181 HD
HETATM   25  N7  UNL     1     -27.043   8.517 -22.659  1.00  0.00    -0.320 N
HETATM   26  C15 UNL     1     -26.702   8.102 -23.819  1.00  0.00     0.205 A
ATOM     27  H7  UNL     1     -27.726   7.962 -22.144  1.00  0.00     0.166 HD
HETATM   28  N8  UNL     1     -27.265   6.917 -24.342  1.00  0.00    -0.063 NA
HETATM   29  N9  UNL     1     -25.760   8.856 -24.548  1.00  0.00    -0.164 N
ATOM     30  H9  UNL     1     -25.474   8.545 -25.476  1.00  0.00     0.187 HD
BRANCH  23  31
HETATM   31  N6  UNL     1     -25.863   9.316 -20.803  1.00  0.00    -0.040 N
ATOM     32  H63 UNL     1     -26.234   8.452 -20.406  1.00  0.00     0.279 HD
ATOM     33  H62 UNL     1     -24.910   8.991 -20.963  1.00  0.00     0.279 HD
ATOM     34  H61 UNL     1     -25.912  10.103 -20.156  1.00  0.00     0.279 HD
ENDBRANCH  23  31
ENDBRANCH  19  21
ENDBRANCH  12  19
BRANCH  13  35
HETATM   35  O7  UNL     1     -21.555  10.649 -24.378  1.00  0.00    -0.357 OA
ATOM     36  H7  UNL     1     -20.649  10.827 -24.600  1.00  0.00     0.218 HD
ENDBRANCH  13  35
ENDBRANCH   5  10
BRANCH   2  37
HETATM   37  C5  UNL     1     -25.987  17.357 -26.481  1.00  0.00     0.182 C
BRANCH  37  38
HETATM   38  O3  UNL     1     -27.103  16.777 -26.923  1.00  0.00    -0.344 OA
ATOM     39  H3  UNL     1     -27.314  17.058 -27.805  1.00  0.00     0.219 HD
ENDBRANCH  37  38
BRANCH  37  40
HETATM   40  N2  UNL     1     -25.354  18.142 -27.424  1.00  0.00    -0.356 N
ATOM     41  H2  UNL     1     -24.481  17.840 -27.855  1.00  0.00     0.162 HD
BRANCH  40  42
HETATM   42  C6  UNL     1     -25.977  19.442 -27.793  1.00  0.00     0.162 C
BRANCH  42  43
HETATM   43  C7  UNL     1     -26.491  19.395 -29.197  1.00  0.00     0.194 C
BRANCH  43  44
HETATM   44  O4  UNL     1     -25.530  19.725 -30.140  1.00  0.00    -0.399 OA
ATOM     45  H4  UNL     1     -25.723  19.382 -31.005  1.00  0.00     0.209 HD
ENDBRANCH  43  44
ENDBRANCH  42  43
BRANCH  42  46
HETATM   46  C8  UNL     1     -24.897  20.487 -27.670  1.00  0.00     0.278 C
BRANCH  46  47
HETATM   47  O5  UNL     1     -24.229  20.374 -26.453  1.00  0.00    -0.369 OA
ATOM     48  H5  UNL     1     -23.935  21.224 -26.146  1.00  0.00     0.212 HD
ENDBRANCH  46  47
BRANCH  46  49
HETATM   49  O6  UNL     1     -25.482  21.747 -27.794  1.00  0.00    -0.369 OA
ATOM     50  H6  UNL     1     -24.851  22.337 -28.189  1.00  0.00     0.212 HD
ENDBRANCH  46  49
ENDBRANCH  42  46
ENDBRANCH  40  42
ENDBRANCH  37  40
ENDBRANCH   2  37
BRANCH   1  51
HETATM   51  C3  UNL     1     -26.876  18.919 -24.139  1.00  0.00     0.316 C
BRANCH  51  52
HETATM   52  O2  UNL     1     -26.083  20.093 -24.299  1.00  0.00    -0.301 OA
BRANCH  52  53
HETATM   53  C2  UNL     1     -26.619  21.266 -24.773  1.00  0.00     0.256 C
HETATM   54  C1  UNL     1     -27.992  21.416 -25.277  1.00  0.00     0.126 C
HETATM   55  O1  UNL     1     -25.850  22.285 -24.763  1.00  0.00    -0.266 OA
ENDBRANCH  52  53
ENDBRANCH  51  52
ENDBRANCH   1  51
TORSDOF 17
ENDMDL