MODEL 4
REMARK VINA RESULT: -9.005816390      2.554      4.615
REMARK  12 active torsions:
REMARK  status: ('A' for Active; 'I' for Inactive)
REMARK    1  A    between atoms: C1_2  and  C2_4
REMARK    2  A    between atoms: N4_8  and  C3_9
REMARK    3  A    between atoms: C4_11  and  C5_12
REMARK       I    between atoms: C5_12  and  N5_14
REMARK    4  A    between atoms: N5_14  and  C6_16
REMARK    5  A    between atoms: C6_16  and  N6_17
REMARK    6  A    between atoms: C6_16  and  C7_21
REMARK       I    between atoms: N7_24  and  C9_26
REMARK       I    between atoms: C9_26  and  N8_27
REMARK       I    between atoms: C9_26  and  N9_31
REMARK    7  A    between atoms: C11_37  and  S1_38
REMARK    8  A    between atoms: S1_38  and  S2_39
REMARK    9  A    between atoms: S2_39  and  C12_40
REMARK   10  A    between atoms: C12_40  and  C13_41
REMARK   11  A    between atoms: C14_44  and  O7_45
REMARK   12  A    between atoms: C15_47  and  O8_48
ROOT
HETATM    1  C7  UNL     1     -24.624  11.216 -22.706  1.00  0.00     0.139 A
HETATM    2  O4  UNL     1     -25.624  10.356 -22.848  1.00  0.00    -0.289 OA
HETATM    3  C8  UNL     1     -25.722   9.523 -23.877  1.00  0.00     0.172 A
HETATM    4  N7  UNL     1     -26.725   8.744 -23.905  1.00  0.00    -0.320 N
ATOM      5  H7  UNL     1     -27.348   8.860 -23.106  1.00  0.00     0.165 HD
HETATM    6  C9  UNL     1     -27.155   7.758 -24.801  1.00  0.00     0.482 C
HETATM    7  N8  UNL     1     -28.580   7.486 -24.473  1.00  0.00    -0.033 N
ATOM      8  H81 UNL     1     -28.893   6.767 -25.126  1.00  0.00     0.278 HD
ATOM      9  H82 UNL     1     -29.164   8.322 -24.481  1.00  0.00     0.278 HD
ATOM     10  H83 UNL     1     -28.729   7.236 -23.495  1.00  0.00     0.278 HD
HETATM   11  N9  UNL     1     -26.485   6.476 -24.648  1.00  0.00    -0.033 N
ATOM     12  H91 UNL     1     -26.797   5.758 -25.301  1.00  0.00     0.278 HD
ATOM     13  H92 UNL     1     -26.566   6.144 -23.687  1.00  0.00     0.278 HD
ATOM     14  H93 UNL     1     -25.473   6.594 -24.705  1.00  0.00     0.278 HD
HETATM   15  C10 UNL     1     -24.710   9.617 -24.790  1.00  0.00     0.117 A
HETATM   16  N10 UNL     1     -24.713   8.760 -25.950  1.00  0.00    -0.096 NA
HETATM   17  C11 UNL     1     -23.642  10.480 -24.717  1.00  0.00     0.075 A
HETATM   18  C14 UNL     1     -23.595  11.339 -23.597  1.00  0.00     0.119 A
ENDROOT
BRANCH   1  19
HETATM   19  C6  UNL     1     -24.681  12.060 -21.492  1.00  0.00     0.345 C
BRANCH  19  20
HETATM   20  N5  UNL     1     -24.650  13.470 -21.944  1.00  0.00    -0.326 N
HETATM   21  C5  UNL     1     -25.780  14.079 -22.527  1.00  0.00     0.251 C
HETATM   22  O3  UNL     1     -26.863  13.432 -22.680  1.00  0.00    -0.271 OA
ATOM     23  H5  UNL     1     -23.793  14.011 -21.833  1.00  0.00     0.165 HD
BRANCH  21  24
HETATM   24  C4  UNL     1     -25.725  15.491 -22.973  1.00  0.00     0.249 C
HETATM   25  O2  UNL     1     -26.765  15.851 -23.806  1.00  0.00    -0.345 OA
HETATM   26  C3  UNL     1     -25.889  16.378 -24.738  1.00  0.00     0.277 C
HETATM   27  C15 UNL     1     -24.701  15.780 -24.037  1.00  0.00     0.206 C
BRANCH  26  28
HETATM   28  N4  UNL     1     -25.905  17.826 -24.749  1.00  0.00    -0.229 N
HETATM   29  N3  UNL     1     -25.883  18.655 -23.709  1.00  0.00    -0.016 NA
HETATM   30  N2  UNL     1     -25.911  19.908 -24.124  1.00  0.00    -0.276 N
HETATM   31  C2  UNL     1     -25.955  19.930 -25.469  1.00  0.00     0.154 A
ATOM     32  H2  UNL     1     -25.901  20.729 -23.520  1.00  0.00     0.184 HD
HETATM   33  C16 UNL     1     -25.951  18.595 -25.850  1.00  0.00     0.167 A
HETATM   34  N11 UNL     1     -25.988  18.158 -27.202  1.00  0.00    -0.079 NA
BRANCH  31  35
HETATM   35  C1  UNL     1     -25.997  21.111 -26.326  1.00  0.00     0.285 C
HETATM   36  N1  UNL     1     -24.849  21.473 -27.058  1.00  0.00    -0.056 NA
HETATM   37  O1  UNL     1     -27.080  21.762 -26.368  1.00  0.00    -0.269 OA
ENDBRANCH  31  35
ENDBRANCH  26  28
BRANCH  27  38
HETATM   38  O8  UNL     1     -23.778  16.749 -23.689  1.00  0.00    -0.388 OA
ATOM     39  H8  UNL     1     -23.219  16.976 -24.422  1.00  0.00     0.210 HD
ENDBRANCH  27  38
ENDBRANCH  21  24
ENDBRANCH  19  20
BRANCH  19  40
HETATM   40  N6  UNL     1     -25.818  11.932 -20.664  1.00  0.00    -0.052 N
ATOM     41  H63 UNL     1     -25.644  12.193 -19.694  1.00  0.00     0.277 HD
ATOM     42  H62 UNL     1     -26.538  12.628 -20.856  1.00  0.00     0.277 HD
ATOM     43  H61 UNL     1     -26.145  10.971 -20.771  1.00  0.00     0.277 HD
ENDBRANCH  19  40
ENDBRANCH   1  19
BRANCH  18  44
HETATM   44  O7  UNL     1     -22.541  12.180 -23.543  1.00  0.00    -0.357 OA
ATOM     45  H7  UNL     1     -22.125  12.648 -24.259  1.00  0.00     0.218 HD
ENDBRANCH  18  44
BRANCH  17  46
HETATM   46  S1  UNL     1     -22.359  10.553 -25.913  1.00  0.00    -0.052 SA
BRANCH  46  47
HETATM   47  S2  UNL     1     -20.660   9.525 -25.182  1.00  0.00    -0.082 SA
BRANCH  47  48
HETATM   48  C12 UNL     1     -19.773   8.799 -26.550  1.00  0.00     0.199 C
BRANCH  48  49
HETATM   49  C13 UNL     1     -20.512   8.870 -27.833  1.00  0.00     0.183 C
HETATM   50  O5  UNL     1     -21.282   7.920 -28.114  1.00  0.00    -0.647 OA
HETATM   51  O6  UNL     1     -20.398   9.915 -28.720  1.00  0.00    -0.647 OA
ENDBRANCH  48  49
ENDBRANCH  47  48
ENDBRANCH  46  47
ENDBRANCH  17  46
TORSDOF 12
ENDMDL