MODEL 4
REMARK VINA RESULT: -6.206656981      1.198      3.099
REMARK  20 active torsions:
REMARK  status: ('A' for Active; 'I' for Inactive)
REMARK    1  A    between atoms: O1_2  and  C2_3
REMARK    2  A    between atoms: C4_5  and  O2_6
REMARK    3  A    between atoms: C5_8  and  O3_9
REMARK    4  A    between atoms: C5_8  and  C6_11
REMARK    5  A    between atoms: C8_16  and  O7_17
REMARK    6  A    between atoms: C9_19  and  N1_20
REMARK    7  A    between atoms: N1_20  and  C10_22
REMARK    8  A    between atoms: C10_22  and  C11_23
REMARK    9  A    between atoms: C11_23  and  C12_24
REMARK   10  A    between atoms: C13_25  and  O8_26
REMARK   11  A    between atoms: C14_28  and  N2_29
REMARK   12  A    between atoms: N2_29  and  O9_31
REMARK   13  A    between atoms: C16_34  and  O10_35
REMARK   14  A    between atoms: C17_37  and  C18_38
REMARK   15  A    between atoms: C18_38  and  O11_39
REMARK   16  A    between atoms: C18_38  and  O12_41
REMARK   17  A    between atoms: O12_41  and  N3_42
REMARK   18  A    between atoms: C19_45  and  O13_46
REMARK   19  A    between atoms: C19_45  and  C20_48
REMARK   20  A    between atoms: C20_48  and  O14_49
ROOT
HETATM    1  C2  UNL     1      -3.895 -17.139   6.873  1.00  0.00     0.097 A
HETATM    2  C3  UNL     1      -3.421 -17.092   5.684  1.00  0.00     0.033 A
HETATM    3  C4  UNL     1      -3.671 -17.125   4.223  1.00  0.00     0.207 C
HETATM    4  C5  UNL     1      -2.907 -15.841   3.825  1.00  0.00     0.240 C
HETATM    5  C7  UNL     1      -1.847 -15.706   4.913  1.00  0.00     0.219 C
HETATM    6  O6  UNL     1      -1.158 -14.733   5.021  1.00  0.00    -0.290 OA
HETATM    7  C8  UNL     1      -1.903 -16.947   5.692  1.00  0.00     0.193 A
HETATM    8  C9  UNL     1      -1.565 -16.965   7.082  1.00  0.00     0.076 A
HETATM    9  C19 UNL     1      -2.849 -17.005   7.872  1.00  0.00     0.169 A
ENDROOT
BRANCH   8  10
HETATM   10  N1  UNL     1      -0.455 -16.990   7.735  1.00  0.00    -0.370 N
ATOM     11  H1  UNL     1      -0.173 -16.150   8.240  1.00  0.00     0.164 HD
BRANCH  10  12
HETATM   12  C10 UNL     1       0.375 -18.099   7.789  1.00  0.00     0.065 C
BRANCH  12  13
HETATM   13  C11 UNL     1       0.539 -18.721   9.161  1.00  0.00     0.086 C
BRANCH  13  14
HETATM   14  C12 UNL     1       1.227 -20.005   9.145  1.00  0.00    -0.004 A
HETATM   15  C13 UNL     1       0.441 -21.134   8.854  1.00  0.00     0.101 A
HETATM   16  C14 UNL     1       0.989 -22.399   8.767  1.00  0.00     0.090 A
HETATM   17  C15 UNL     1       2.342 -22.544   8.975  1.00  0.00     0.071 A
HETATM   18  C16 UNL     1       3.129 -21.462   9.262  1.00  0.00     0.079 A
HETATM   19  C17 UNL     1       2.580 -20.173   9.351  1.00  0.00     0.041 A
BRANCH  15  20
HETATM   20  O8  UNL     1      -0.925 -21.038   8.643  1.00  0.00    -0.358 OA
ATOM     21  H8  UNL     1      -1.320 -21.264   7.809  1.00  0.00     0.217 HD
ENDBRANCH  15  20
BRANCH  16  22
HETATM   22  N2  UNL     1       0.188 -23.539   8.470  1.00  0.00    -0.267 N
ATOM     23  H2  UNL     1       0.023 -24.238   9.195  1.00  0.00     0.194 HD
BRANCH  22  24
HETATM   24  O9  UNL     1      -0.353 -23.710   7.259  1.00  0.00    -0.289 OA
ATOM     25  H9  UNL     1      -0.843 -24.495   7.045  1.00  0.00     0.244 HD
ENDBRANCH  22  24
ENDBRANCH  16  22
BRANCH  18  26
HETATM   26  O10 UNL     1       4.481 -21.618   9.469  1.00  0.00    -0.360 OA
ATOM     27  H10 UNL     1       5.088 -21.577   8.739  1.00  0.00     0.217 HD
ENDBRANCH  18  26
BRANCH  19  28
HETATM   28  C18 UNL     1       3.467 -19.057   9.682  1.00  0.00     0.322 C
BRANCH  28  29
HETATM   29  O11 UNL     1       2.852 -17.955  10.265  1.00  0.00    -0.365 OA
ATOM     30  H11 UNL     1       3.437 -17.320  10.659  1.00  0.00     0.213 HD
ENDBRANCH  28  29
BRANCH  28  31
HETATM   31  O12 UNL     1       4.335 -18.683   8.671  1.00  0.00    -0.250 OA
BRANCH  31  32
HETATM   32  N3  UNL     1       5.615 -18.959   8.983  1.00  0.00    -0.308 N
ATOM     33  H32 UNL     1       5.883 -19.619   9.713  1.00  0.00     0.184 HD
ATOM     34  H31 UNL     1       6.269 -18.431   8.404  1.00  0.00     0.184 HD
ENDBRANCH  31  32
ENDBRANCH  28  31
ENDBRANCH  19  28
ENDBRANCH  13  14
ENDBRANCH  12  13
ENDBRANCH  10  12
ENDBRANCH   8  10
BRANCH   7  35
HETATM   35  O7  UNL     1      -1.379 -18.035   4.965  1.00  0.00    -0.372 OA
ATOM     36  H7  UNL     1      -1.441 -17.811   4.045  1.00  0.00     0.212 HD
ENDBRANCH   7  35
BRANCH   9  37
HETATM   37  O13 UNL     1      -2.884 -18.111   8.720  1.00  0.00    -0.375 OA
ATOM     38  H13 UNL     1      -3.218 -17.842   9.567  1.00  0.00     0.211 HD
ENDBRANCH   9  37
BRANCH   9  39
HETATM   39  C20 UNL     1      -2.984 -15.760   8.721  1.00  0.00     0.215 C
BRANCH  39  40
HETATM   40  O14 UNL     1      -2.271 -14.698   8.177  1.00  0.00    -0.397 OA
ATOM     41  H14 UNL     1      -2.771 -13.891   8.216  1.00  0.00     0.209 HD
ENDBRANCH  39  40
ENDBRANCH   9  39
BRANCH   1  42
HETATM   42  O1  UNL     1      -5.248 -17.293   7.220  1.00  0.00    -0.356 OA
HETATM   43  C1  UNL     1      -6.177 -16.240   7.104  1.00  0.00     0.209 C
ENDBRANCH   1  42
BRANCH   3  44
HETATM   44  O2  UNL     1      -5.000 -17.032   3.898  1.00  0.00    -0.387 OA
ATOM     45  H2  UNL     1      -5.207 -17.405   3.049  1.00  0.00     0.210 HD
ENDBRANCH   3  44
BRANCH   4  46
HETATM   46  O3  UNL     1      -3.810 -14.795   3.930  1.00  0.00    -0.370 OA
ATOM     47  H3  UNL     1      -4.245 -14.726   3.088  1.00  0.00     0.212 HD
ENDBRANCH   4  46
BRANCH   4  48
HETATM   48  C6  UNL     1      -2.316 -15.950   2.495  1.00  0.00     0.220 C
HETATM   49  O4  UNL     1      -1.089 -16.124   2.334  1.00  0.00    -0.645 OA
HETATM   50  O5  UNL     1      -3.098 -15.864   1.345  1.00  0.00    -0.645 OA
ENDBRANCH   4  48
TORSDOF 20
ENDMDL