MODEL 3
REMARK VINA RESULT: -5.319740669      6.474     10.149
REMARK  12 active torsions:
REMARK  status: ('A' for Active; 'I' for Inactive)
REMARK       I    between atoms: C2_2  and  N1_4
REMARK    1  A    between atoms: N1_4  and  C3_6
REMARK    2  A    between atoms: C4_12  and  C5_13
REMARK    3  A    between atoms: C6_16  and  N5_17
REMARK    4  A    between atoms: N5_17  and  C7_19
REMARK    5  A    between atoms: C8_20  and  N6_21
REMARK    6  A    between atoms: C9_25  and  C10_26
REMARK    7  A    between atoms: C10_26  and  O3_27
REMARK    8  A    between atoms: C11_29  and  O4_30
REMARK    9  A    between atoms: C12_32  and  O5_33
REMARK   10  A    between atoms: C13_35  and  O6_36
REMARK   11  A    between atoms: C14_38  and  N7_39
REMARK       I    between atoms: N7_39  and  C15_40
REMARK   12  A    between atoms: C16_43  and  N9_44
REMARK       I    between atoms: N9_44  and  C17_46
REMARK       I    between atoms: C17_46  and  N10_47
REMARK       I    between atoms: C17_46  and  N11_51
ROOT
HETATM    1  C5  UNL     1      -6.776 -18.886   4.134  1.00  0.00     0.110 A
HETATM    2  N4  UNL     1      -6.310 -18.280   3.078  1.00  0.00    -0.332 N
ATOM      3  H4  UNL     1      -6.915 -18.355   2.261  1.00  0.00     0.168 HD
HETATM    4  C6  UNL     1      -5.205 -17.586   2.859  1.00  0.00     0.147 A
HETATM    5  C14 UNL     1      -4.208 -17.342   3.845  1.00  0.00     0.189 A
HETATM    6  C16 UNL     1      -4.316 -17.822   5.135  1.00  0.00     0.120 A
HETATM    7  S1  UNL     1      -5.692 -18.718   5.497  1.00  0.00    -0.049 SA
ENDROOT
BRANCH   4   8
HETATM    8  N5  UNL     1      -4.926 -17.026   1.587  1.00  0.00    -0.364 N
ATOM      9  H5  UNL     1      -3.989 -17.258   1.257  1.00  0.00     0.161 HD
BRANCH   8  10
HETATM   10  C7  UNL     1      -5.628 -16.234   0.681  1.00  0.00     0.145 C
HETATM   11  C8  UNL     1      -6.331 -16.815  -0.483  1.00  0.00     0.217 C
HETATM   12  C9  UNL     1      -7.298 -15.780  -1.031  1.00  0.00     0.073 C
HETATM   13  C11 UNL     1      -7.103 -14.411  -0.425  1.00  0.00     0.157 C
HETATM   14  C12 UNL     1      -5.684 -13.985  -0.251  1.00  0.00     0.178 C
HETATM   15  C13 UNL     1      -4.750 -15.094   0.180  1.00  0.00     0.174 C
BRANCH  11  16
HETATM   16  N6  UNL     1      -7.113 -17.986  -0.052  1.00  0.00    -0.072 N
ATOM     17  H63 UNL     1      -6.550 -18.836  -0.025  1.00  0.00     0.274 HD
ATOM     18  H62 UNL     1      -7.358 -17.942   0.937  1.00  0.00     0.274 HD
ATOM     19  H61 UNL     1      -7.934 -18.087  -0.648  1.00  0.00     0.274 HD
ENDBRANCH  11  16
BRANCH  12  20
HETATM   20  C10 UNL     1      -7.140 -15.612  -2.535  1.00  0.00     0.173 C
BRANCH  20  21
HETATM   21  O3  UNL     1      -6.749 -16.826  -3.117  1.00  0.00    -0.400 OA
ATOM     22  H3  UNL     1      -6.774 -16.757  -4.064  1.00  0.00     0.209 HD
ENDBRANCH  20  21
ENDBRANCH  12  20
BRANCH  13  23
HETATM   23  O4  UNL     1      -7.676 -13.497  -1.346  1.00  0.00    -0.392 OA
ATOM     24  H4  UNL     1      -8.555 -13.327  -1.028  1.00  0.00     0.210 HD
ENDBRANCH  13  23
BRANCH  14  25
HETATM   25  O5  UNL     1      -5.678 -13.025   0.784  1.00  0.00    -0.390 OA
ATOM     26  H5  UNL     1      -5.300 -12.235   0.416  1.00  0.00     0.210 HD
ENDBRANCH  14  25
BRANCH  15  27
HETATM   27  O6  UNL     1      -3.957 -14.725   1.289  1.00  0.00    -0.391 OA
ATOM     28  H6  UNL     1      -3.125 -14.453   0.920  1.00  0.00     0.210 HD
ENDBRANCH  15  27
ENDBRANCH   8  10
ENDBRANCH   4   8
BRANCH   5  29
HETATM   29  N7  UNL     1      -3.067 -16.569   3.597  1.00  0.00    -0.348 NA
HETATM   30  C15 UNL     1      -1.986 -15.835   3.366  1.00  0.00     0.406 C
HETATM   31  N8  UNL     1      -1.142 -16.010   2.168  1.00  0.00    -0.025 NA
HETATM   32  O7  UNL     1      -1.483 -14.886   4.084  1.00  0.00    -0.234 OA
ENDBRANCH   5  29
BRANCH   1  33
HETATM   33  C4  UNL     1      -8.023 -19.590   4.384  1.00  0.00     0.136 A
HETATM   34  C3  UNL     1      -8.664 -20.625   3.810  1.00  0.00     0.161 A
HETATM   35  N2  UNL     1      -9.834 -20.792   4.484  1.00  0.00    -0.223 N
HETATM   36  O2  UNL     1      -9.921 -19.913   5.426  1.00  0.00    -0.155 OA
ATOM     37  H2  UNL     1     -10.536 -21.504   4.277  1.00  0.00     0.198 HD
HETATM   38  N3  UNL     1      -8.872 -19.174   5.411  1.00  0.00    -0.235 N
ATOM     39  H3  UNL     1      -8.687 -18.401   6.050  1.00  0.00     0.197 HD
BRANCH  34  40
HETATM   40  N1  UNL     1      -8.219 -21.393   2.704  1.00  0.00    -0.310 N
HETATM   41  C2  UNL     1      -8.614 -20.936   1.422  1.00  0.00     0.219 C
HETATM   42  C1  UNL     1      -8.221 -21.610   0.171  1.00  0.00     0.117 C
HETATM   43  O1  UNL     1      -9.327 -19.909   1.323  1.00  0.00    -0.274 OA
ATOM     44  H1  UNL     1      -7.646 -22.228   2.824  1.00  0.00     0.170 HD
ENDBRANCH  34  40
ENDBRANCH   1  33
BRANCH   6  45
HETATM   45  N9  UNL     1      -3.421 -17.595   6.027  1.00  0.00    -0.332 N
HETATM   46  C17 UNL     1      -3.385 -16.513   6.948  1.00  0.00     0.481 C
HETATM   47  N10 UNL     1      -3.748 -15.228   6.446  1.00  0.00    -0.033 N
HETATM   48  N11 UNL     1      -2.004 -16.409   7.436  1.00  0.00    -0.033 N
ATOM     49 3H10 UNL     1      -3.174 -15.004   5.633  1.00  0.00     0.278 HD
ATOM     50 2H10 UNL     1      -4.671 -15.278   6.015  1.00  0.00     0.278 HD
ATOM     51 1H10 UNL     1      -3.721 -14.452   7.107  1.00  0.00     0.278 HD
ATOM     52 3H11 UNL     1      -1.652 -17.282   7.830  1.00  0.00     0.278 HD
ATOM     53 2H11 UNL     1      -1.320 -16.319   6.685  1.00  0.00     0.278 HD
ATOM     54 1H11 UNL     1      -1.978 -15.633   8.097  1.00  0.00     0.278 HD
ATOM     55  H9  UNL     1      -2.652 -18.263   6.080  1.00  0.00     0.164 HD
ENDBRANCH   6  45
TORSDOF 12
ENDMDL