MODEL 3
REMARK VINA RESULT: -5.322487149      1.945      2.363
REMARK  16 active torsions:
REMARK  status: ('A' for Active; 'I' for Inactive)
REMARK    1  A    between atoms: S1_2  and  C2_3
REMARK    2  A    between atoms: C3_6  and  S2_7
REMARK    3  A    between atoms: S2_7  and  S3_8
REMARK    4  A    between atoms: S3_8  and  C4_9
REMARK    5  A    between atoms: C4_9  and  C5_10
REMARK    6  A    between atoms: C6_12  and  N3_13
REMARK    7  A    between atoms: C7_20  and  O2_21
REMARK    8  A    between atoms: O2_21  and  C8_22
REMARK    9  A    between atoms: C8_22  and  C9_23
REMARK   10  A    between atoms: C10_24  and  O3_25
REMARK   11  A    between atoms: C11_27  and  O4_28
REMARK   12  A    between atoms: C12_30  and  O5_31
REMARK   13  A    between atoms: C13_33  and  O6_34
REMARK   14  A    between atoms: C14_36  and  O7_37
REMARK   15  A    between atoms: C15_39  and  N5_40
REMARK   16  A    between atoms: C16_44  and  O8_45
ROOT
HETATM    1  C5  UNL     1      -2.011 -17.596   7.721  1.00  0.00     0.192 C
HETATM    2  O1  UNL     1      -2.069 -18.986   7.704  1.00  0.00    -0.328 OA
HETATM    3  C6  UNL     1      -2.061 -19.294   6.364  1.00  0.00     0.525 C
HETATM    4  N4  UNL     1      -0.973 -18.436   5.869  1.00  0.00     0.006 N
ATOM      5  H41 UNL     1      -0.792 -18.470   4.866  1.00  0.00     0.285 HD
ATOM      6  H42 UNL     1      -0.026 -18.716   6.124  1.00  0.00     0.285 HD
HETATM    7  C7  UNL     1      -1.440 -17.146   6.406  1.00  0.00     0.356 C
ENDROOT
BRANCH   7   8
HETATM    8  O2  UNL     1      -2.470 -16.739   5.568  1.00  0.00    -0.356 OA
BRANCH   8   9
HETATM    9  C8  UNL     1      -1.982 -16.259   4.348  1.00  0.00     0.180 C
BRANCH   9  10
HETATM   10  C9  UNL     1      -3.044 -16.388   3.263  1.00  0.00     0.072 C
HETATM   11  C10 UNL     1      -4.396 -16.379   3.885  1.00  0.00     0.158 C
HETATM   12  C11 UNL     1      -5.518 -15.921   3.031  1.00  0.00     0.178 C
HETATM   13  C12 UNL     1      -5.175 -16.098   1.588  1.00  0.00     0.180 C
HETATM   14  C13 UNL     1      -4.003 -15.201   1.266  1.00  0.00     0.178 C
HETATM   15  C14 UNL     1      -2.851 -15.374   2.175  1.00  0.00     0.158 C
BRANCH  11  16
HETATM   16  O3  UNL     1      -4.690 -17.633   4.452  1.00  0.00    -0.392 OA
ATOM     17  H3  UNL     1      -5.615 -17.697   4.662  1.00  0.00     0.210 HD
ENDBRANCH  11  16
BRANCH  12  18
HETATM   18  O4  UNL     1      -5.964 -14.640   3.336  1.00  0.00    -0.390 OA
ATOM     19  H4  UNL     1      -6.898 -14.590   3.499  1.00  0.00     0.210 HD
ENDBRANCH  12  18
BRANCH  13  20
HETATM   20  O5  UNL     1      -4.883 -17.418   1.343  1.00  0.00    -0.390 OA
ATOM     21  H5  UNL     1      -4.316 -17.483   0.584  1.00  0.00     0.210 HD
ENDBRANCH  13  20
BRANCH  14  22
HETATM   22  O6  UNL     1      -3.611 -15.526  -0.038  1.00  0.00    -0.390 OA
ATOM     23  H6  UNL     1      -2.670 -15.399  -0.071  1.00  0.00     0.210 HD
ENDBRANCH  14  22
BRANCH  15  24
HETATM   24  O7  UNL     1      -2.597 -14.139   2.809  1.00  0.00    -0.392 OA
ATOM     25  H7  UNL     1      -1.699 -14.167   3.117  1.00  0.00     0.210 HD
ENDBRANCH  15  24
ENDBRANCH   9  10
ENDBRANCH   8   9
ENDBRANCH   7   8
BRANCH   1  26
HETATM   26  C4  UNL     1      -1.276 -17.048   8.905  1.00  0.00     0.122 C
BRANCH  26  27
HETATM   27  S3  UNL     1      -1.075 -18.249  10.231  1.00  0.00    -0.093 SA
BRANCH  27  28
HETATM   28  S2  UNL     1       0.754 -17.985  11.269  1.00  0.00    -0.072 SA
BRANCH  28  29
HETATM   29  C3  UNL     1       2.033 -19.106  10.711  1.00  0.00     0.200 C
HETATM   30  N2  UNL     1       1.685 -20.472  11.069  1.00  0.00    -0.129 NA
HETATM   31  N1  UNL     1       2.629 -21.377  10.575  1.00  0.00    -0.129 NA
HETATM   32  C2  UNL     1       2.483 -21.508   9.160  1.00  0.00     0.186 C
HETATM   33  C16 UNL     1       2.044 -20.253   8.486  1.00  0.00     0.181 C
HETATM   34  C15 UNL     1       2.370 -18.988   9.248  1.00  0.00     0.245 C
BRANCH  32  35
HETATM   35  S1  UNL     1       1.302 -22.837   8.725  1.00  0.00    -0.148 SA
HETATM   36  C1  UNL     1       1.557 -24.191   9.912  1.00  0.00     0.091 C
ENDBRANCH  32  35
BRANCH  33  37
HETATM   37  O8  UNL     1       0.704 -20.280   8.104  1.00  0.00    -0.391 OA
ATOM     38  H8  UNL     1       0.117 -19.991   8.792  1.00  0.00     0.210 HD
ENDBRANCH  33  37
BRANCH  34  39
HETATM   39  N5  UNL     1       3.784 -18.709   9.073  1.00  0.00    -0.070 N
ATOM     40  H53 UNL     1       4.270 -18.635   9.966  1.00  0.00     0.274 HD
ATOM     41  H52 UNL     1       4.286 -19.513   8.694  1.00  0.00     0.274 HD
ATOM     42  H51 UNL     1       3.915 -17.876   8.500  1.00  0.00     0.274 HD
ENDBRANCH  34  39
ENDBRANCH  28  29
ENDBRANCH  27  28
ENDBRANCH  26  27
ENDBRANCH   1  26
BRANCH   3  43
HETATM   43  N3  UNL     1      -1.690 -20.651   6.083  1.00  0.00    -0.027 N
ATOM     44  H33 UNL     1      -0.676 -20.741   6.025  1.00  0.00     0.279 HD
ATOM     45  H32 UNL     1      -1.869 -21.247   6.892  1.00  0.00     0.279 HD
ATOM     46  H31 UNL     1      -2.134 -21.034   5.249  1.00  0.00     0.279 HD
ENDBRANCH   3  43
TORSDOF 16
ENDMDL