MODEL 3
REMARK VINA RESULT: -6.487759800      4.133      9.255
REMARK  16 active torsions:
REMARK  status: ('A' for Active; 'I' for Inactive)
REMARK    1  A    between atoms: N1_1  and  C1_4
REMARK    2  A    between atoms: C3_9  and  C4_10
REMARK    3  A    between atoms: C4_10  and  O1_11
REMARK    4  A    between atoms: C4_10  and  C5_13
REMARK    5  A    between atoms: C7_15  and  O2_16
REMARK    6  A    between atoms: C9_19  and  N4_20
REMARK    7  A    between atoms: C10_25  and  C11_26
REMARK    8  A    between atoms: C11_26  and  O3_27
REMARK    9  A    between atoms: O3_27  and  C12_28
REMARK   10  A    between atoms: C12_28  and  C13_29
REMARK       I    between atoms: C13_29  and  N7_31
REMARK   11  A    between atoms: N7_31  and  N8_33
REMARK   12  A    between atoms: N8_33  and  N9_34
REMARK   13  A    between atoms: C14_37  and  O5_38
REMARK   14  A    between atoms: C15_42  and  C16_43
REMARK   15  A    between atoms: C16_43  and  O6_44
REMARK   16  A    between atoms: C16_43  and  O7_46
ROOT
HETATM    1  C5  UNL     1      -0.076 -17.613   8.255  1.00  0.00     0.053 A
HETATM    2  C6  UNL     1      -0.408 -17.357   9.576  1.00  0.00     0.067 A
HETATM    3  C7  UNL     1      -1.534 -16.562   9.629  1.00  0.00     0.098 A
HETATM    4  C8  UNL     1      -1.893 -16.332   8.311  1.00  0.00     0.119 A
HETATM    5  C9  UNL     1      -2.951 -15.595   7.793  1.00  0.00     0.162 A
HETATM    6  N10 UNL     1      -3.049 -15.549   6.453  1.00  0.00    -0.337 N
ATOM      7  H10 UNL     1      -3.815 -15.017   6.040  1.00  0.00     0.167 HD
HETATM    8  C15 UNL     1      -2.189 -16.169   5.636  1.00  0.00     0.082 A
HETATM    9  C17 UNL     1      -1.152 -16.890   6.185  1.00  0.00     0.127 A
HETATM   10  N11 UNL     1      -1.007 -16.968   7.530  1.00  0.00    -0.315 N
ENDROOT
BRANCH   5  11
HETATM   11  N4  UNL     1      -3.876 -14.929   8.641  1.00  0.00    -0.199 N
HETATM   12  N5  UNL     1      -4.885 -15.511   9.290  1.00  0.00    -0.232 N
HETATM   13  N6  UNL     1      -5.572 -14.638   9.998  1.00  0.00    -0.283 N
ATOM     14  H5  UNL     1      -5.097 -16.508   9.244  1.00  0.00     0.209 HD
HETATM   15  C10 UNL     1      -4.991 -13.449   9.803  1.00  0.00     0.103 A
ATOM     16  H6  UNL     1      -6.387 -14.832  10.580  1.00  0.00     0.188 HD
HETATM   17  C14 UNL     1      -3.939 -13.629   8.961  1.00  0.00     0.191 A
BRANCH  15  18
HETATM   18  C11 UNL     1      -5.467 -12.177  10.431  1.00  0.00     0.231 C
BRANCH  18  19
HETATM   19  O3  UNL     1      -4.887 -11.092   9.808  1.00  0.00    -0.376 OA
BRANCH  19  20
HETATM   20  C12 UNL     1      -5.788 -10.301   9.183  1.00  0.00     0.272 C
BRANCH  20  21
HETATM   21  C13 UNL     1      -5.475 -10.063   7.775  1.00  0.00     0.258 C
HETATM   22  O4  UNL     1      -5.343 -11.073   7.018  1.00  0.00    -0.270 OA
HETATM   23  N7  UNL     1      -5.326  -8.765   7.246  1.00  0.00    -0.253 N
ATOM     24  H7  UNL     1      -5.438  -7.951   7.851  1.00  0.00     0.187 HD
BRANCH  23  25
HETATM   25  N8  UNL     1      -5.023  -8.590   5.880  1.00  0.00    -0.027 NA
BRANCH  25  26
HETATM   26  N9  UNL     1      -3.649  -8.720   5.744  1.00  0.00    -0.329 N
ATOM     27  H92 UNL     1      -3.089  -9.501   6.087  1.00  0.00     0.174 HD
ATOM     28  H91 UNL     1      -3.315  -7.897   5.244  1.00  0.00     0.174 HD
ENDBRANCH  25  26
ENDBRANCH  23  25
ENDBRANCH  20  21
ENDBRANCH  19  20
ENDBRANCH  18  19
ENDBRANCH  15  18
BRANCH  17  29
HETATM   29  O5  UNL     1      -3.067 -12.669   8.497  1.00  0.00    -0.343 OA
ATOM     30  H5  UNL     1      -2.170 -12.569   8.795  1.00  0.00     0.219 HD
ENDBRANCH  17  29
ENDBRANCH   5  11
BRANCH   3  31
HETATM   31  O2  UNL     1      -2.212 -16.067  10.721  1.00  0.00    -0.358 OA
ATOM     32  H2  UNL     1      -2.371 -15.167  10.981  1.00  0.00     0.217 HD
ENDBRANCH   3  31
BRANCH   8  33
HETATM   33  C16 UNL     1      -2.307 -16.110   4.158  1.00  0.00     0.306 C
BRANCH  33  34
HETATM   34  O6  UNL     1      -3.638 -16.024   3.761  1.00  0.00    -0.366 OA
ATOM     35  H6  UNL     1      -3.745 -16.285   2.855  1.00  0.00     0.213 HD
ENDBRANCH  33  34
BRANCH  33  36
HETATM   36  O7  UNL     1      -1.540 -15.065   3.646  1.00  0.00    -0.366 OA
ATOM     37  H7  UNL     1      -2.095 -14.342   3.379  1.00  0.00     0.213 HD
ENDBRANCH  33  36
ENDBRANCH   8  33
BRANCH   1  38
HETATM   38  C4  UNL     1       1.083 -18.439   7.790  1.00  0.00     0.210 C
BRANCH  38  39
HETATM   39  C3  UNL     1       1.307 -19.543   8.752  1.00  0.00     0.086 A
HETATM   40  C2  UNL     1       2.182 -19.423   9.799  1.00  0.00     0.146 A
HETATM   41  N2  UNL     1       2.328 -20.466  10.635  1.00  0.00    -0.178 N
HETATM   42  N3  UNL     1       2.939 -18.210  10.009  1.00  0.00    -0.081 NA
HETATM   43  C1  UNL     1       1.641 -21.606  10.461  1.00  0.00     0.680 A
ATOM     44  H2  UNL     1       2.976 -20.390  11.419  1.00  0.00     0.185 HD
HETATM   45  N12 UNL     1       0.788 -21.710   9.431  1.00  0.00    -0.156 N
HETATM   46  C18 UNL     1       0.603 -20.710   8.574  1.00  0.00     0.272 A
ATOM     47  H12 UNL     1       0.267 -22.577   9.301  1.00  0.00     0.187 HD
HETATM   48  O8  UNL     1      -0.206 -20.797   7.590  1.00  0.00    -0.267 OA
BRANCH  43  49
HETATM   49  N1  UNL     1       1.784 -22.593  11.258  1.00  0.00    -0.234 N
ATOM     50  H12 UNL     1       2.587 -23.212  11.149  1.00  0.00     0.174 HD
ATOM     51  H11 UNL     1       1.110 -22.773  12.002  1.00  0.00     0.174 HD
ENDBRANCH  43  49
ENDBRANCH  38  39
BRANCH  38  52
HETATM   52  O1  UNL     1       2.235 -17.693   7.621  1.00  0.00    -0.384 OA
ATOM     53  H1  UNL     1       3.005 -18.212   7.822  1.00  0.00     0.211 HD
ENDBRANCH  38  52
ENDBRANCH   1  38
TORSDOF 16
ENDMDL