MODEL 4
REMARK VINA RESULT: -5.294323824      2.219      6.372
REMARK  17 active torsions:
REMARK  status: ('A' for Active; 'I' for Inactive)
REMARK    1  A    between atoms: C3_6  and  O1_7
REMARK    2  A    between atoms: O1_7  and  C4_8
REMARK    3  A    between atoms: C5_10  and  O3_11
REMARK    4  A    between atoms: C6_13  and  C7_14
REMARK    5  A    between atoms: C7_14  and  O4_15
REMARK    6  A    between atoms: C8_18  and  O5_19
REMARK    7  A    between atoms: C8_18  and  C9_21
REMARK    8  A    between atoms: C9_21  and  O6_22
REMARK    9  A    between atoms: C10_24  and  O7_25
REMARK   10  A    between atoms: C11_27  and  O8_28
REMARK   11  A    between atoms: O8_28  and  C12_29
REMARK   12  A    between atoms: C13_31  and  C14_32
REMARK   13  A    between atoms: C14_32  and  O10_33
REMARK   14  A    between atoms: C15_35  and  O11_37
REMARK   15  A    between atoms: C17_39  and  O12_40
REMARK   16  A    between atoms: C18_42  and  O13_43
REMARK   17  A    between atoms: C19_45  and  O14_46
ROOT
HETATM    1  C1  UNL     1      -4.872 -14.327  10.565  1.00  0.00     0.043 C
HETATM    2  C2  UNL     1      -4.565 -14.924   9.214  1.00  0.00     0.216 C
HETATM    3  N1  UNL     1      -3.516 -15.913   9.290  1.00  0.00    -0.040 N
ATOM      4  H11 UNL     1      -3.788 -16.831   8.938  1.00  0.00     0.280 HD
ATOM      5  H12 UNL     1      -3.300 -16.213  10.241  1.00  0.00     0.280 HD
HETATM    6  C3  UNL     1      -2.373 -15.317   8.577  1.00  0.00     0.355 C
HETATM    7  C11 UNL     1      -3.116 -14.718   7.402  1.00  0.00     0.212 C
HETATM    8  C19 UNL     1      -4.105 -13.858   8.219  1.00  0.00     0.181 C
ENDROOT
BRANCH   6   9
HETATM    9  O1  UNL     1      -1.397 -16.205   8.276  1.00  0.00    -0.323 OA
BRANCH   9  10
HETATM   10  C4  UNL     1      -1.691 -17.487   8.702  1.00  0.00     0.298 C
HETATM   11  O2  UNL     1      -0.826 -17.862   9.691  1.00  0.00    -0.328 OA
HETATM   12  C5  UNL     1       0.475 -18.087   9.326  1.00  0.00     0.275 C
HETATM   13  C6  UNL     1       0.728 -19.588   9.525  1.00  0.00     0.129 C
HETATM   14  S1  UNL     1      -0.002 -20.441   8.124  1.00  0.00    -0.115 SA
HETATM   15  C8  UNL     1      -1.710 -19.883   7.942  1.00  0.00     0.158 C
HETATM   16  C10 UNL     1      -1.820 -18.448   7.549  1.00  0.00     0.220 C
BRANCH  12  17
HETATM   17  O3  UNL     1       1.389 -17.356  10.084  1.00  0.00    -0.370 OA
ATOM     18  H3  UNL     1       2.121 -17.879  10.388  1.00  0.00     0.212 HD
ENDBRANCH  12  17
BRANCH  13  19
HETATM   19  C7  UNL     1       2.176 -19.902   9.717  1.00  0.00     0.184 C
BRANCH  19  20
HETATM   20  O4  UNL     1       2.902 -19.424   8.636  1.00  0.00    -0.400 OA
ATOM     21  H4  UNL     1       3.185 -20.153   8.096  1.00  0.00     0.209 HD
ENDBRANCH  19  20
ENDBRANCH  13  19
BRANCH  15  22
HETATM   22  O5  UNL     1      -2.467 -20.096   9.074  1.00  0.00    -0.374 OA
ATOM     23  H5  UNL     1      -3.330 -19.703   9.020  1.00  0.00     0.211 HD
ENDBRANCH  15  22
BRANCH  15  24
HETATM   24  C9  UNL     1      -2.335 -20.711   6.825  1.00  0.00     0.216 C
BRANCH  24  25
HETATM   25  O6  UNL     1      -1.492 -20.826   5.728  1.00  0.00    -0.397 OA
ATOM     26  H6  UNL     1      -1.725 -20.219   5.035  1.00  0.00     0.209 HD
ENDBRANCH  24  25
ENDBRANCH  15  24
BRANCH  16  27
HETATM   27  O7  UNL     1      -0.984 -18.111   6.473  1.00  0.00    -0.387 OA
ATOM     28  H7  UNL     1      -1.040 -18.736   5.760  1.00  0.00     0.210 HD
ENDBRANCH  16  27
ENDBRANCH   9  10
ENDBRANCH   6   9
BRANCH   7  29
HETATM   29  O8  UNL     1      -3.918 -15.659   6.765  1.00  0.00    -0.346 OA
BRANCH  29  30
HETATM   30  C12 UNL     1      -3.947 -15.528   5.380  1.00  0.00     0.292 C
HETATM   31  O9  UNL     1      -3.322 -16.649   4.850  1.00  0.00    -0.348 OA
HETATM   32  C13 UNL     1      -3.134 -16.615   3.490  1.00  0.00     0.184 C
HETATM   33  C15 UNL     1      -4.447 -16.542   2.767  1.00  0.00     0.111 C
HETATM   34  C16 UNL     1      -4.582 -15.337   1.880  1.00  0.00     0.051 C
HETATM   35  C17 UNL     1      -5.574 -16.541   3.768  1.00  0.00     0.188 C
HETATM   36  C18 UNL     1      -5.367 -15.509   4.854  1.00  0.00     0.205 C
BRANCH  32  37
HETATM   37  C14 UNL     1      -2.147 -15.561   3.052  1.00  0.00     0.199 C
BRANCH  37  38
HETATM   38  O10 UNL     1      -1.169 -16.115   2.239  1.00  0.00    -0.398 OA
ATOM     39  H10 UNL     1      -0.409 -15.547   2.197  1.00  0.00     0.209 HD
ENDBRANCH  37  38
ENDBRANCH  32  37
BRANCH  33  40
HETATM   40  O11 UNL     1      -4.621 -17.667   1.961  1.00  0.00    -0.385 OA
ATOM     41  H11 UNL     1      -5.539 -17.778   1.740  1.00  0.00     0.210 HD
ENDBRANCH  33  40
BRANCH  35  42
HETATM   42  O12 UNL     1      -6.756 -16.262   3.087  1.00  0.00    -0.390 OA
ATOM     43  H12 UNL     1      -7.475 -16.645   3.576  1.00  0.00     0.210 HD
ENDBRANCH  35  42
BRANCH  36  44
HETATM   44  O13 UNL     1      -5.627 -14.264   4.307  1.00  0.00    -0.388 OA
ATOM     45  H13 UNL     1      -6.130 -14.377   3.509  1.00  0.00     0.210 HD
ENDBRANCH  36  44
ENDBRANCH  29  30
ENDBRANCH   7  29
BRANCH   8  46
HETATM   46  O14 UNL     1      -3.401 -12.918   8.943  1.00  0.00    -0.391 OA
ATOM     47  H14 UNL     1      -2.586 -12.769   8.476  1.00  0.00     0.210 HD
ENDBRANCH   8  46
TORSDOF 17
ENDMDL