MODEL 1
REMARK VINA RESULT: -6.992638048      0.000      0.000
REMARK  16 active torsions:
REMARK  status: ('A' for Active; 'I' for Inactive)
REMARK    1  A    between atoms: N1_1  and  C1_4
REMARK    2  A    between atoms: N3_8  and  C3_9
REMARK    3  A    between atoms: C3_9  and  C4_10
REMARK    4  A    between atoms: C4_10  and  O1_11
REMARK    5  A    between atoms: C4_10  and  C5_13
REMARK    6  A    between atoms: C5_13  and  C6_14
REMARK    7  A    between atoms: C5_13  and  C7_17
REMARK    8  A    between atoms: C6_14  and  O2_15
REMARK    9  A    between atoms: C7_17  and  O3_18
REMARK   10  A    between atoms: C7_17  and  N4_20
REMARK   11  A    between atoms: N4_20  and  C8_21
REMARK   12  A    between atoms: C8_21  and  C9_22
REMARK   13  A    between atoms: C12_31  and  N8_32
REMARK   14  A    between atoms: N10_38  and  N11_40
REMARK   15  A    between atoms: C17_48  and  O4_49
REMARK   16  A    between atoms: C19_55  and  N15_56
ROOT
HETATM    1  N4  UNL     1      -3.397 -16.341   4.981  1.00  0.00    -0.395 NA
ENDROOT
BRANCH   1   2
HETATM    2  C7  UNL     1      -3.629 -16.285   3.634  1.00  0.00     0.198 C
BRANCH   2   3
HETATM    3  C5  UNL     1      -3.407 -15.215   2.645  1.00  0.00     0.129 C
BRANCH   3   4
HETATM    4  C4  UNL     1      -3.997 -15.351   1.320  1.00  0.00     0.152 C
BRANCH   4   5
HETATM    5  C3  UNL     1      -4.754 -14.249   0.682  1.00  0.00     0.181 C
BRANCH   5   6
HETATM    6  N3  UNL     1      -5.522 -14.756  -0.467  1.00  0.00    -0.173 N
HETATM    7  C2  UNL     1      -5.164 -15.062  -1.713  1.00  0.00     0.736 A
HETATM    8  N2  UNL     1      -3.950 -15.046  -2.310  1.00  0.00    -0.019 N
HETATM    9  N14 UNL     1      -6.232 -15.467  -2.436  1.00  0.00     0.092 N
HETATM   10  C1  UNL     1      -3.841 -15.426  -3.596  1.00  0.00     0.705 A
ATOM     11  H2  UNL     1      -3.124 -14.748  -1.789  1.00  0.00     0.203 HD
HETATM   12  N16 UNL     1      -4.939 -15.820  -4.275  1.00  0.00    -0.020 N
HETATM   13  C19 UNL     1      -6.160 -15.853  -3.723  1.00  0.00     0.727 A
ATOM     14  H16 UNL     1      -4.835 -16.105  -5.248  1.00  0.00     0.203 HD
HETATM   15  N13 UNL     1      -7.268 -15.413  -1.621  1.00  0.00    -0.260 N
HETATM   16  C18 UNL     1      -6.873 -14.984  -0.420  1.00  0.00     0.219 A
ATOM     17  H13 UNL     1      -8.225 -15.661  -1.872  1.00  0.00     0.189 HD
BRANCH  10  18
HETATM   18  N1  UNL     1      -2.694 -15.418  -4.185  1.00  0.00    -0.234 N
ATOM     19  H12 UNL     1      -1.842 -15.526  -3.634  1.00  0.00     0.174 HD
ATOM     20  H11 UNL     1      -2.633 -15.304  -5.196  1.00  0.00     0.174 HD
ENDBRANCH  10  18
BRANCH  13  21
HETATM   21  N15 UNL     1      -7.193 -16.220  -4.386  1.00  0.00    -0.232 N
ATOM     22 2H15 UNL     1      -7.813 -16.958  -4.053  1.00  0.00     0.174 HD
ATOM     23 1H15 UNL     1      -7.443 -15.799  -5.281  1.00  0.00     0.174 HD
ENDBRANCH  13  21
ENDBRANCH   5   6
ENDBRANCH   4   5
BRANCH   4  24
HETATM   24  O1  UNL     1      -3.412 -16.219   0.422  1.00  0.00    -0.393 OA
ATOM     25  H1  UNL     1      -2.512 -16.440   0.631  1.00  0.00     0.210 HD
ENDBRANCH   4  24
ENDBRANCH   3   4
BRANCH   3  26
HETATM   26  C6  UNL     1      -1.867 -15.041   2.558  1.00  0.00     0.180 C
BRANCH  26  27
HETATM   27  O2  UNL     1      -1.182 -16.201   2.413  1.00  0.00    -0.400 OA
ATOM     28  H2  UNL     1      -1.120 -16.721   3.206  1.00  0.00     0.209 HD
ENDBRANCH  26  27
ENDBRANCH   3  26
ENDBRANCH   2   3
BRANCH   2  29
HETATM   29  O3  UNL     1      -4.141 -17.370   3.076  1.00  0.00    -0.339 OA
ATOM     30  H3  UNL     1      -3.463 -17.961   2.769  1.00  0.00     0.220 HD
ENDBRANCH   2  29
ENDBRANCH   1   2
BRANCH   1  31
HETATM   31  C8  UNL     1      -3.171 -16.395   6.325  1.00  0.00     0.217 C
BRANCH  31  32
HETATM   32  C9  UNL     1      -2.242 -17.534   6.713  1.00  0.00     0.096 A
HETATM   33  N5  UNL     1      -0.932 -17.244   6.907  1.00  0.00    -0.336 N
HETATM   34  C10 UNL     1      -0.109 -18.220   7.387  1.00  0.00     0.134 A
ATOM     35  H5  UNL     1      -0.568 -16.314   6.699  1.00  0.00     0.168 HD
HETATM   36  N6  UNL     1       1.201 -17.889   7.635  1.00  0.00    -0.324 N
HETATM   37  C15 UNL     1      -0.589 -19.464   7.662  1.00  0.00     0.080 A
HETATM   38  C11 UNL     1       2.001 -18.821   8.154  1.00  0.00     0.153 A
ATOM     39  H6  UNL     1       1.553 -16.954   7.428  1.00  0.00     0.169 HD
HETATM   40  N7  UNL     1       3.300 -18.546   8.477  1.00  0.00    -0.174 N
HETATM   41  C14 UNL     1       1.509 -20.094   8.423  1.00  0.00     0.124 A
HETATM   42  C12 UNL     1       4.073 -19.513   9.043  1.00  0.00     0.679 A
ATOM     43  H7  UNL     1       3.688 -17.620   8.293  1.00  0.00     0.186 HD
HETATM   44  N9  UNL     1       3.569 -20.744   9.290  1.00  0.00    -0.173 N
HETATM   45  C13 UNL     1       2.307 -21.067   8.996  1.00  0.00     0.166 A
ATOM     46  H9  UNL     1       4.172 -21.447   9.714  1.00  0.00     0.186 HD
HETATM   47  N10 UNL     1       1.875 -22.240   9.204  1.00  0.00    -0.290 N
ATOM     48  H10 UNL     1       2.551 -22.894   9.601  1.00  0.00     0.188 HD
HETATM   49  N12 UNL     1       0.240 -20.426   8.186  1.00  0.00    -0.347 N
ATOM     50  H12 UNL     1      -0.105 -21.365   8.387  1.00  0.00     0.166 HD
HETATM   51  C16 UNL     1      -1.934 -19.797   7.468  1.00  0.00     0.072 A
HETATM   52  C17 UNL     1      -2.751 -18.768   6.979  1.00  0.00     0.097 A
BRANCH  42  53
HETATM   53  N8  UNL     1       5.296 -19.243   9.361  1.00  0.00    -0.234 N
ATOM     54  H82 UNL     1       5.911 -18.794   8.682  1.00  0.00     0.174 HD
ATOM     55  H81 UNL     1       5.640 -19.495  10.287  1.00  0.00     0.174 HD
ENDBRANCH  42  53
BRANCH  47  56
HETATM   56  N11 UNL     1       0.628 -22.749   8.968  1.00  0.00    -0.344 N
ATOM     57 2H11 UNL     1      -0.101 -22.044   8.863  1.00  0.00     0.176 HD
ATOM     58 1H11 UNL     1       0.341 -23.724   8.886  1.00  0.00     0.176 HD
ENDBRANCH  47  56
BRANCH  52  59
HETATM   59  O4  UNL     1      -4.070 -19.078   6.788  1.00  0.00    -0.358 OA
ATOM     60  H4  UNL     1      -4.498 -19.796   7.239  1.00  0.00     0.217 HD
ENDBRANCH  52  59
ENDBRANCH  31  32
ENDBRANCH   1  31
TORSDOF 16
ENDMDL