MODEL 1
REMARK VINA RESULT: -6.164116286      0.000      0.000
REMARK  18 active torsions:
REMARK  status: ('A' for Active; 'I' for Inactive)
REMARK    1  A    between atoms: O1_1  and  C1_3
REMARK    2  A    between atoms: C1_3  and  C2_4
REMARK    3  A    between atoms: C2_4  and  C3_5
REMARK    4  A    between atoms: C3_5  and  O2_6
REMARK    5  A    between atoms: C5_9  and  O3_10
REMARK    6  A    between atoms: C5_9  and  C6_12
REMARK    7  A    between atoms: C6_12  and  O4_13
REMARK    8  A    between atoms: C8_17  and  O6_18
REMARK    9  A    between atoms: O6_18  and  C9_19
REMARK   10  A    between atoms: C11_23  and  O8_24
REMARK   11  A    between atoms: O8_24  and  C12_25
REMARK   12  A    between atoms: C13_26  and  O9_27
REMARK   13  A    between atoms: C14_29  and  O10_30
REMARK   14  A    between atoms: C15_33  and  C16_34
REMARK   15  A    between atoms: C16_34  and  O12_35
REMARK   16  A    between atoms: C17_37  and  O13_38
REMARK   17  A    between atoms: C18_40  and  O14_41
REMARK   18  A    between atoms: C19_43  and  O15_44
ROOT
HETATM    1  C9  UNL     1      -1.088 -17.800   7.949  1.00  0.00     0.196 C
HETATM    2  C10 UNL     1      -2.579 -17.729   8.102  1.00  0.00     0.228 C
HETATM    3  S1  UNL     1      -3.295 -19.277   8.723  1.00  0.00    -0.060 SA
HETATM    4  O7  UNL     1      -3.255 -17.378   6.962  1.00  0.00    -0.340 OA
HETATM    5  C11 UNL     1      -2.475 -17.263   5.832  1.00  0.00     0.293 C
HETATM    6  C18 UNL     1      -1.582 -18.437   5.578  1.00  0.00     0.204 C
HETATM    7  C19 UNL     1      -0.651 -18.597   6.751  1.00  0.00     0.184 C
ENDROOT
BRANCH   1   8
HETATM    8  O6  UNL     1      -0.576 -18.315   9.137  1.00  0.00    -0.347 OA
BRANCH   8   9
HETATM    9  C8  UNL     1       0.656 -17.739   9.486  1.00  0.00     0.294 C
HETATM   10  C3  UNL     1       1.535 -18.835   9.937  1.00  0.00     0.112 C
HETATM   11  C4  UNL     1       1.096 -19.366  11.313  1.00  0.00     0.085 C
HETATM   12  C5  UNL     1       0.520 -18.347  12.216  1.00  0.00     0.103 C
HETATM   13  C7  UNL     1      -0.248 -17.266  11.544  1.00  0.00     0.211 C
HETATM   14  O5  UNL     1       0.469 -16.766  10.481  1.00  0.00    -0.355 OA
BRANCH  10  15
HETATM   15  C2  UNL     1       2.979 -18.463   9.979  1.00  0.00     0.069 C
BRANCH  15  16
HETATM   16  C1  UNL     1       3.868 -18.956   8.907  1.00  0.00     0.167 C
BRANCH  16  17
HETATM   17  O1  UNL     1       5.159 -18.485   8.895  1.00  0.00    -0.401 OA
ATOM     18  H1  UNL     1       5.701 -18.721   8.152  1.00  0.00     0.209 HD
ENDBRANCH  16  17
ENDBRANCH  15  16
ENDBRANCH  10  15
BRANCH  10  19
HETATM   19  O2  UNL     1       1.415 -19.985   9.115  1.00  0.00    -0.385 OA
ATOM     20  H2  UNL     1       0.618 -20.435   9.369  1.00  0.00     0.210 HD
ENDBRANCH  10  19
BRANCH  12  21
HETATM   21  O3  UNL     1      -0.423 -19.040  13.036  1.00  0.00    -0.385 OA
ATOM     22  H3  UNL     1      -1.277 -18.852  12.666  1.00  0.00     0.210 HD
ENDBRANCH  12  21
BRANCH  12  23
HETATM   23  C6  UNL     1       1.521 -17.779  13.207  1.00  0.00     0.204 C
BRANCH  23  24
HETATM   24  O4  UNL     1       1.876 -16.513  12.790  1.00  0.00    -0.398 OA
ATOM     25  H4  UNL     1       2.823 -16.470  12.736  1.00  0.00     0.209 HD
ENDBRANCH  23  24
ENDBRANCH  12  23
ENDBRANCH   8   9
ENDBRANCH   1   8
BRANCH   7  26
HETATM   26  O15 UNL     1      -0.568 -19.969   7.015  1.00  0.00    -0.390 OA
ATOM     27  H15 UNL     1       0.311 -20.311   6.906  1.00  0.00     0.210 HD
ENDBRANCH   7  26
BRANCH   6  28
HETATM   28  O14 UNL     1      -2.302 -19.607   5.320  1.00  0.00    -0.388 OA
ATOM     29  H14 UNL     1      -1.940 -20.361   5.771  1.00  0.00     0.210 HD
ENDBRANCH   6  28
BRANCH   5  30
HETATM   30  O8  UNL     1      -3.350 -17.169   4.737  1.00  0.00    -0.348 OA
BRANCH  30  31
HETATM   31  C12 UNL     1      -3.568 -15.841   4.369  1.00  0.00     0.189 C
HETATM   32  C13 UNL     1      -2.284 -15.368   3.697  1.00  0.00     0.204 C
HETATM   33  C14 UNL     1      -2.067 -16.248   2.509  1.00  0.00     0.288 C
HETATM   34  O11 UNL     1      -3.052 -16.161   1.572  1.00  0.00    -0.349 OA
HETATM   35  C15 UNL     1      -4.207 -15.553   1.956  1.00  0.00     0.179 C
HETATM   36  C17 UNL     1      -4.658 -15.819   3.346  1.00  0.00     0.181 C
BRANCH  32  37
HETATM   37  O9  UNL     1      -2.332 -14.042   3.338  1.00  0.00    -0.388 OA
ATOM     38  H9  UNL     1      -1.523 -13.582   3.528  1.00  0.00     0.210 HD
ENDBRANCH  32  37
BRANCH  33  39
HETATM   39  O10 UNL     1      -0.826 -15.962   1.895  1.00  0.00    -0.369 OA
ATOM     40  H10 UNL     1      -0.804 -16.300   1.007  1.00  0.00     0.212 HD
ENDBRANCH  33  39
BRANCH  35  41
HETATM   41  C16 UNL     1      -5.310 -16.067   1.016  1.00  0.00     0.198 C
BRANCH  41  42
HETATM   42  O12 UNL     1      -5.103 -17.393   0.690  1.00  0.00    -0.398 OA
ATOM     43  H12 UNL     1      -4.375 -17.486   0.087  1.00  0.00     0.209 HD
ENDBRANCH  41  42
ENDBRANCH  35  41
BRANCH  36  44
HETATM   44  O13 UNL     1      -5.416 -16.995   3.346  1.00  0.00    -0.390 OA
ATOM     45  H13 UNL     1      -5.107 -17.627   2.708  1.00  0.00     0.210 HD
ENDBRANCH  36  44
ENDBRANCH  30  31
ENDBRANCH   5  30
TORSDOF 18
ENDMDL