MODEL 4
REMARK VINA RESULT: -5.999894836      1.051      1.751
REMARK  19 active torsions:
REMARK  status: ('A' for Active; 'I' for Inactive)
REMARK    1  A    between atoms: N1_1  and  N2_4
REMARK    2  A    between atoms: N2_4  and  N3_5
REMARK    3  A    between atoms: N3_5  and  N4_7
REMARK    4  A    between atoms: N4_7  and  C1_9
REMARK    5  A    between atoms: C2_10  and  O1_11
REMARK    6  A    between atoms: C6_16  and  C7_17
REMARK    7  A    between atoms: C7_17  and  O2_18
REMARK    8  A    between atoms: C7_17  and  O3_20
REMARK    9  A    between atoms: C9_24  and  C10_25
REMARK   10  A    between atoms: C10_25  and  O5_26
REMARK   11  A    between atoms: C16_36  and  C17_37
REMARK   12  A    between atoms: C17_37  and  O9_38
REMARK   13  A    between atoms: C17_37  and  C18_40
REMARK   14  A    between atoms: C18_40  and  O10_41
REMARK   15  A    between atoms: C18_40  and  C19_43
REMARK   16  A    between atoms: C19_43  and  O11_44
REMARK   17  A    between atoms: C19_43  and  C20_46
REMARK   18  A    between atoms: C20_46  and  O12_47
REMARK   19  A    between atoms: C21_49  and  O13_50
ROOT
HETATM    1  C1  UNL     1      -4.904 -13.485   7.414  1.00  0.00     0.120 A
HETATM    2  C2  UNL     1      -3.947 -14.237   8.175  1.00  0.00     0.132 A
HETATM    3  C3  UNL     1      -3.438 -15.426   7.706  1.00  0.00     0.121 A
HETATM    4  C4  UNL     1      -2.480 -16.267   8.371  1.00  0.00     0.005 C
HETATM    5  C5  UNL     1      -1.836 -17.207   7.586  1.00  0.00     0.029 C
HETATM    6  C6  UNL     1      -0.598 -17.816   7.797  1.00  0.00     0.032 C
HETATM    7  C8  UNL     1       0.236 -17.688   8.892  1.00  0.00     0.105 A
HETATM    8  O4  UNL     1       1.346 -18.328   8.682  1.00  0.00    -0.311 OA
HETATM    9  C9  UNL     1       2.287 -18.337   9.601  1.00  0.00     0.081 A
HETATM   10  C11 UNL     1       2.159 -17.688  10.811  1.00  0.00     0.090 A
HETATM   11  C12 UNL     1       0.985 -17.001  11.054  1.00  0.00     0.191 A
HETATM   12  O6  UNL     1       0.783 -16.384  12.122  1.00  0.00    -0.287 OA
HETATM   13  C13 UNL     1       0.007 -17.000  10.081  1.00  0.00     0.099 A
HETATM   14  C14 UNL     1      -1.112 -16.276  10.457  1.00  0.00     0.189 C
HETATM   15  O7  UNL     1      -1.005 -15.698  11.551  1.00  0.00    -0.287 OA
HETATM   16  C15 UNL     1      -2.290 -16.165   9.719  1.00  0.00     0.070 C
HETATM   17  O8  UNL     1      -3.885 -15.839   6.500  1.00  0.00    -0.306 OA
HETATM   18  C16 UNL     1      -4.737 -15.210   5.778  1.00  0.00     0.120 A
HETATM   19  C21 UNL     1      -5.288 -13.991   6.212  1.00  0.00     0.129 A
ENDROOT
BRANCH   2  20
HETATM   20  O1  UNL     1      -3.601 -13.682   9.342  1.00  0.00    -0.356 OA
ATOM     21  H1  UNL     1      -3.266 -14.293   9.988  1.00  0.00     0.218 HD
ENDBRANCH   2  20
BRANCH   1  22
HETATM   22  N4  UNL     1      -5.287 -12.413   7.964  1.00  0.00    -0.282 N
ATOM     23  H4  UNL     1      -5.919 -12.590   8.745  1.00  0.00     0.188 HD
BRANCH  22  24
HETATM   24  N3  UNL     1      -5.072 -11.105   7.781  1.00  0.00    -0.226 N
ATOM     25  H3  UNL     1      -4.568 -10.588   8.502  1.00  0.00     0.205 HD
BRANCH  24  26
HETATM   26  N2  UNL     1      -5.509 -10.416   6.644  1.00  0.00    -0.014 NA
BRANCH  26  27
HETATM   27  N1  UNL     1      -4.800  -9.228   6.435  1.00  0.00    -0.327 N
ATOM     28  H12 UNL     1      -4.171  -8.827   7.131  1.00  0.00     0.174 HD
ATOM     29  H11 UNL     1      -4.988  -8.820   5.519  1.00  0.00     0.174 HD
ENDBRANCH  26  27
ENDBRANCH  24  26
ENDBRANCH  22  24
ENDBRANCH   1  22
BRANCH  18  30
HETATM   30  C17 UNL     1      -5.219 -15.686   4.446  1.00  0.00     0.209 C
BRANCH  30  31
HETATM   31  O9  UNL     1      -6.567 -16.032   4.497  1.00  0.00    -0.386 OA
ATOM     32  H9  UNL     1      -7.049 -15.441   5.064  1.00  0.00     0.210 HD
ENDBRANCH  30  31
BRANCH  30  33
HETATM   33  C18 UNL     1      -4.371 -16.841   3.972  1.00  0.00     0.184 C
BRANCH  33  34
HETATM   34  O10 UNL     1      -4.145 -16.812   2.613  1.00  0.00    -0.390 OA
ATOM     35  H10 UNL     1      -3.693 -17.586   2.300  1.00  0.00     0.210 HD
ENDBRANCH  33  34
BRANCH  33  36
HETATM   36  C19 UNL     1      -4.819 -18.168   4.486  1.00  0.00     0.173 C
BRANCH  36  37
HETATM   37  O11 UNL     1      -3.668 -18.777   5.045  1.00  0.00    -0.391 OA
ATOM     38  H11 UNL     1      -3.557 -19.599   4.581  1.00  0.00     0.210 HD
ENDBRANCH  36  37
BRANCH  36  39
HETATM   39  C20 UNL     1      -5.319 -19.118   3.449  1.00  0.00     0.198 C
BRANCH  39  40
HETATM   40  O12 UNL     1      -6.400 -18.690   2.720  1.00  0.00    -0.398 OA
ATOM     41  H12 UNL     1      -7.031 -19.359   2.487  1.00  0.00     0.209 HD
ENDBRANCH  39  40
ENDBRANCH  36  39
ENDBRANCH  33  36
ENDBRANCH  30  33
ENDBRANCH  18  30
BRANCH  19  42
HETATM   42  O13 UNL     1      -6.197 -13.338   5.426  1.00  0.00    -0.356 OA
ATOM     43  H13 UNL     1      -6.440 -13.675   4.571  1.00  0.00     0.218 HD
ENDBRANCH  19  42
BRANCH   6  44
HETATM   44  C7  UNL     1      -0.114 -18.706   6.723  1.00  0.00     0.291 C
BRANCH  44  45
HETATM   45  O2  UNL     1      -0.270 -20.055   7.048  1.00  0.00    -0.367 OA
ATOM     46  H2  UNL     1       0.278 -20.617   6.513  1.00  0.00     0.213 HD
ENDBRANCH  44  45
BRANCH  44  47
HETATM   47  O3  UNL     1      -0.766 -18.452   5.517  1.00  0.00    -0.367 OA
ATOM     48  H3  UNL     1      -0.692 -19.187   4.920  1.00  0.00     0.213 HD
ENDBRANCH  44  47
ENDBRANCH   6  44
BRANCH   9  49
HETATM   49  C10 UNL     1       3.535 -19.096   9.285  1.00  0.00     0.229 C
BRANCH  49  50
HETATM   50  O5  UNL     1       4.573 -18.255   8.944  1.00  0.00    -0.394 OA
ATOM     51  H5  UNL     1       4.406 -17.804   8.125  1.00  0.00     0.209 HD
ENDBRANCH  49  50
ENDBRANCH   9  49
TORSDOF 19
ENDMDL