MODEL 5
REMARK VINA RESULT: -5.406585197      1.878      2.666
REMARK  18 active torsions:
REMARK  status: ('A' for Active; 'I' for Inactive)
REMARK    1  A    between atoms: S1_2  and  C2_3
REMARK    2  A    between atoms: C2_3  and  O1_4
REMARK    3  A    between atoms: C3_7  and  N1_8
REMARK    4  A    between atoms: N1_8  and  C4_10
REMARK    5  A    between atoms: C4_10  and  O3_11
REMARK    6  A    between atoms: C5_13  and  O4_14
REMARK    7  A    between atoms: C7_17  and  C8_18
REMARK    8  A    between atoms: C7_17  and  C9_21
REMARK    9  A    between atoms: C8_18  and  O5_19
REMARK   10  A    between atoms: C9_21  and  O6_22
REMARK   11  A    between atoms: C10_24  and  O7_26
REMARK   12  A    between atoms: C12_28  and  O8_29
REMARK   13  A    between atoms: C13_31  and  O9_32
REMARK   14  A    between atoms: O9_32  and  C14_33
REMARK   15  A    between atoms: C16_36  and  C17_37
REMARK   16  A    between atoms: C17_37  and  O11_38
REMARK   17  A    between atoms: C18_40  and  O12_41
REMARK   18  A    between atoms: C19_43  and  O13_44
ROOT
HETATM    1  C2  UNL     1      -4.362 -16.884   8.118  1.00  0.00     0.341 C
HETATM    2  O2  UNL     1      -3.541 -17.257   9.085  1.00  0.00    -0.296 OA
HETATM    3  C3  UNL     1      -2.152 -17.265   8.937  1.00  0.00     0.259 C
HETATM    4  C12 UNL     1      -1.699 -17.655   7.589  1.00  0.00     0.222 C
HETATM    5  C13 UNL     1      -2.824 -17.583   6.560  1.00  0.00     0.302 C
HETATM    6  O14 UNL     1      -3.731 -16.593   6.935  1.00  0.00    -0.290 OA
ENDROOT
BRANCH   3   7
HETATM    7  N1  UNL     1      -1.580 -17.881  10.070  1.00  0.00    -0.359 N
ATOM      8  H1  UNL     1      -1.345 -18.871  10.003  1.00  0.00     0.159 HD
BRANCH   7   9
HETATM    9  C4  UNL     1      -1.318 -17.242  11.258  1.00  0.00     0.188 C
HETATM   10  C5  UNL     1      -0.949 -15.795  11.308  1.00  0.00     0.177 C
HETATM   11  C6  UNL     1       0.523 -15.876  10.858  1.00  0.00     0.054 C
HETATM   12  C7  UNL     1       1.032 -17.139  11.541  1.00  0.00     0.040 C
HETATM   13  C10 UNL     1      -0.152 -17.866  12.021  1.00  0.00     0.118 C
HETATM   14  C11 UNL     1      -0.114 -19.352  11.960  1.00  0.00     0.052 C
BRANCH   9  15
HETATM   15  O3  UNL     1      -2.481 -17.332  12.101  1.00  0.00    -0.366 OA
ATOM     16  H3  UNL     1      -3.257 -17.335  11.554  1.00  0.00     0.212 HD
ENDBRANCH   9  15
BRANCH  10  17
HETATM   17  O4  UNL     1      -0.988 -15.372  12.656  1.00  0.00    -0.391 OA
ATOM     18  H4  UNL     1      -1.850 -15.011  12.831  1.00  0.00     0.210 HD
ENDBRANCH  10  17
BRANCH  12  19
HETATM   19  C8  UNL     1       1.868 -16.664  12.722  1.00  0.00     0.179 C
BRANCH  19  20
HETATM   20  O5  UNL     1       2.248 -15.325  12.570  1.00  0.00    -0.400 OA
ATOM     21  H5  UNL     1       3.064 -15.144  13.021  1.00  0.00     0.209 HD
ENDBRANCH  19  20
ENDBRANCH  12  19
BRANCH  12  22
HETATM   22  C9  UNL     1       1.910 -17.875  10.588  1.00  0.00     0.179 C
BRANCH  22  23
HETATM   23  O6  UNL     1       1.458 -17.773   9.272  1.00  0.00    -0.400 OA
ATOM     24  H6  UNL     1       1.635 -16.918   8.898  1.00  0.00     0.209 HD
ENDBRANCH  22  23
ENDBRANCH  12  22
BRANCH  13  25
HETATM   25  O7  UNL     1      -0.376 -17.524  13.377  1.00  0.00    -0.384 OA
ATOM     26  H7  UNL     1       0.411 -17.797  13.833  1.00  0.00     0.210 HD
ENDBRANCH  13  25
ENDBRANCH   7   9
ENDBRANCH   3   7
BRANCH   4  27
HETATM   27  O8  UNL     1      -0.740 -16.747   7.059  1.00  0.00    -0.386 OA
ATOM     28  H8  UNL     1       0.113 -17.149   6.947  1.00  0.00     0.210 HD
ENDBRANCH   4  27
BRANCH   1  29
HETATM   29  S1  UNL     1      -5.216 -15.351   8.674  1.00  0.00    -0.075 SA
HETATM   30  C1  UNL     1      -4.148 -13.918   8.512  1.00  0.00     0.098 C
ENDBRANCH   1  29
BRANCH   1  31
HETATM   31  O1  UNL     1      -5.409 -17.823   7.879  1.00  0.00    -0.334 OA
ATOM     32  H1  UNL     1      -5.304 -18.082   6.970  1.00  0.00     0.216 HD
ENDBRANCH   1  31
BRANCH   5  33
HETATM   33  O9  UNL     1      -2.364 -17.237   5.303  1.00  0.00    -0.325 OA
BRANCH  33  34
HETATM   34  C14 UNL     1      -3.261 -16.555   4.513  1.00  0.00     0.299 C
HETATM   35  O10 UNL     1      -3.714 -17.319   3.414  1.00  0.00    -0.329 OA
HETATM   36  C15 UNL     1      -4.225 -16.639   2.318  1.00  0.00     0.145 C
HETATM   37  C16 UNL     1      -3.587 -15.572   1.904  1.00  0.00    -0.004 C
HETATM   38  C18 UNL     1      -2.359 -15.159   2.627  1.00  0.00     0.184 C
HETATM   39  C19 UNL     1      -2.603 -15.252   4.105  1.00  0.00     0.206 C
BRANCH  37  40
HETATM   40  C17 UNL     1      -4.078 -14.795   0.739  1.00  0.00     0.203 C
BRANCH  40  41
HETATM   41  O11 UNL     1      -3.564 -13.528   0.731  1.00  0.00    -0.397 OA
ATOM     42  H11 UNL     1      -2.813 -13.461   0.153  1.00  0.00     0.209 HD
ENDBRANCH  40  41
ENDBRANCH  37  40
BRANCH  38  43
HETATM   43  O12 UNL     1      -1.344 -16.054   2.276  1.00  0.00    -0.388 OA
ATOM     44  H12 UNL     1      -0.521 -15.683   2.574  1.00  0.00     0.210 HD
ENDBRANCH  38  43
BRANCH  39  45
HETATM   45  O13 UNL     1      -1.332 -15.113   4.715  1.00  0.00    -0.388 OA
ATOM     46  H13 UNL     1      -0.846 -14.391   4.330  1.00  0.00     0.210 HD
ENDBRANCH  39  45
ENDBRANCH  33  34
ENDBRANCH   5  33
TORSDOF 18
ENDMDL