MODEL 5
REMARK VINA RESULT: -6.338784017      1.032      1.609
REMARK  17 active torsions:
REMARK  status: ('A' for Active; 'I' for Inactive)
REMARK    1  A    between atoms: C2_2  and  O1_3
REMARK    2  A    between atoms: C2_2  and  C3_5
REMARK    3  A    between atoms: C3_5  and  O2_6
REMARK    4  A    between atoms: C3_5  and  C4_8
REMARK    5  A    between atoms: C4_8  and  O3_9
REMARK    6  A    between atoms: C4_8  and  C5_11
REMARK    7  A    between atoms: C6_13  and  O5_14
REMARK    8  A    between atoms: C8_18  and  N2_19
REMARK    9  A    between atoms: N2_19  and  C9_21
REMARK   10  A    between atoms: C9_21  and  C10_22
REMARK   11  A    between atoms: C10_22  and  N3_23
REMARK       I    between atoms: N3_23  and  C11_25
REMARK   12  A    between atoms: C11_25  and  C12_27
REMARK   13  A    between atoms: C14_29  and  O7_30
REMARK   14  A    between atoms: C15_32  and  O8_33
REMARK   15  A    between atoms: C17_38  and  O11_39
REMARK   16  A    between atoms: C18_41  and  N4_42
REMARK   17  A    between atoms: C19_46  and  O12_47
ROOT
HETATM    1  C5  UNL     1       0.998 -17.922   8.716  1.00  0.00     0.299 C
HETATM    2  O4  UNL     1       0.822 -17.580  10.049  1.00  0.00    -0.308 OA
HETATM    3  C6  UNL     1      -0.430 -17.033  10.321  1.00  0.00     0.283 C
HETATM    4  C7  UNL     1      -0.980 -17.810  11.432  1.00  0.00     0.131 C
HETATM    5  N1  UNL     1      -1.398 -18.444  12.320  1.00  0.00    -0.191 NA
HETATM    6  C8  UNL     1      -1.328 -16.982   9.135  1.00  0.00     0.221 C
HETATM    7  C16 UNL     1      -1.155 -18.119   8.185  1.00  0.00     0.224 C
HETATM    8  O10 UNL     1      -1.068 -17.679   6.863  1.00  0.00    -0.318 OA
HETATM    9  C17 UNL     1      -1.350 -18.718   6.019  1.00  0.00     0.293 C
HETATM   10  C18 UNL     1      -1.851 -19.873   6.843  1.00  0.00     0.272 C
HETATM   11  C19 UNL     1      -2.274 -19.105   8.114  1.00  0.00     0.218 C
HETATM   12  O13 UNL     1       0.017 -18.866   8.420  1.00  0.00    -0.317 OA
ENDROOT
BRANCH   3  13
HETATM   13  O5  UNL     1      -0.133 -15.752  10.855  1.00  0.00    -0.352 OA
ATOM     14  H5  UNL     1       0.528 -15.927  11.514  1.00  0.00     0.214 HD
ENDBRANCH   3  13
BRANCH   6  15
HETATM   15  N2  UNL     1      -2.671 -16.711   9.504  1.00  0.00    -0.406 N
ATOM     16  H2  UNL     1      -3.252 -17.418   9.954  1.00  0.00     0.154 HD
BRANCH  15  17
HETATM   17  C9  UNL     1      -3.172 -15.406   9.219  1.00  0.00     0.134 C
BRANCH  17  18
HETATM   18  C10 UNL     1      -4.222 -15.437   8.097  1.00  0.00     0.142 C
BRANCH  18  19
HETATM   19  N3  UNL     1      -3.633 -15.705   6.822  1.00  0.00    -0.354 N
HETATM   20  C11 UNL     1      -4.180 -15.173   5.621  1.00  0.00     0.275 C
HETATM   21  O6  UNL     1      -5.210 -14.449   5.698  1.00  0.00    -0.265 OA
ATOM     22  H3  UNL     1      -2.800 -16.292   6.772  1.00  0.00     0.162 HD
BRANCH  20  23
HETATM   23  C12 UNL     1      -3.583 -15.443   4.327  1.00  0.00     0.148 A
HETATM   24  C13 UNL     1      -4.247 -15.618   3.140  1.00  0.00     0.084 A
HETATM   25  C14 UNL     1      -3.291 -15.848   2.178  1.00  0.00     0.127 A
HETATM   26  C15 UNL     1      -2.065 -15.803   2.825  1.00  0.00     0.218 A
HETATM   27  O9  UNL     1      -2.307 -15.562   4.078  1.00  0.00    -0.280 OA
BRANCH  25  28
HETATM   28  O7  UNL     1      -3.530 -16.079   0.829  1.00  0.00    -0.356 OA
ATOM     29  H7  UNL     1      -2.977 -16.581   0.243  1.00  0.00     0.218 HD
ENDBRANCH  25  28
BRANCH  26  30
HETATM   30  O8  UNL     1      -0.849 -15.995   2.161  1.00  0.00    -0.339 OA
ATOM     31  H8  UNL     1      -0.359 -16.807   2.209  1.00  0.00     0.220 HD
ENDBRANCH  26  30
ENDBRANCH  20  23
ENDBRANCH  18  19
ENDBRANCH  17  18
ENDBRANCH  15  17
ENDBRANCH   6  15
BRANCH   1  32
HETATM   32  C4  UNL     1       2.402 -18.410   8.557  1.00  0.00     0.204 C
BRANCH  32  33
HETATM   33  C3  UNL     1       2.640 -19.762   9.131  1.00  0.00     0.180 C
BRANCH  33  34
HETATM   34  C2  UNL     1       4.043 -19.972   9.627  1.00  0.00     0.145 C
HETATM   35  C1  UNL     1       5.033 -19.037   9.016  1.00  0.00     0.042 C
BRANCH  34  36
HETATM   36  O1  UNL     1       4.449 -21.296   9.462  1.00  0.00    -0.393 OA
ATOM     37  H1  UNL     1       4.911 -21.406   8.640  1.00  0.00     0.210 HD
ENDBRANCH  34  36
ENDBRANCH  33  34
BRANCH  33  38
HETATM   38  O2  UNL     1       1.710 -20.105  10.093  1.00  0.00    -0.390 OA
ATOM     39  H2  UNL     1       0.824 -19.938   9.793  1.00  0.00     0.210 HD
ENDBRANCH  33  38
ENDBRANCH  32  33
BRANCH  32  40
HETATM   40  O3  UNL     1       2.610 -18.484   7.157  1.00  0.00    -0.388 OA
ATOM     41  H3  UNL     1       2.805 -19.386   6.934  1.00  0.00     0.210 HD
ENDBRANCH  32  40
ENDBRANCH   1  32
BRANCH  11  42
HETATM   42  O12 UNL     1      -3.506 -18.575   7.785  1.00  0.00    -0.388 OA
ATOM     43  H12 UNL     1      -3.483 -17.833   7.193  1.00  0.00     0.210 HD
ENDBRANCH  11  42
BRANCH   9  44
HETATM   44  O11 UNL     1      -2.331 -18.281   5.112  1.00  0.00    -0.369 OA
ATOM     45  H11 UNL     1      -2.753 -17.517   5.485  1.00  0.00     0.212 HD
ENDBRANCH   9  44
BRANCH  10  46
HETATM   46  N4  UNL     1      -3.025 -20.417   6.226  1.00  0.00    -0.068 N
ATOM     47  H43 UNL     1      -3.875 -20.183   6.738  1.00  0.00     0.275 HD
ATOM     48  H42 UNL     1      -3.252 -19.952   5.348  1.00  0.00     0.275 HD
ATOM     49  H41 UNL     1      -2.906 -21.424   6.111  1.00  0.00     0.275 HD
ENDBRANCH  10  46
TORSDOF 17
ENDMDL