MODEL 3
REMARK VINA RESULT: -8.103601602      3.050      7.574
REMARK  13 active torsions:
REMARK  status: ('A' for Active; 'I' for Inactive)
REMARK    1  A    between atoms: C1_2  and  C2_4
REMARK    2  A    between atoms: C2_4  and  N1_5
REMARK       I    between atoms: N1_5  and  C3_6
REMARK    3  A    between atoms: N1_5  and  C14_19
REMARK    4  A    between atoms: C3_6  and  C4_8
REMARK    5  A    between atoms: C4_8  and  C5_9
REMARK    6  A    between atoms: C5_9  and  C6_10
REMARK    7  A    between atoms: C6_10  and  C7_11
REMARK    8  A    between atoms: C7_11  and  C8_12
REMARK    9  A    between atoms: C8_12  and  N2_13
REMARK   10  A    between atoms: C16_21  and  C17_22
REMARK   11  A    between atoms: C19_26  and  C20_27
REMARK   12  A    between atoms: C23_33  and  C24_34
REMARK   13  A    between atoms: C24_34  and  N4_35
ROOT
HETATM    1  C14 UNL     1      18.952  23.994  17.995  1.00  0.00     0.051 A
HETATM    2  C15 UNL     1      20.376  23.867  18.157  1.00  0.00     0.046 A
HETATM    3  C16 UNL     1      20.934  23.673  19.368  1.00  0.00     0.018 A
HETATM    4  C21 UNL     1      20.098  23.598  20.461  1.00  0.00     0.016 A
HETATM    5  C22 UNL     1      18.728  23.717  20.322  1.00  0.00     0.012 A
HETATM    6  C23 UNL     1      18.127  23.920  19.069  1.00  0.00    -0.003 A
ENDROOT
BRANCH   1   7
HETATM    7  N1  UNL     1      18.532  24.261  16.671  1.00  0.00    -0.286 N
HETATM    8  C3  UNL     1      18.682  25.644  16.269  1.00  0.00     0.228 C
HETATM    9  O3  UNL     1      19.038  26.541  17.089  1.00  0.00    -0.273 OA
BRANCH   7  10
HETATM   10  C2  UNL     1      18.156  23.308  15.718  1.00  0.00     0.184 C
BRANCH  10  11
HETATM   11  C1  UNL     1      16.756  23.113  15.357  1.00  0.00     0.215 C
HETATM   12  O1  UNL     1      16.438  22.069  14.678  1.00  0.00    -0.643 OA
HETATM   13  O2  UNL     1      15.726  23.974  15.684  1.00  0.00    -0.643 OA
ENDBRANCH  10  11
ENDBRANCH   7  10
BRANCH   8  14
HETATM   14  C4  UNL     1      18.438  26.104  14.884  1.00  0.00     0.103 C
BRANCH  14  15
HETATM   15  C5  UNL     1      19.456  27.156  14.470  1.00  0.00     0.009 C
BRANCH  15  16
HETATM   16  C6  UNL     1      20.809  26.555  14.201  1.00  0.00     0.002 C
BRANCH  16  17
HETATM   17  C7  UNL     1      21.803  27.721  14.208  1.00  0.00     0.020 C
BRANCH  17  18
HETATM   18  C8  UNL     1      21.554  28.483  15.515  1.00  0.00     0.127 C
BRANCH  18  19
HETATM   19  N2  UNL     1      22.560  28.250  16.479  1.00  0.00    -0.374 N
HETATM   20  C9  UNL     1      22.354  27.279  17.470  1.00  0.00     0.063 C
HETATM   21  C10 UNL     1      23.680  26.610  17.783  1.00  0.00     0.045 C
HETATM   22  C11 UNL     1      24.431  26.262  16.504  1.00  0.00     0.010 C
HETATM   23  C12 UNL     1      24.685  27.504  15.681  1.00  0.00     0.045 C
HETATM   24  C13 UNL     1      23.869  28.685  16.209  1.00  0.00     0.063 C
ENDBRANCH  18  19
ENDBRANCH  17  18
ENDBRANCH  16  17
ENDBRANCH  15  16
ENDBRANCH  14  15
ENDBRANCH   8  14
ENDBRANCH   1   7
BRANCH   6  25
HETATM   25  C24 UNL     1      16.680  23.930  19.035  1.00  0.00     0.313 C
BRANCH  25  26
HETATM   26  N4  UNL     1      16.125  22.667  18.578  1.00  0.00     0.094 N
HETATM   27  C25 UNL     1      17.066  21.570  18.686  1.00  0.00     0.287 C
HETATM   28  C26 UNL     1      16.603  20.411  17.853  1.00  0.00     0.170 C
HETATM   29  S1  UNL     1      14.871  20.269  17.749  1.00  0.00     0.147 S
HETATM   30  O7  UNL     1      14.434  19.074  18.562  1.00  0.00    -0.228 OA
HETATM   31  O8  UNL     1      14.446  20.047  16.303  1.00  0.00    -0.228 OA
HETATM   32  C27 UNL     1      13.974  21.658  18.393  1.00  0.00     0.170 C
HETATM   33  C28 UNL     1      14.913  22.360  19.347  1.00  0.00     0.287 C
ENDBRANCH  25  26
ENDBRANCH   6  25
BRANCH   3  34
HETATM   34  C17 UNL     1      22.382  23.561  19.531  1.00  0.00     0.158 A
HETATM   35  N3  UNL     1      23.146  24.242  20.419  1.00  0.00    -0.343 N
HETATM   36  C18 UNL     1      24.431  23.893  20.290  1.00  0.00     0.134 A
ATOM     37  H3  UNL     1      22.792  24.923  21.091  1.00  0.00     0.167 HD
HETATM   38  C19 UNL     1      24.453  22.960  19.281  1.00  0.00     0.169 A
HETATM   39  O6  UNL     1      23.209  22.802  18.867  1.00  0.00    -0.285 OA
BRANCH  38  40
HETATM   40  C20 UNL     1      25.634  22.274  18.766  1.00  0.00     0.235 C
HETATM   41  O4  UNL     1      26.783  22.726  18.979  1.00  0.00    -0.642 OA
HETATM   42  O5  UNL     1      25.509  21.112  18.034  1.00  0.00    -0.642 OA
ENDBRANCH  38  40
ENDBRANCH   3  34
TORSDOF 13
ENDMDL