MODEL 5
REMARK VINA RESULT: -8.754625375      2.618      5.966
REMARK  16 active torsions:
REMARK  status: ('A' for Active; 'I' for Inactive)
REMARK    1  A    between atoms: C2_2  and  C3_3
REMARK    2  A    between atoms: C3_3  and  C4_4
REMARK    3  A    between atoms: C4_4  and  C5_5
REMARK    4  A    between atoms: C5_5  and  O1_6
REMARK    5  A    between atoms: O1_6  and  C6_7
REMARK       I    between atoms: C6_7  and  N1_9
REMARK       I    between atoms: N2_12  and  C9_13
REMARK    6  A    between atoms: C9_13  and  C10_15
REMARK    7  A    between atoms: C10_15  and  C11_16
REMARK    8  A    between atoms: C10_15  and  N4_27
REMARK    9  A    between atoms: C11_16  and  C12_17
REMARK   10  A    between atoms: C12_17  and  N3_20
REMARK       I    between atoms: N3_20  and  C15_22
REMARK   11  A    between atoms: C15_22  and  C16_24
REMARK       I    between atoms: N4_27  and  C19_29
REMARK   12  A    between atoms: C19_29  and  C20_31
REMARK   13  A    between atoms: C20_31  and  O6_32
REMARK   14  A    between atoms: O6_32  and  C21_33
REMARK   15  A    between atoms: C21_33  and  C22_35
REMARK   16  A    between atoms: C23_36  and  C24_37
ROOT
HETATM    1  C10 UNL     1      15.068  22.650  16.364  1.00  0.00     0.179 C
ENDROOT
BRANCH   1   2
HETATM    2  C9  UNL     1      13.715  22.676  15.700  1.00  0.00     0.242 C
HETATM    3  N2  UNL     1      13.138  21.534  15.106  1.00  0.00    -0.347 N
HETATM    4  C8  UNL     1      11.797  21.725  14.522  1.00  0.00     0.146 C
HETATM    5  C27 UNL     1      13.725  20.235  14.989  1.00  0.00     0.146 C
HETATM    6  C7  UNL     1      11.058  20.417  14.650  1.00  0.00     0.148 C
HETATM    7  N1  UNL     1      11.770  19.462  13.790  1.00  0.00    -0.325 N
HETATM    8  C6  UNL     1      11.013  18.480  13.126  1.00  0.00     0.362 C
HETATM    9  C28 UNL     1      13.235  19.581  13.676  1.00  0.00     0.148 C
HETATM   10  O2  UNL     1       9.774  18.376  13.227  1.00  0.00    -0.238 OA
HETATM   11  O3  UNL     1      13.112  23.781  15.694  1.00  0.00    -0.271 OA
BRANCH   8  12
HETATM   12  O1  UNL     1      11.696  17.586  12.319  1.00  0.00    -0.304 OA
BRANCH  12  13
HETATM   13  C5  UNL     1      11.918  16.246  12.615  1.00  0.00     0.180 C
BRANCH  13  14
HETATM   14  C4  UNL     1      12.055  15.368  11.430  1.00  0.00     0.027 C
BRANCH  14  15
HETATM   15  C3  UNL     1      13.366  15.363  10.736  1.00  0.00     0.002 C
BRANCH  15  16
HETATM   16  C2  UNL     1      14.590  15.385  11.581  1.00  0.00    -0.004 C
HETATM   17  C1  UNL     1      15.746  14.987  10.636  1.00  0.00     0.005 C
ENDBRANCH  15  16
ENDBRANCH  14  15
ENDBRANCH  13  14
ENDBRANCH  12  13
ENDBRANCH   8  12
ENDBRANCH   1   2
BRANCH   1  18
HETATM   18  C11 UNL     1      14.805  22.395  17.819  1.00  0.00     0.065 C
BRANCH  18  19
HETATM   19  C12 UNL     1      15.806  21.584  18.558  1.00  0.00     0.028 C
HETATM   20  C13 UNL     1      16.909  22.359  19.212  1.00  0.00     0.038 C
HETATM   21  C14 UNL     1      16.473  20.556  17.628  1.00  0.00     0.038 C
BRANCH  19  22
HETATM   22  N3  UNL     1      15.096  20.836  19.603  1.00  0.00    -0.352 N
HETATM   23  C15 UNL     1      13.915  20.110  19.414  1.00  0.00     0.222 C
HETATM   24  O4  UNL     1      13.332  20.016  18.316  1.00  0.00    -0.273 OA
ATOM     25  H3  UNL     1      15.495  20.846  20.542  1.00  0.00     0.163 HD
BRANCH  23  26
HETATM   26  C16 UNL     1      13.307  19.406  20.575  1.00  0.00     0.078 A
HETATM   27  C17 UNL     1      12.031  18.684  20.331  1.00  0.00     0.015 A
HETATM   28  C18 UNL     1      13.279  17.900  20.563  1.00  0.00     0.015 A
ENDBRANCH  23  26
ENDBRANCH  19  22
ENDBRANCH  18  19
ENDBRANCH   1  18
BRANCH   1  29
HETATM   29  N4  UNL     1      15.624  23.977  16.152  1.00  0.00    -0.346 N
HETATM   30  C19 UNL     1      16.966  24.136  15.757  1.00  0.00     0.242 C
HETATM   31  O5  UNL     1      17.680  23.113  15.590  1.00  0.00    -0.271 OA
ATOM     32  H4  UNL     1      15.037  24.799  16.291  1.00  0.00     0.163 HD
BRANCH  30  33
HETATM   33  C20 UNL     1      17.552  25.498  15.536  1.00  0.00     0.281 C
BRANCH  33  34
HETATM   34  O6  UNL     1      18.435  25.752  16.588  1.00  0.00    -0.309 OA
BRANCH  34  35
HETATM   35  C21 UNL     1      19.768  26.183  16.300  1.00  0.00     0.283 C
HETATM   36  O7  UNL     1      20.141  25.844  15.163  1.00  0.00    -0.260 OA
BRANCH  35  37
HETATM   37  C22 UNL     1      20.513  26.924  17.285  1.00  0.00     0.083 C
HETATM   38  C23 UNL     1      21.021  26.565  18.400  1.00  0.00     0.026 C
BRANCH  38  39
HETATM   39  C24 UNL     1      21.030  25.295  19.069  1.00  0.00     0.021 A
HETATM   40  C25 UNL     1      21.991  24.274  18.885  1.00  0.00     0.106 A
HETATM   41  N5  UNL     1      21.840  23.205  19.570  1.00  0.00    -0.368 N
HETATM   42  C26 UNL     1      20.841  23.053  20.410  1.00  0.00     0.138 A
ATOM     43  H5  UNL     1      22.515  22.448  19.462  1.00  0.00     0.165 HD
HETATM   44  S1  UNL     1      20.032  24.530  20.236  1.00  0.00    -0.084 SA
ENDBRANCH  38  39
ENDBRANCH  35  37
ENDBRANCH  34  35
ENDBRANCH  33  34
ENDBRANCH  30  33
ENDBRANCH   1  29
TORSDOF 16
ENDMDL