MODEL 3
REMARK VINA RESULT: -8.413101193      2.704      5.456
REMARK  16 active torsions:
REMARK  status: ('A' for Active; 'I' for Inactive)
REMARK    1  A    between atoms: C2_2  and  C3_3
REMARK    2  A    between atoms: C3_3  and  C4_4
REMARK    3  A    between atoms: C4_4  and  N1_5
REMARK    4  A    between atoms: N1_5  and  C5_7
REMARK    5  A    between atoms: C8_12  and  N3_13
REMARK    6  A    between atoms: N3_13  and  C9_15
REMARK    7  A    between atoms: C9_15  and  C10_16
REMARK    8  A    between atoms: C10_16  and  C11_17
REMARK    9  A    between atoms: C11_17  and  N4_18
REMARK   10  A    between atoms: N5_21  and  C14_22
REMARK   11  A    between atoms: C17_25  and  N6_26
REMARK   12  A    between atoms: C18_29  and  N7_30
REMARK   13  A    between atoms: N7_30  and  C20_32
REMARK   14  A    between atoms: C20_32  and  C21_33
REMARK   15  A    between atoms: C21_33  and  C22_34
REMARK   16  A    between atoms: C22_34  and  N8_35
ROOT
HETATM    1  N4  UNL     1      16.181  21.860  18.531  1.00  0.00     0.091 N
HETATM    2  C12 UNL     1      15.191  22.844  18.263  1.00  0.00     0.292 C
HETATM    3  C13 UNL     1      15.812  24.115  17.777  1.00  0.00     0.153 C
HETATM    4  N5  UNL     1      16.900  23.845  16.871  1.00  0.00    -0.377 N
HETATM    5  C30 UNL     1      17.006  22.498  16.319  1.00  0.00     0.153 C
HETATM    6  C31 UNL     1      17.013  21.481  17.430  1.00  0.00     0.292 C
ENDROOT
BRANCH   4   7
HETATM    7  C14 UNL     1      17.870  24.797  16.468  1.00  0.00     0.038 A
HETATM    8  C15 UNL     1      17.642  25.431  15.268  1.00  0.00     0.032 A
HETATM    9  C16 UNL     1      18.556  26.345  14.845  1.00  0.00     0.041 A
HETATM   10  C17 UNL     1      19.726  26.660  15.600  1.00  0.00     0.130 A
HETATM   11  C18 UNL     1      19.956  26.037  16.779  1.00  0.00     0.071 A
HETATM   12  C28 UNL     1      18.989  25.087  17.203  1.00  0.00    -0.006 A
HETATM   13  C29 UNL     1      19.256  24.423  18.505  1.00  0.00     0.053 C
BRANCH  10  14
HETATM   14  N6  UNL     1      20.531  27.680  15.067  1.00  0.00    -0.113 N
HETATM   15  O1  UNL     1      20.590  28.811  15.458  1.00  0.00    -0.532 OA
HETATM   16  O2  UNL     1      21.352  27.348  13.983  1.00  0.00    -0.532 OA
ENDBRANCH  10  14
BRANCH  11  17
HETATM   17  N7  UNL     1      21.100  26.216  17.585  1.00  0.00    -0.383 N
HETATM   18  C19 UNL     1      20.982  27.180  18.700  1.00  0.00     0.150 C
BRANCH  17  19
HETATM   19  C20 UNL     1      22.304  25.459  17.558  1.00  0.00     0.124 C
BRANCH  19  20
HETATM   20  C21 UNL     1      22.840  25.095  18.878  1.00  0.00     0.040 C
BRANCH  20  21
HETATM   21  C22 UNL     1      23.226  23.616  18.962  1.00  0.00     0.127 C
BRANCH  21  22
HETATM   22  N8  UNL     1      24.679  23.495  18.881  1.00  0.00    -0.352 N
HETATM   23  C23 UNL     1      25.555  24.646  18.825  1.00  0.00     0.125 C
HETATM   24  C24 UNL     1      26.949  24.108  18.485  1.00  0.00     0.020 C
HETATM   25  C25 UNL     1      27.349  23.201  19.635  1.00  0.00     0.011 C
HETATM   26  C26 UNL     1      26.604  21.887  19.439  1.00  0.00     0.103 C
HETATM   27  C27 UNL     1      25.270  22.200  18.855  1.00  0.00     0.219 C
HETATM   28  O3  UNL     1      24.634  21.239  18.302  1.00  0.00    -0.273 OA
ENDBRANCH  21  22
ENDBRANCH  20  21
ENDBRANCH  19  20
ENDBRANCH  17  19
ENDBRANCH  11  17
ENDBRANCH   4   7
BRANCH   1  29
HETATM   29  C11 UNL     1      15.753  20.699  19.234  1.00  0.00     0.274 C
BRANCH  29  30
HETATM   30  C10 UNL     1      14.633  20.879  20.197  1.00  0.00     0.050 C
BRANCH  30  31
HETATM   31  C9  UNL     1      14.218  19.557  20.822  1.00  0.00     0.123 C
BRANCH  31  32
HETATM   32  N3  UNL     1      12.880  19.200  20.518  1.00  0.00    -0.376 N
ATOM     33  H3  UNL     1      12.210  19.275  21.283  1.00  0.00     0.161 HD
BRANCH  32  34
HETATM   34  C8  UNL     1      12.415  18.796  19.400  1.00  0.00     0.118 A
HETATM   35  C7  UNL     1      12.253  17.454  19.166  1.00  0.00     0.066 A
HETATM   36  C6  UNL     1      11.730  16.996  17.966  1.00  0.00     0.110 A
HETATM   37  N2  UNL     1      11.392  17.945  17.053  1.00  0.00    -0.202 N
HETATM   38  C5  UNL     1      11.555  19.250  17.296  1.00  0.00     0.679 A
ATOM     39  H2  UNL     1      11.002  17.653  16.156  1.00  0.00     0.183 HD
HETATM   40  N9  UNL     1      12.059  19.701  18.446  1.00  0.00    -0.177 N
ATOM     41  H9  UNL     1      12.175  20.701  18.607  1.00  0.00     0.185 HD
BRANCH  38  42
HETATM   42  N1  UNL     1      11.210  20.153  16.408  1.00  0.00    -0.226 N
ATOM     43  H1  UNL     1      10.318  20.644  16.484  1.00  0.00     0.177 HD
BRANCH  42  44
HETATM   44  C4  UNL     1      12.118  20.440  15.317  1.00  0.00     0.138 C
BRANCH  44  45
HETATM   45  C3  UNL     1      11.534  21.574  14.471  1.00  0.00     0.020 C
BRANCH  45  46
HETATM   46  C2  UNL     1      12.639  22.460  13.976  1.00  0.00    -0.003 C
HETATM   47  C1  UNL     1      13.239  23.244  15.129  1.00  0.00     0.005 C
ENDBRANCH  45  46
ENDBRANCH  44  45
ENDBRANCH  42  44
ENDBRANCH  38  42
ENDBRANCH  32  34
ENDBRANCH  31  32
ENDBRANCH  30  31
ENDBRANCH  29  30
ENDBRANCH   1  29
TORSDOF 16
ENDMDL