MODEL 5
REMARK VINA RESULT: -8.816319093      4.128     10.994
REMARK  15 active torsions:
REMARK  status: ('A' for Active; 'I' for Inactive)
REMARK    1  A    between atoms: C2_2  and  C3_3
REMARK    2  A    between atoms: C3_3  and  N1_4
REMARK    3  A    between atoms: N1_4  and  C4_6
REMARK    4  A    between atoms: C5_9  and  C6_10
REMARK    5  A    between atoms: C6_10  and  N3_11
REMARK    6  A    between atoms: N4_14  and  C9_15
REMARK    7  A    between atoms: C12_18  and  C13_19
REMARK    8  A    between atoms: C13_19  and  C14_20
REMARK    9  A    between atoms: C14_20  and  N5_21
REMARK   10  A    between atoms: N6_24  and  C17_25
REMARK   11  A    between atoms: C17_25  and  C18_26
REMARK   12  A    between atoms: C18_26  and  O1_27
REMARK   13  A    between atoms: C18_26  and  C19_29
REMARK   14  A    between atoms: C19_29  and  C20_30
REMARK   15  A    between atoms: C20_30  and  C21_31
REMARK       I    between atoms: C21_31  and  N7_33
ROOT
HETATM    1  C9  UNL     1      17.881  22.785  19.108  1.00  0.00     0.103 A
HETATM    2  C10 UNL     1      18.735  21.775  19.494  1.00  0.00     0.049 A
HETATM    3  C11 UNL     1      19.980  22.050  20.071  1.00  0.00     0.012 A
HETATM    4  C12 UNL     1      20.345  23.352  20.252  1.00  0.00    -0.041 A
HETATM    5  C28 UNL     1      19.485  24.356  19.861  1.00  0.00     0.096 A
HETATM    6  N8  UNL     1      18.280  24.049  19.301  1.00  0.00    -0.352 N
ATOM      7  H8  UNL     1      17.660  24.809  19.020  1.00  0.00     0.166 HD
ENDROOT
BRANCH   4   8
HETATM    8  C13 UNL     1      21.599  23.736  20.900  1.00  0.00     0.070 C
BRANCH   8   9
HETATM    9  C14 UNL     1      22.657  23.700  19.784  1.00  0.00     0.277 C
BRANCH   9  10
HETATM   10  N5  UNL     1      23.981  23.545  20.265  1.00  0.00     0.092 N
HETATM   11  C15 UNL     1      24.582  24.779  20.749  1.00  0.00     0.302 C
HETATM   12  C16 UNL     1      25.456  25.438  19.712  1.00  0.00     0.302 C
HETATM   13  N6  UNL     1      24.816  25.026  18.430  1.00  0.00     0.094 N
HETATM   14  C26 UNL     1      25.236  23.696  18.173  1.00  0.00     0.302 C
HETATM   15  C27 UNL     1      24.858  22.832  19.386  1.00  0.00     0.302 C
BRANCH  13  16
HETATM   16  C17 UNL     1      24.964  26.031  17.458  1.00  0.00     0.303 C
BRANCH  16  17
HETATM   17  C18 UNL     1      23.683  26.322  16.732  1.00  0.00     0.146 C
BRANCH  17  18
HETATM   18  O1  UNL     1      23.717  26.178  15.368  1.00  0.00    -0.394 OA
ATOM     19  H1  UNL     1      24.412  25.630  15.023  1.00  0.00     0.210 HD
ENDBRANCH  17  18
BRANCH  17  20
HETATM   20  C19 UNL     1      23.080  27.662  17.091  1.00  0.00     0.042 C
BRANCH  20  21
HETATM   21  C20 UNL     1      21.613  27.495  17.376  1.00  0.00     0.105 C
BRANCH  21  22
HETATM   22  C21 UNL     1      20.816  27.728  16.151  1.00  0.00     0.219 C
HETATM   23  O2  UNL     1      20.972  28.841  15.546  1.00  0.00    -0.273 OA
HETATM   24  N7  UNL     1      19.920  26.786  15.644  1.00  0.00    -0.352 N
HETATM   25  C22 UNL     1      19.122  26.936  14.436  1.00  0.00     0.126 C
HETATM   26  C25 UNL     1      19.587  25.493  16.190  1.00  0.00     0.126 C
HETATM   27  C23 UNL     1      17.947  26.018  14.608  1.00  0.00     0.021 C
HETATM   28  C24 UNL     1      18.077  25.475  16.032  1.00  0.00     0.021 C
ENDBRANCH  21  22
ENDBRANCH  20  21
ENDBRANCH  17  20
ENDBRANCH  16  17
ENDBRANCH  13  16
ENDBRANCH   9  10
ENDBRANCH   8   9
ENDBRANCH   4   8
BRANCH   1  29
HETATM   29  N4  UNL     1      16.615  22.515  18.541  1.00  0.00    -0.361 N
HETATM   30  C8  UNL     1      15.782  23.578  18.038  1.00  0.00     0.145 C
HETATM   31  C7  UNL     1      14.367  23.029  17.808  1.00  0.00     0.147 C
HETATM   32  N3  UNL     1      14.418  21.925  16.953  1.00  0.00    -0.365 N
HETATM   33  C30 UNL     1      15.518  21.051  17.043  1.00  0.00     0.083 C
HETATM   34  C29 UNL     1      16.101  21.138  18.446  1.00  0.00     0.169 C
BRANCH  32  35
HETATM   35  C6  UNL     1      13.584  21.833  15.836  1.00  0.00     0.120 C
BRANCH  35  36
HETATM   36  C5  UNL     1      12.519  20.745  15.989  1.00  0.00     0.056 A
HETATM   37  N2  UNL     1      12.151  20.262  17.139  1.00  0.00    -0.335 N
HETATM   38  C4  UNL     1      11.209  19.320  17.178  1.00  0.00     0.144 A
ATOM     39  H2  UNL     1      12.578  20.601  18.001  1.00  0.00     0.168 HD
HETATM   40  S1  UNL     1      10.827  19.105  15.522  1.00  0.00    -0.064 SA
HETATM   41  C31 UNL     1      11.908  20.251  14.867  1.00  0.00     0.084 A
BRANCH  38  42
HETATM   42  N1  UNL     1      10.699  18.696  18.221  1.00  0.00    -0.370 N
ATOM     43  H1  UNL     1       9.701  18.488  18.251  1.00  0.00     0.161 HD
BRANCH  42  44
HETATM   44  C3  UNL     1      11.537  18.310  19.308  1.00  0.00     0.121 C
BRANCH  44  45
HETATM   45  C2  UNL     1      12.442  17.141  18.986  1.00  0.00     0.015 C
HETATM   46  C1  UNL     1      13.887  17.514  18.978  1.00  0.00     0.006 C
ENDBRANCH  44  45
ENDBRANCH  42  44
ENDBRANCH  38  42
ENDBRANCH  35  36
ENDBRANCH  32  35
ENDBRANCH   1  29
TORSDOF 15
ENDMDL