MODEL 4
REMARK VINA RESULT: -9.046243691      1.720      3.205
REMARK  14 active torsions:
REMARK  status: ('A' for Active; 'I' for Inactive)
REMARK    1  A    between atoms: C4_5  and  C5_6
REMARK    2  A    between atoms: C5_6  and  C6_7
REMARK    3  A    between atoms: C6_7  and  C7_8
REMARK    4  A    between atoms: C7_8  and  C8_9
REMARK    5  A    between atoms: C11_12  and  C12_13
REMARK       I    between atoms: C12_13  and  N1_15
REMARK    6  A    between atoms: C17_21  and  C18_22
REMARK    7  A    between atoms: C18_22  and  O4_23
REMARK    8  A    between atoms: O4_23  and  C19_24
REMARK    9  A    between atoms: C19_24  and  C20_25
REMARK   10  A    between atoms: N2_27  and  C22_28
REMARK   11  A    between atoms: C22_28  and  C23_29
REMARK       I    between atoms: C23_29  and  N3_31
REMARK   12  A    between atoms: N3_31  and  C24_33
REMARK   13  A    between atoms: C24_33  and  C25_34
REMARK   14  A    between atoms: C25_34  and  C26_35
ROOT
HETATM    1  C8  UNL     1      14.343  19.996  19.801  1.00  0.00    -0.058 A
HETATM    2  C9  UNL     1      14.947  19.138  18.866  1.00  0.00     0.008 A
HETATM    3  C10 UNL     1      15.409  19.565  17.680  1.00  0.00     0.018 A
HETATM    4  C11 UNL     1      15.282  20.943  17.362  1.00  0.00     0.040 A
HETATM    5  C17 UNL     1      14.713  21.770  18.261  1.00  0.00    -0.018 A
HETATM    6  C30 UNL     1      14.218  21.346  19.504  1.00  0.00     0.017 A
ENDROOT
BRANCH   5   7
HETATM    7  C18 UNL     1      14.707  23.274  17.977  1.00  0.00     0.207 C
BRANCH   7   8
HETATM    8  O4  UNL     1      15.894  23.749  18.237  1.00  0.00    -0.382 OA
BRANCH   8   9
HETATM    9  C19 UNL     1      16.538  24.854  18.265  1.00  0.00     0.212 C
BRANCH   9  10
HETATM   10  C20 UNL     1      17.629  25.166  17.260  1.00  0.00     0.040 A
HETATM   11  C21 UNL     1      18.846  25.655  17.633  1.00  0.00     0.113 A
HETATM   12  N2  UNL     1      19.646  26.089  16.687  1.00  0.00    -0.316 N
HETATM   13  S1  UNL     1      18.794  25.851  15.261  1.00  0.00     0.032 SA
HETATM   14  C29 UNL     1      17.375  25.185  15.908  1.00  0.00     0.238 A
HETATM   15  O6  UNL     1      16.308  24.780  15.318  1.00  0.00    -0.278 OA
BRANCH  12  16
HETATM   16  C22 UNL     1      20.909  26.878  16.771  1.00  0.00     0.239 C
BRANCH  16  17
HETATM   17  C23 UNL     1      21.661  26.286  17.889  1.00  0.00     0.236 C
HETATM   18  O5  UNL     1      21.676  26.934  18.976  1.00  0.00    -0.272 OA
HETATM   19  N3  UNL     1      22.353  25.066  17.806  1.00  0.00    -0.359 N
ATOM     20  H3  UNL     1      22.331  24.526  16.941  1.00  0.00     0.162 HD
BRANCH  19  21
HETATM   21  C24 UNL     1      23.113  24.566  18.973  1.00  0.00     0.130 C
BRANCH  21  22
HETATM   22  C25 UNL     1      22.550  23.263  19.479  1.00  0.00     0.096 C
BRANCH  22  23
HETATM   23  C26 UNL     1      21.148  23.352  19.947  1.00  0.00     0.082 A
HETATM   24  N4  UNL     1      20.709  24.391  20.715  1.00  0.00    -0.354 N
HETATM   25  C27 UNL     1      19.424  24.233  20.942  1.00  0.00     0.106 A
ATOM     26  H4  UNL     1      21.282  25.163  21.056  1.00  0.00     0.166 HD
HETATM   27  C28 UNL     1      18.986  23.064  20.319  1.00  0.00     0.106 A
HETATM   28  N5  UNL     1      20.104  22.598  19.741  1.00  0.00    -0.354 N
ATOM     29  H5  UNL     1      20.134  21.737  19.194  1.00  0.00     0.166 HD
ENDBRANCH  22  23
ENDBRANCH  21  22
ENDBRANCH  19  21
ENDBRANCH  16  17
ENDBRANCH  12  16
ENDBRANCH   9  10
ENDBRANCH   8   9
ENDBRANCH   7   8
ENDBRANCH   5   7
BRANCH   4  30
HETATM   30  C12 UNL     1      15.722  21.324  16.051  1.00  0.00     0.254 C
HETATM   31  O2  UNL     1      16.896  21.680  15.843  1.00  0.00    -0.267 OA
HETATM   32  N1  UNL     1      14.806  21.273  14.933  1.00  0.00    -0.344 N
HETATM   33  C13 UNL     1      15.361  21.566  13.634  1.00  0.00     0.152 C
HETATM   34  C16 UNL     1      13.431  20.949  15.126  1.00  0.00     0.152 C
HETATM   35  C14 UNL     1      14.368  21.723  12.556  1.00  0.00     0.187 C
HETATM   36  O3  UNL     1      13.158  21.099  12.773  1.00  0.00    -0.388 OA
HETATM   37  C15 UNL     1      12.606  21.531  13.993  1.00  0.00     0.187 C
ENDBRANCH   4  30
BRANCH   1  38
HETATM   38  C7  UNL     1      13.922  19.409  21.077  1.00  0.00     0.039 C
BRANCH  38  39
HETATM   39  C6  UNL     1      12.509  18.886  21.135  1.00  0.00     0.010 C
BRANCH  39  40
HETATM   40  C5  UNL     1      12.316  17.597  20.456  1.00  0.00     0.053 C
BRANCH  40  41
HETATM   41  C4  UNL     1      11.540  17.508  19.219  1.00  0.00    -0.010 C
HETATM   42  C3  UNL     1      11.192  18.776  18.458  1.00  0.00     0.062 C
HETATM   43  C2  UNL     1      11.081  18.217  17.019  1.00  0.00     0.108 C
HETATM   44  C1  UNL     1      10.440  16.951  17.344  1.00  0.00     0.222 C
HETATM   45  O1  UNL     1       9.507  16.294  16.778  1.00  0.00    -0.273 OA
HETATM   46  N6  UNL     1      11.087  16.507  18.543  1.00  0.00    -0.334 N
ATOM     47  H6  UNL     1      11.177  15.531  18.823  1.00  0.00     0.168 HD
ENDBRANCH  40  41
ENDBRANCH  39  40
ENDBRANCH  38  39
ENDBRANCH   1  38
TORSDOF 14
ENDMDL