MODEL 2
REMARK VINA RESULT: -8.798178736      1.095      1.354
REMARK  16 active torsions:
REMARK  status: ('A' for Active; 'I' for Inactive)
REMARK    1  A    between atoms: O1_2  and  C2_3
REMARK    2  A    between atoms: C5_8  and  C6_9
REMARK    3  A    between atoms: C6_9  and  N2_10
REMARK    4  A    between atoms: N3_13  and  C9_14
REMARK    5  A    between atoms: C9_14  and  C10_15
REMARK    6  A    between atoms: C10_15  and  O2_16
REMARK    7  A    between atoms: C10_15  and  N4_18
REMARK    8  A    between atoms: N4_18  and  C11_19
REMARK    9  A    between atoms: C11_19  and  C12_20
REMARK   10  A    between atoms: C12_20  and  C13_21
REMARK   11  A    between atoms: C13_21  and  C14_22
REMARK   12  A    between atoms: N6_34  and  C22_36
REMARK   13  A    between atoms: C22_36  and  C23_37
REMARK   14  A    between atoms: C23_37  and  C24_38
REMARK   15  A    between atoms: C24_38  and  N7_39
REMARK   16  A    between atoms: C32_47  and  O4_48
ROOT
HETATM    1  C2  UNL     1      19.547  26.914  15.774  1.00  0.00     0.103 A
HETATM    2  C3  UNL     1      18.670  26.033  15.219  1.00  0.00     0.070 A
HETATM    3  C4  UNL     1      18.293  24.819  15.820  1.00  0.00     0.048 A
HETATM    4  N1  UNL     1      17.396  24.034  15.217  1.00  0.00    -0.355 N
ATOM      5  H1  UNL     1      17.022  24.321  14.312  1.00  0.00     0.166 HD
HETATM    6  C5  UNL     1      16.961  22.858  15.770  1.00  0.00     0.045 A
HETATM    7  C20 UNL     1      17.495  22.543  16.967  1.00  0.00     0.060 A
HETATM    8  C21 UNL     1      18.445  23.322  17.665  1.00  0.00     0.046 A
HETATM    9  N6  UNL     1      18.916  23.117  18.768  1.00  0.00    -0.368 N
ATOM     10  H6  UNL     1      19.560  23.895  18.916  1.00  0.00     0.165 HD
HETATM   11  C30 UNL     1      18.845  24.523  17.029  1.00  0.00     0.020 A
HETATM   12  C31 UNL     1      19.737  25.385  17.633  1.00  0.00     0.055 A
HETATM   13  C32 UNL     1      20.094  26.576  17.015  1.00  0.00     0.102 A
ENDROOT
BRANCH   6  14
HETATM   14  C6  UNL     1      15.900  22.132  15.100  1.00  0.00     0.089 C
BRANCH  14  15
HETATM   15  N2  UNL     1      14.528  22.385  15.405  1.00  0.00    -0.287 NA
HETATM   16  C7  UNL     1      13.898  22.235  14.036  1.00  0.00     0.125 C
HETATM   17  C8  UNL     1      12.407  22.251  14.102  1.00  0.00     0.287 C
HETATM   18  N3  UNL     1      11.934  21.051  14.831  1.00  0.00     0.099 N
HETATM   19  C18 UNL     1      12.551  21.043  16.136  1.00  0.00     0.287 C
HETATM   20  C19 UNL     1      14.002  21.291  16.209  1.00  0.00     0.125 C
BRANCH  18  21
HETATM   21  C9  UNL     1      12.191  19.851  14.117  1.00  0.00     0.371 C
BRANCH  21  22
HETATM   22  C10 UNL     1      11.102  18.840  14.169  1.00  0.00     0.217 C
BRANCH  22  23
HETATM   23  O2  UNL     1      10.442  18.721  13.046  1.00  0.00    -0.338 OA
ATOM     24  H2  UNL     1       9.602  18.288  13.141  1.00  0.00     0.220 HD
ENDBRANCH  22  23
BRANCH  22  25
HETATM   25  N4  UNL     1      10.758  18.079  15.186  1.00  0.00    -0.400 NA
BRANCH  25  26
HETATM   26  C11 UNL     1      10.435  17.410  16.109  1.00  0.00     0.158 C
BRANCH  26  27
HETATM   27  C12 UNL     1      10.693  17.725  17.560  1.00  0.00     0.062 C
BRANCH  27  28
HETATM   28  C13 UNL     1      11.493  16.698  18.257  1.00  0.00     0.040 C
BRANCH  28  29
HETATM   29  C14 UNL     1      12.619  17.287  19.100  1.00  0.00     0.147 C
HETATM   30  C15 UNL     1      12.293  17.320  20.572  1.00  0.00     0.264 C
HETATM   31  N5  UNL     1      12.342  18.640  21.147  1.00  0.00    -0.071 N
HETATM   32  C16 UNL     1      13.567  19.316  20.805  1.00  0.00     0.258 C
ATOM     33  H52 UNL     1      11.526  19.192  20.887  1.00  0.00     0.277 HD
ATOM     34  H51 UNL     1      12.199  18.613  22.156  1.00  0.00     0.277 HD
HETATM   35  C17 UNL     1      13.868  19.199  19.331  1.00  0.00     0.195 C
HETATM   36  O3  UNL     1      12.830  18.593  18.620  1.00  0.00    -0.383 OA
ENDBRANCH  28  29
ENDBRANCH  27  28
ENDBRANCH  26  27
ENDBRANCH  25  26
ENDBRANCH  22  25
ENDBRANCH  21  22
ENDBRANCH  18  21
ENDBRANCH  14  15
ENDBRANCH   6  14
BRANCH   9  37
HETATM   37  C22 UNL     1      19.022  22.359  19.928  1.00  0.00     0.066 C
BRANCH  37  38
HETATM   38  C23 UNL     1      20.376  22.585  20.558  1.00  0.00     0.089 C
BRANCH  38  39
HETATM   39  C24 UNL     1      21.535  22.868  19.711  1.00  0.00     0.068 C
BRANCH  39  40
HETATM   40  N7  UNL     1      22.486  23.811  19.999  1.00  0.00    -0.374 N
HETATM   41  C25 UNL     1      22.350  24.497  21.268  1.00  0.00     0.127 C
HETATM   42  C26 UNL     1      23.612  24.486  22.065  1.00  0.00     0.021 C
HETATM   43  C27 UNL     1      24.856  24.743  21.266  1.00  0.00     0.007 C
HETATM   44  C28 UNL     1      24.861  23.787  20.071  1.00  0.00     0.044 C
HETATM   45  C29 UNL     1      23.613  24.158  19.270  1.00  0.00     0.063 C
ENDBRANCH  39  40
ENDBRANCH  38  39
ENDBRANCH  37  38
ENDBRANCH   9  37
BRANCH   1  46
HETATM   46  O1  UNL     1      19.903  28.127  15.140  1.00  0.00    -0.353 OA
HETATM   47  C1  UNL     1      20.892  28.062  14.131  1.00  0.00     0.210 C
ENDBRANCH   1  46
BRANCH  13  48
HETATM   48  O4  UNL     1      20.983  27.491  17.565  1.00  0.00    -0.353 OA
HETATM   49  C33 UNL     1      22.360  27.298  17.677  1.00  0.00     0.210 C
ENDBRANCH  13  48
TORSDOF 16
ENDMDL