MODEL 4
REMARK VINA RESULT: -8.198411463      1.415      1.654
REMARK  16 active torsions:
REMARK  status: ('A' for Active; 'I' for Inactive)
REMARK    1  A    between atoms: C2_2  and  C3_3
REMARK    2  A    between atoms: C3_3  and  C4_4
REMARK    3  A    between atoms: C4_4  and  C5_5
REMARK    4  A    between atoms: C5_5  and  C6_6
REMARK    5  A    between atoms: C6_6  and  N1_7
REMARK       I    between atoms: N1_7  and  C7_9
REMARK    6  A    between atoms: C7_9  and  C8_11
REMARK    7  A    between atoms: C8_11  and  C9_12
REMARK    8  A    between atoms: C8_11  and  O2_24
REMARK    9  A    between atoms: C9_12  and  C10_13
REMARK   10  A    between atoms: O2_24  and  C17_25
REMARK       I    between atoms: C17_25  and  N4_27
REMARK   11  A    between atoms: N5_30  and  C20_31
REMARK   12  A    between atoms: C20_31  and  C23_34
REMARK   13  A    between atoms: C23_34  and  C24_36
REMARK   14  A    between atoms: C24_36  and  O5_37
REMARK   15  A    between atoms: O5_37  and  C25_38
REMARK   16  A    between atoms: C25_38  and  C26_40
ROOT
HETATM    1  C8  UNL     1      13.559  21.445  16.195  1.00  0.00     0.227 C
ENDROOT
BRANCH   1   2
HETATM    2  C7  UNL     1      13.531  21.108  14.735  1.00  0.00     0.247 C
HETATM    3  N1  UNL     1      13.342  19.777  14.274  1.00  0.00    -0.359 N
ATOM      4  H1  UNL     1      13.224  19.044  14.974  1.00  0.00     0.162 HD
HETATM    5  O1  UNL     1      13.677  22.012  13.877  1.00  0.00    -0.271 OA
BRANCH   3   6
HETATM    6  C6  UNL     1      13.304  19.396  12.904  1.00  0.00     0.122 C
BRANCH   6   7
HETATM    7  C5  UNL     1      12.385  18.239  12.591  1.00  0.00     0.020 C
BRANCH   7   8
HETATM    8  C4  UNL     1      10.982  18.485  13.087  1.00  0.00     0.002 C
BRANCH   8   9
HETATM    9  C3  UNL     1      10.285  17.158  13.295  1.00  0.00    -0.000 C
BRANCH   9  10
HETATM   10  C2  UNL     1      11.300  16.072  13.490  1.00  0.00    -0.005 C
HETATM   11  C1  UNL     1      10.776  15.043  14.472  1.00  0.00     0.005 C
ENDBRANCH   9  10
ENDBRANCH   8   9
ENDBRANCH   7   8
ENDBRANCH   6   7
ENDBRANCH   3   6
ENDBRANCH   1   2
BRANCH   1  12
HETATM   12  C9  UNL     1      13.512  20.142  16.960  1.00  0.00     0.067 C
BRANCH  12  13
HETATM   13  C10 UNL     1      12.386  20.097  17.951  1.00  0.00     0.089 C
HETATM   14  C11 UNL     1      11.064  19.748  17.306  1.00  0.00     0.027 C
HETATM   15  C12 UNL     1      11.143  18.330  16.754  1.00  0.00     0.022 C
HETATM   16  C13 UNL     1      10.327  17.461  17.678  1.00  0.00     0.121 C
HETATM   17  N2  UNL     1      10.894  17.414  18.993  1.00  0.00    -0.371 N
HETATM   18  C14 UNL     1      11.831  18.079  19.512  1.00  0.00     0.138 C
ATOM     19  H2  UNL     1      10.468  16.726  19.614  1.00  0.00     0.161 HD
HETATM   20  S1  UNL     1      12.363  17.830  21.199  1.00  0.00    -0.093 SA
HETATM   21  N3  UNL     1      12.659  19.111  18.994  1.00  0.00    -0.356 N
HETATM   22  C15 UNL     1      13.667  19.133  21.173  1.00  0.00     0.102 C
HETATM   23  C16 UNL     1      13.942  19.101  19.661  1.00  0.00     0.136 C
ENDBRANCH  12  13
ENDBRANCH   1  12
BRANCH   1  24
HETATM   24  O2  UNL     1      14.826  22.021  16.481  1.00  0.00    -0.289 OA
BRANCH  24  25
HETATM   25  C17 UNL     1      15.052  23.102  17.282  1.00  0.00     0.363 C
HETATM   26  O3  UNL     1      14.112  23.858  17.565  1.00  0.00    -0.238 OA
HETATM   27  N4  UNL     1      16.385  23.337  17.777  1.00  0.00    -0.322 N
HETATM   28  C18 UNL     1      16.643  24.479  18.621  1.00  0.00     0.172 C
HETATM   29  C29 UNL     1      17.455  22.434  17.423  1.00  0.00     0.148 C
HETATM   30  C19 UNL     1      17.527  24.026  19.764  1.00  0.00     0.079 C
HETATM   31  N5  UNL     1      18.648  23.376  19.215  1.00  0.00    -0.375 N
HETATM   32  C28 UNL     1      18.352  22.130  18.643  1.00  0.00     0.143 C
BRANCH  31  33
HETATM   33  C20 UNL     1      19.938  23.716  19.632  1.00  0.00     0.087 C
HETATM   34  C21 UNL     1      19.929  24.684  20.806  1.00  0.00     0.046 C
HETATM   35  C22 UNL     1      20.638  22.431  20.109  1.00  0.00     0.046 C
BRANCH  33  36
HETATM   36  C23 UNL     1      20.797  24.311  18.579  1.00  0.00     0.178 C
HETATM   37  O4  UNL     1      21.957  23.965  18.491  1.00  0.00    -0.293 OA
BRANCH  36  38
HETATM   38  C24 UNL     1      20.302  25.317  17.624  1.00  0.00     0.259 C
BRANCH  38  39
HETATM   39  O5  UNL     1      19.809  24.815  16.429  1.00  0.00    -0.314 OA
BRANCH  39  40
HETATM   40  C25 UNL     1      19.245  25.636  15.482  1.00  0.00     0.258 C
HETATM   41  O6  UNL     1      17.998  25.737  15.375  1.00  0.00    -0.265 OA
BRANCH  40  42
HETATM   42  C26 UNL     1      20.153  26.398  14.591  1.00  0.00     0.106 C
HETATM   43  C27 UNL     1      19.974  27.870  14.886  1.00  0.00     0.015 C
ENDBRANCH  40  42
ENDBRANCH  39  40
ENDBRANCH  38  39
ENDBRANCH  36  38
ENDBRANCH  33  36
ENDBRANCH  31  33
ENDBRANCH  24  25
ENDBRANCH   1  24
TORSDOF 16
ENDMDL