MODEL 1
REMARK VINA RESULT: -8.842159319      0.000      0.000
REMARK  13 active torsions:
REMARK  status: ('A' for Active; 'I' for Inactive)
REMARK    1  A    between atoms: C2_2  and  C3_3
REMARK    2  A    between atoms: C3_3  and  C4_4
REMARK    3  A    between atoms: C4_4  and  C5_6
REMARK    4  A    between atoms: C5_6  and  C6_7
REMARK    5  A    between atoms: C6_7  and  N1_8
REMARK    6  A    between atoms: C9_11  and  C10_12
REMARK    7  A    between atoms: C10_12  and  S1_13
REMARK    8  A    between atoms: S1_13  and  N2_16
REMARK       I    between atoms: N2_16  and  C11_18
REMARK       I    between atoms: C11_18  and  N3_20
REMARK    9  A    between atoms: N3_20  and  C12_22
REMARK   10  A    between atoms: N5_26  and  C14_27
REMARK   11  A    between atoms: C14_27  and  C15_28
REMARK   12  A    between atoms: C15_28  and  C16_29
REMARK       I    between atoms: C16_29  and  N6_31
REMARK   13  A    between atoms: C22_37  and  N7_38
ROOT
HETATM    1  N2  UNL     1      20.924  25.900  16.278  1.00  0.00    -0.236 N
ATOM      2  H2  UNL     1      21.674  25.270  15.997  1.00  0.00     0.183 HD
HETATM    3  C11 UNL     1      19.637  25.341  16.473  1.00  0.00     0.334 C
HETATM    4  O4  UNL     1      18.692  26.055  16.818  1.00  0.00    -0.246 OA
HETATM    5  N3  UNL     1      19.479  23.958  16.259  1.00  0.00    -0.304 N
ATOM      6  H3  UNL     1      20.305  23.432  15.976  1.00  0.00     0.171 HD
ENDROOT
BRANCH   5   7
HETATM    7  C12 UNL     1      18.267  23.238  16.402  1.00  0.00     0.099 A
HETATM    8  C13 UNL     1      17.340  22.855  15.461  1.00  0.00     0.141 A
HETATM    9  N4  UNL     1      16.346  22.184  16.060  1.00  0.00    -0.306 N
HETATM   10  N5  UNL     1      16.584  22.113  17.355  1.00  0.00    -0.275 N
ATOM     11  H4  UNL     1      15.532  21.789  15.588  1.00  0.00     0.186 HD
HETATM   12  C22 UNL     1      17.745  22.741  17.614  1.00  0.00     0.149 A
BRANCH  10  13
HETATM   13  C14 UNL     1      15.783  21.484  18.397  1.00  0.00     0.160 C
BRANCH  13  14
HETATM   14  C15 UNL     1      15.378  20.072  18.037  1.00  0.00     0.125 C
BRANCH  14  15
HETATM   15  C16 UNL     1      13.926  20.102  17.692  1.00  0.00     0.221 C
HETATM   16  O5  UNL     1      13.462  20.972  16.888  1.00  0.00    -0.273 OA
HETATM   17  N6  UNL     1      13.076  19.136  18.281  1.00  0.00    -0.352 N
HETATM   18  C17 UNL     1      13.642  18.145  19.156  1.00  0.00     0.125 C
HETATM   19  C21 UNL     1      11.662  19.214  17.986  1.00  0.00     0.125 C
HETATM   20  C18 UNL     1      12.574  17.530  20.045  1.00  0.00     0.020 C
HETATM   21  C19 UNL     1      11.550  16.940  19.069  1.00  0.00     0.003 C
HETATM   22  C20 UNL     1      10.839  18.064  18.408  1.00  0.00     0.020 C
ENDBRANCH  14  15
ENDBRANCH  13  14
ENDBRANCH  10  13
BRANCH  12  23
HETATM   23  N7  UNL     1      18.396  22.918  18.843  1.00  0.00    -0.364 N
HETATM   24  C23 UNL     1      18.240  24.050  19.721  1.00  0.00     0.124 C
HETATM   25  C24 UNL     1      19.593  24.258  20.383  1.00  0.00     0.021 C
HETATM   26  C25 UNL     1      20.238  22.910  20.282  1.00  0.00     0.021 C
HETATM   27  C26 UNL     1      19.330  22.024  19.461  1.00  0.00     0.124 C
ENDBRANCH  12  23
ENDBRANCH   5   7
BRANCH   1  28
HETATM   28  S1  UNL     1      21.316  27.566  16.479  1.00  0.00     0.234 S
HETATM   29  O2  UNL     1      21.059  27.980  17.866  1.00  0.00    -0.206 OA
HETATM   30  O3  UNL     1      20.405  28.405  15.575  1.00  0.00    -0.206 OA
BRANCH  28  31
HETATM   31  C10 UNL     1      22.994  27.764  15.966  1.00  0.00     0.168 C
BRANCH  31  32
HETATM   32  C9  UNL     1      23.882  26.592  16.208  1.00  0.00     0.004 C
HETATM   33  C8  UNL     1      25.268  26.930  15.610  1.00  0.00     0.036 C
HETATM   34  C7  UNL     1      26.272  26.152  16.431  1.00  0.00     0.272 C
HETATM   35  N1  UNL     1      26.415  26.849  17.703  1.00  0.00     0.088 N
HETATM   36  C28 UNL     1      25.117  27.039  18.326  1.00  0.00     0.272 C
HETATM   37  C27 UNL     1      24.044  26.206  17.637  1.00  0.00     0.036 C
BRANCH  35  38
HETATM   38  C6  UNL     1      27.318  26.116  18.558  1.00  0.00     0.279 C
BRANCH  38  39
HETATM   39  C5  UNL     1      27.347  24.641  18.330  1.00  0.00     0.108 C
BRANCH  39  40
HETATM   40  C4  UNL     1      26.722  23.840  19.410  1.00  0.00     0.128 C
HETATM   41  O1  UNL     1      26.306  24.441  20.401  1.00  0.00    -0.298 OA
BRANCH  40  42
HETATM   42  C3  UNL     1      26.581  22.381  19.338  1.00  0.00     0.078 C
BRANCH  42  43
HETATM   43  C2  UNL     1      25.308  22.007  18.576  1.00  0.00     0.003 C
HETATM   44  C1  UNL     1      25.438  20.534  18.190  1.00  0.00     0.005 C
ENDBRANCH  42  43
ENDBRANCH  40  42
ENDBRANCH  39  40
ENDBRANCH  38  39
ENDBRANCH  35  38
ENDBRANCH  31  32
ENDBRANCH  28  31
ENDBRANCH   1  28
TORSDOF 13
ENDMDL