MODEL 5
REMARK VINA RESULT: -8.770189679      2.578      6.023
REMARK  13 active torsions:
REMARK  status: ('A' for Active; 'I' for Inactive)
REMARK    1  A    between atoms: C2_3  and  C3_4
REMARK    2  A    between atoms: C3_4  and  N2_5
REMARK    3  A    between atoms: N3_8  and  C6_9
REMARK    4  A    between atoms: C6_9  and  C7_10
REMARK    5  A    between atoms: C7_10  and  N4_11
REMARK       I    between atoms: N4_11  and  C8_12
REMARK       I    between atoms: C8_12  and  N5_14
REMARK    6  A    between atoms: N5_14  and  C9_16
REMARK    7  A    between atoms: C9_16  and  C10_17
REMARK    8  A    between atoms: C10_17  and  C11_18
REMARK    9  A    between atoms: C11_18  and  O2_19
REMARK   10  A    between atoms: O2_19  and  C12_20
REMARK   11  A    between atoms: C12_20  and  C13_21
REMARK   12  A    between atoms: C13_21  and  C14_22
REMARK   13  A    between atoms: C14_22  and  N6_23
ROOT
HETATM    1  C1  UNL     1      19.871  21.828  20.874  1.00  0.00     0.158 C
HETATM    2  N1  UNL     1      19.789  22.819  19.831  1.00  0.00    -0.329 N
HETATM    3  C2  UNL     1      20.443  23.984  19.702  1.00  0.00     0.057 A
HETATM    4  C29 UNL     1      20.003  24.578  18.538  1.00  0.00     0.117 A
HETATM    5  N7  UNL     1      19.074  23.765  17.950  1.00  0.00    -0.342 N
ATOM      6  H7  UNL     1      18.570  23.933  17.080  1.00  0.00     0.167 HD
HETATM    7  C30 UNL     1      18.966  22.704  18.756  1.00  0.00     0.190 A
HETATM    8  C31 UNL     1      18.078  21.621  18.461  1.00  0.00     0.137 C
HETATM    9  N8  UNL     1      17.335  20.756  18.200  1.00  0.00    -0.188 NA
ENDROOT
BRANCH   3  10
HETATM   10  C3  UNL     1      21.438  24.505  20.644  1.00  0.00     0.331 C
BRANCH  10  11
HETATM   11  N2  UNL     1      22.764  24.543  20.103  1.00  0.00     0.097 N
HETATM   12  C4  UNL     1      23.159  23.296  19.490  1.00  0.00     0.292 C
HETATM   13  C5  UNL     1      24.252  23.700  18.464  1.00  0.00     0.147 C
HETATM   14  N3  UNL     1      25.195  24.529  19.116  1.00  0.00    -0.404 N
HETATM   15  C27 UNL     1      25.114  24.502  20.561  1.00  0.00     0.147 C
HETATM   16  C28 UNL     1      23.760  24.985  21.050  1.00  0.00     0.292 C
BRANCH  14  17
HETATM   17  C6  UNL     1      25.464  25.815  18.600  1.00  0.00     0.176 C
BRANCH  17  18
HETATM   18  C7  UNL     1      25.408  26.013  17.147  1.00  0.00     0.180 C
BRANCH  18  19
HETATM   19  N4  UNL     1      24.335  26.630  16.534  1.00  0.00    -0.367 NA
HETATM   20  C8  UNL     1      23.265  27.245  15.925  1.00  0.00     0.393 C
HETATM   21  O1  UNL     1      23.069  28.461  15.681  1.00  0.00    -0.230 OA
HETATM   22  N5  UNL     1      22.242  26.282  15.514  1.00  0.00    -0.331 N
ATOM     23  H5  UNL     1      22.288  25.315  15.835  1.00  0.00     0.165 HD
BRANCH  22  24
HETATM   24  C9  UNL     1      21.165  26.712  14.649  1.00  0.00     0.127 C
BRANCH  24  25
HETATM   25  C10 UNL     1      19.961  26.838  15.639  1.00  0.00     0.046 C
BRANCH  25  26
HETATM   26  C11 UNL     1      18.801  26.192  14.999  1.00  0.00     0.176 C
BRANCH  26  27
HETATM   27  O2  UNL     1      17.879  25.558  15.751  1.00  0.00    -0.363 OA
BRANCH  27  28
HETATM   28  C12 UNL     1      17.246  24.456  15.306  1.00  0.00     0.136 C
BRANCH  28  29
HETATM   29  C13 UNL     1      16.093  23.879  15.993  1.00  0.00     0.041 C
BRANCH  29  30
HETATM   30  C14 UNL     1      15.582  22.546  15.670  1.00  0.00     0.090 C
BRANCH  30  31
HETATM   31  N6  UNL     1      14.848  21.894  16.662  1.00  0.00    -0.362 N
HETATM   32  C15 UNL     1      13.842  21.117  16.552  1.00  0.00     0.092 C
HETATM   33  C16 UNL     1      13.198  20.736  15.279  1.00  0.00     0.177 C
HETATM   34  C20 UNL     1      13.297  20.432  17.732  1.00  0.00     0.043 C
HETATM   35  O3  UNL     1      13.725  20.582  14.223  1.00  0.00    -0.291 OA
HETATM   36  C17 UNL     1      11.673  20.549  15.525  1.00  0.00     0.089 C
HETATM   37  C18 UNL     1      11.716  19.190  16.271  1.00  0.00     0.043 C
HETATM   38  C19 UNL     1      12.315  19.541  17.610  1.00  0.00    -0.063 C
HETATM   39  C26 UNL     1      11.822  18.913  18.854  1.00  0.00     0.044 C
HETATM   40  C23 UNL     1      12.971  18.522  19.747  1.00  0.00    -0.037 C
HETATM   41  C22 UNL     1      13.834  19.703  20.155  1.00  0.00     0.093 C
HETATM   42  C24 UNL     1      12.398  17.838  20.965  1.00  0.00     0.015 C
HETATM   43  C25 UNL     1      13.785  17.502  18.934  1.00  0.00     0.015 C
HETATM   44  C21 UNL     1      13.839  20.700  19.057  1.00  0.00     0.162 C
HETATM   45  O4  UNL     1      14.330  21.866  19.251  1.00  0.00    -0.292 OA
ATOM     46  H6  UNL     1      15.162  22.064  17.618  1.00  0.00     0.165 HD
ENDBRANCH  30  31
ENDBRANCH  29  30
ENDBRANCH  28  29
ENDBRANCH  27  28
ENDBRANCH  26  27
ENDBRANCH  25  26
ENDBRANCH  24  25
ENDBRANCH  22  24
ENDBRANCH  18  19
ENDBRANCH  17  18
ENDBRANCH  14  17
ENDBRANCH  10  11
ENDBRANCH   3  10
TORSDOF 13
ENDMDL