MODEL 2
REMARK VINA RESULT: -8.770788139      2.988     10.961
REMARK  14 active torsions:
REMARK  status: ('A' for Active; 'I' for Inactive)
REMARK    1  A    between atoms: C2_2  and  O1_3
REMARK    2  A    between atoms: O1_3  and  C3_4
REMARK       I    between atoms: C3_4  and  N1_6
REMARK       I    between atoms: N2_9  and  C6_10
REMARK    3  A    between atoms: C6_10  and  C7_12
REMARK    4  A    between atoms: C7_12  and  C8_13
REMARK    5  A    between atoms: C7_12  and  N3_17
REMARK    6  A    between atoms: C8_13  and  C9_14
REMARK    7  A    between atoms: C9_14  and  S1_15
REMARK       I    between atoms: N3_17  and  C11_19
REMARK    8  A    between atoms: C11_19  and  C12_21
REMARK    9  A    between atoms: C12_21  and  C13_22
REMARK   10  A    between atoms: C12_21  and  N4_29
REMARK   11  A    between atoms: C13_22  and  C14_23
REMARK   12  A    between atoms: C21_31  and  C22_32
REMARK   13  A    between atoms: C22_32  and  N5_33
REMARK       I    between atoms: N5_33  and  C23_35
REMARK   14  A    between atoms: C23_35  and  C24_37
ROOT
HETATM    1  C12 UNL     1      15.137  21.212  18.073  1.00  0.00     0.201 C
ENDROOT
BRANCH   1   2
HETATM    2  C11 UNL     1      16.347  22.023  18.226  1.00  0.00     0.247 C
HETATM    3  N3  UNL     1      16.440  23.212  19.011  1.00  0.00    -0.321 N
ATOM      4  H3  UNL     1      15.625  23.540  19.530  1.00  0.00     0.169 HD
HETATM    5  O4  UNL     1      17.400  21.626  17.595  1.00  0.00    -0.271 OA
BRANCH   3   6
HETATM    6  C7  UNL     1      17.667  23.948  19.078  1.00  0.00     0.103 C
BRANCH   6   7
HETATM    7  C6  UNL     1      17.900  24.809  17.896  1.00  0.00     0.270 C
HETATM    8  N2  UNL     1      19.015  24.998  17.124  1.00  0.00    -0.344 N
HETATM    9  C5  UNL     1      20.254  24.287  17.264  1.00  0.00     0.146 C
HETATM   10  C27 UNL     1      19.031  26.015  16.047  1.00  0.00     0.146 C
HETATM   11  C4  UNL     1      21.309  25.253  17.763  1.00  0.00     0.148 C
HETATM   12  N1  UNL     1      21.303  26.396  16.872  1.00  0.00    -0.325 N
HETATM   13  C3  UNL     1      22.533  26.868  16.318  1.00  0.00     0.362 C
HETATM   14  C28 UNL     1      20.051  27.043  16.561  1.00  0.00     0.148 C
HETATM   15  O2  UNL     1      22.576  27.841  15.547  1.00  0.00    -0.238 OA
HETATM   16  O3  UNL     1      16.846  25.487  17.559  1.00  0.00    -0.266 OA
BRANCH  13  17
HETATM   17  O1  UNL     1      23.732  26.230  16.639  1.00  0.00    -0.304 OA
BRANCH  17  18
HETATM   18  C2  UNL     1      24.893  27.006  16.843  1.00  0.00     0.176 C
HETATM   19  C1  UNL     1      25.910  26.628  15.807  1.00  0.00     0.034 C
ENDBRANCH  17  18
ENDBRANCH  13  17
ENDBRANCH   6   7
BRANCH   6  20
HETATM   20  C8  UNL     1      18.033  24.518  20.382  1.00  0.00     0.042 C
BRANCH  20  21
HETATM   21  C9  UNL     1      19.267  24.227  21.093  1.00  0.00     0.047 C
BRANCH  21  22
HETATM   22  S1  UNL     1      20.335  22.901  20.687  1.00  0.00    -0.146 SA
HETATM   23  C10 UNL     1      19.654  21.324  20.277  1.00  0.00     0.095 C
ENDBRANCH  21  22
ENDBRANCH  20  21
ENDBRANCH   6  20
ENDBRANCH   3   6
ENDBRANCH   1   2
BRANCH   1  24
HETATM   24  C13 UNL     1      14.326  20.901  19.265  1.00  0.00     0.041 C
BRANCH  24  25
HETATM   25  C14 UNL     1      13.986  19.482  19.562  1.00  0.00    -0.012 C
HETATM   26  C15 UNL     1      13.312  18.754  18.468  1.00  0.00     0.005 C
HETATM   27  C16 UNL     1      13.268  17.258  18.885  1.00  0.00     0.000 C
HETATM   28  C17 UNL     1      12.192  17.254  19.979  1.00  0.00     0.000 C
HETATM   29  C18 UNL     1      12.646  18.037  21.156  1.00  0.00     0.000 C
HETATM   30  C19 UNL     1      13.370  19.290  20.918  1.00  0.00     0.005 C
ENDBRANCH  24  25
ENDBRANCH   1  24
BRANCH   1  31
HETATM   31  N4  UNL     1      14.298  21.867  17.052  1.00  0.00    -0.273 N
HETATM   32  C20 UNL     1      13.683  21.315  16.017  1.00  0.00     0.140 A
HETATM   33  C21 UNL     1      12.990  22.312  15.320  1.00  0.00     0.062 A
HETATM   34  N6  UNL     1      13.235  23.432  15.988  1.00  0.00    -0.287 N
HETATM   35  N7  UNL     1      14.017  23.155  17.022  1.00  0.00    -0.240 N
ATOM     36  H6  UNL     1      12.879  24.357  15.745  1.00  0.00     0.188 HD
ATOM     37  H7  UNL     1      14.353  23.840  17.698  1.00  0.00     0.208 HD
BRANCH  33  38
HETATM   38  C22 UNL     1      12.179  22.050  14.097  1.00  0.00     0.182 C
BRANCH  38  39
HETATM   39  N5  UNL     1      11.197  21.029  14.385  1.00  0.00    -0.355 N
HETATM   40  C23 UNL     1      11.447  19.691  13.967  1.00  0.00     0.222 C
HETATM   41  O5  UNL     1      12.493  19.387  13.365  1.00  0.00    -0.273 OA
ATOM     42  H5  UNL     1      10.337  21.264  14.881  1.00  0.00     0.162 HD
BRANCH  40  43
HETATM   43  C24 UNL     1      10.454  18.614  14.240  1.00  0.00     0.078 A
HETATM   44  C25 UNL     1      10.546  18.100  15.673  1.00  0.00     0.015 A
HETATM   45  C26 UNL     1      10.901  17.234  14.528  1.00  0.00     0.015 A
ENDBRANCH  40  43
ENDBRANCH  38  39
ENDBRANCH  33  38
ENDBRANCH   1  31
TORSDOF 14
ENDMDL