MODEL 2
REMARK VINA RESULT: -4.652407796      1.517      3.146
REMARK  4 active torsions:
REMARK  status: ('A' for Active; 'I' for Inactive)
REMARK    1  A    between atoms: C3_3  and  O1_4
REMARK    2  A    between atoms: C4_6  and  O2_7
REMARK    3  A    between atoms: C5_9  and  O3_10
REMARK    4  A    between atoms: C7_13  and  O4_15
ROOT
HETATM    1  C1  UNL     1       1.896   1.955  14.721  1.00  0.00     0.016 C
HETATM    2  C2  UNL     1       2.132   0.920  13.626  1.00  0.00     0.047 C
HETATM    3  C3  UNL     1       1.187   1.154  12.518  1.00  0.00     0.156 C
HETATM    4  C4  UNL     1       0.326  -0.074  12.189  1.00  0.00     0.176 C
HETATM    5  C5  UNL     1       1.375  -1.175  11.968  1.00  0.00     0.152 C
HETATM    6  C6  UNL     1       1.821  -1.567  13.345  1.00  0.00     0.072 C
HETATM    7  C7  UNL     1       2.102  -0.426  14.253  1.00  0.00     0.062 C
HETATM    8  C8  UNL     1       3.483  -0.683  14.879  1.00  0.00     0.046 C
ENDROOT
BRANCH   7   9
HETATM    9  O4  UNL     1       1.197  -0.489  15.336  1.00  0.00    -0.390 OA
ATOM     10  H4  UNL     1       1.515  -1.047  16.036  1.00  0.00     0.210 HD
ENDBRANCH   7   9
BRANCH   3  11
HETATM   11  O1  UNL     1       0.318   2.211  12.689  1.00  0.00    -0.392 OA
ATOM     12  H1  UNL     1      -0.505   2.146  12.218  1.00  0.00     0.210 HD
ENDBRANCH   3  11
BRANCH   5  13
HETATM   13  O3  UNL     1       0.872  -2.242  11.277  1.00  0.00    -0.393 OA
ATOM     14  H3  UNL     1       0.980  -2.150  10.338  1.00  0.00     0.210 HD
ENDBRANCH   5  13
BRANCH   4  15
HETATM   15  O2  UNL     1      -0.436   0.152  11.077  1.00  0.00    -0.390 OA
ATOM     16  H2  UNL     1      -0.992  -0.596  10.891  1.00  0.00     0.210 HD
ENDBRANCH   4  15
TORSDOF 4
ENDMDL