MODEL 2
REMARK VINA RESULT: -4.223747612      3.090      4.980
REMARK  4 active torsions:
REMARK  status: ('A' for Active; 'I' for Inactive)
REMARK    1  A    between atoms: C4_5  and  O2_6
REMARK    2  A    between atoms: C5_8  and  O3_9
REMARK    3  A    between atoms: C6_11  and  O4_12
REMARK    4  A    between atoms: C7_14  and  O5_15
ROOT
HETATM    1  C1  UNL     1       0.328   0.360  14.596  1.00  0.00     0.048 C
HETATM    2  C2  UNL     1       1.347  -0.039  15.672  1.00  0.00     0.085 C
HETATM    3  C3  UNL     1       2.411  -0.887  14.989  1.00  0.00     0.048 C
HETATM    4  O1  UNL     1       0.677  -0.853  16.560  1.00  0.00    -0.346 OA
HETATM    5  C4  UNL     1       0.143  -0.108  17.587  1.00  0.00     0.289 C
HETATM    6  C5  UNL     1       1.292   0.280  18.519  1.00  0.00     0.204 C
HETATM    7  C6  UNL     1       2.242   1.113  17.718  1.00  0.00     0.183 C
HETATM    8  C7  UNL     1       1.896   1.206  16.262  1.00  0.00     0.183 C
ENDROOT
BRANCH   8   9
HETATM    9  O5  UNL     1       3.085   1.518  15.572  1.00  0.00    -0.390 OA
ATOM     10  H5  UNL     1       2.863   2.123  14.875  1.00  0.00     0.210 HD
ENDBRANCH   8   9
BRANCH   5  11
HETATM   11  O2  UNL     1      -0.831  -0.835  18.231  1.00  0.00    -0.368 OA
ATOM     12  H2  UNL     1      -1.084  -0.394  19.033  1.00  0.00     0.212 HD
ENDBRANCH   5  11
BRANCH   7  13
HETATM   13  O4  UNL     1       3.584   0.748  17.915  1.00  0.00    -0.390 OA
ATOM     14  H4  UNL     1       3.993   0.408  17.127  1.00  0.00     0.210 HD
ENDBRANCH   7  13
BRANCH   6  15
HETATM   15  O3  UNL     1       1.887  -0.847  19.084  1.00  0.00    -0.388 OA
ATOM     16  H3  UNL     1       2.016  -0.737  20.018  1.00  0.00     0.210 HD
ENDBRANCH   6  15
TORSDOF 4
ENDMDL