MODEL 4
REMARK VINA RESULT: -4.970035611      1.254      1.484
REMARK  3 active torsions:
REMARK  status: ('A' for Active; 'I' for Inactive)
REMARK    1  A    between atoms: O1_1  and  C1_3
REMARK    2  A    between atoms: C6_9  and  O2_10
REMARK    3  A    between atoms: C7_12  and  O3_13
ROOT
HETATM    1  C1  UNL     1       3.070  -0.021  14.953  1.00  0.00     0.122 C
HETATM    2  C2  UNL     1       2.889  -1.441  14.519  1.00  0.00     0.062 C
HETATM    3  C3  UNL     1       1.767  -1.667  13.583  1.00  0.00     0.275 C
HETATM    4  N1  UNL     1       1.717  -0.703  12.497  1.00  0.00     0.096 N
HETATM    5  C4  UNL     1       0.570  -1.079  11.691  1.00  0.00     0.275 C
HETATM    6  C5  UNL     1      -0.004   0.042  10.901  1.00  0.00     0.064 C
HETATM    7  C6  UNL     1       1.086   1.085  10.672  1.00  0.00     0.150 C
HETATM    8  C7  UNL     1       1.408   1.675  12.011  1.00  0.00     0.180 C
HETATM    9  C8  UNL     1       1.490   0.584  13.082  1.00  0.00     0.256 C
HETATM   10  C9  UNL     1       2.504   1.008  14.073  1.00  0.00     0.070 C
ENDROOT
BRANCH   1  11
HETATM   11  O1  UNL     1       2.566   0.149  16.264  1.00  0.00    -0.395 OA
ATOM     12  H1  UNL     1       1.990   0.904  16.294  1.00  0.00     0.210 HD
ENDBRANCH   1  11
BRANCH   8  13
HETATM   13  O3  UNL     1       0.439   2.573  12.417  1.00  0.00    -0.391 OA
ATOM     14  H3  UNL     1      -0.424   2.318  12.111  1.00  0.00     0.210 HD
ENDBRANCH   8  13
BRANCH   7  15
HETATM   15  O2  UNL     1       0.639   2.066   9.799  1.00  0.00    -0.393 OA
ATOM     16  H2  UNL     1      -0.105   1.751   9.300  1.00  0.00     0.210 HD
ENDBRANCH   7  15
TORSDOF 3
ENDMDL