MODEL 3
REMARK VINA RESULT: -5.182046497      1.576      2.273
REMARK  3 active torsions:
REMARK  status: ('A' for Active; 'I' for Inactive)
REMARK    1  A    between atoms: C7_8  and  O1_9
REMARK    2  A    between atoms: C8_11  and  O2_12
REMARK    3  A    between atoms: C8_11  and  O3_14
ROOT
HETATM    1  C1  UNL     1       3.007   2.913  14.057  1.00  0.00     0.310 C
HETATM    2  N1  UNL     1       1.840   2.022  14.072  1.00  0.00     0.094 N
HETATM    3  C2  UNL     1       0.907   2.538  13.092  1.00  0.00     0.273 C
HETATM    4  C3  UNL     1       0.681   1.404  12.084  1.00  0.00     0.037 C
HETATM    5  C4  UNL     1       0.965   0.208  12.914  1.00  0.00     0.026 C
HETATM    6  C5  UNL     1       1.431  -0.997  12.172  1.00  0.00     0.010 C
HETATM    7  C6  UNL     1       1.751  -2.073  13.194  1.00  0.00     0.038 C
HETATM    8  C7  UNL     1       2.673  -1.626  14.269  1.00  0.00     0.182 C
HETATM    9  C8  UNL     1       2.305  -0.269  14.857  1.00  0.00     0.218 C
HETATM   10  C9  UNL     1       2.178   0.691  13.724  1.00  0.00     0.290 C
ENDROOT
BRANCH   9  11
HETATM   11  O2  UNL     1       1.043  -0.363  15.476  1.00  0.00    -0.362 OA
ATOM     12  H2  UNL     1       0.366  -0.255  14.819  1.00  0.00     0.213 HD
ENDBRANCH   9  11
BRANCH   9  13
HETATM   13  O3  UNL     1       3.281   0.136  15.736  1.00  0.00    -0.362 OA
ATOM     14  H3  UNL     1       3.922  -0.556  15.845  1.00  0.00     0.213 HD
ENDBRANCH   9  13
BRANCH   8  15
HETATM   15  O1  UNL     1       2.627  -2.563  15.302  1.00  0.00    -0.390 OA
ATOM     16  H1  UNL     1       2.075  -2.217  15.994  1.00  0.00     0.210 HD
ENDBRANCH   8  15
TORSDOF 3
ENDMDL