MODEL 3
REMARK VINA RESULT: -4.472322793      1.634      4.056
REMARK  3 active torsions:
REMARK  status: ('A' for Active; 'I' for Inactive)
REMARK    1  A    between atoms: C3_3  and  O1_4
REMARK    2  A    between atoms: C7_10  and  O3_11
REMARK    3  A    between atoms: C8_13  and  O4_14
ROOT
HETATM    1  C1  UNL     1       1.494  -1.580  12.376  1.00  0.00     0.016 C
HETATM    2  C2  UNL     1       0.942  -0.550  13.336  1.00  0.00     0.050 C
HETATM    3  C3  UNL     1       0.184   0.460  12.459  1.00  0.00     0.148 C
HETATM    4  C4  UNL     1       1.341   1.282  11.939  1.00  0.00     0.201 C
HETATM    5  O2  UNL     1       2.408   1.097  12.767  1.00  0.00    -0.374 OA
HETATM    6  C5  UNL     1       2.017   0.376  13.860  1.00  0.00     0.097 C
HETATM    7  C6  UNL     1       1.496   1.195  15.015  1.00  0.00     0.075 C
HETATM    8  C7  UNL     1       2.795   0.856  15.752  1.00  0.00     0.152 C
HETATM    9  C8  UNL     1       3.071  -0.227  14.700  1.00  0.00     0.182 C
ENDROOT
BRANCH   9  10
HETATM   10  O4  UNL     1       2.846  -1.512  15.184  1.00  0.00    -0.390 OA
ATOM     11  H4  UNL     1       3.510  -2.168  15.008  1.00  0.00     0.210 HD
ENDBRANCH   9  10
BRANCH   3  12
HETATM   12  O1  UNL     1      -0.531  -0.155  11.463  1.00  0.00    -0.393 OA
ATOM     13  H1  UNL     1      -1.443  -0.279  11.700  1.00  0.00     0.210 HD
ENDBRANCH   3  12
BRANCH   8  14
HETATM   14  O3  UNL     1       2.589   0.381  17.026  1.00  0.00    -0.393 OA
ATOM     15  H3  UNL     1       3.352   0.467  17.586  1.00  0.00     0.210 HD
ENDBRANCH   8  14
TORSDOF 3
ENDMDL