MODEL 3
REMARK VINA RESULT: -5.090688039      0.903      3.945
REMARK  4 active torsions:
REMARK  status: ('A' for Active; 'I' for Inactive)
REMARK    1  A    between atoms: O1_1  and  C1_3
REMARK    2  A    between atoms: C6_8  and  O2_9
REMARK    3  A    between atoms: C7_11  and  O3_12
REMARK    4  A    between atoms: C9_15  and  O4_16
ROOT
HETATM    1  C1  UNL     1       2.764  -0.335  15.265  1.00  0.00     0.147 C
HETATM    2  C2  UNL     1       2.430  -1.752  15.015  1.00  0.00     0.035 C
HETATM    3  C3  UNL     1       2.049  -2.147  13.645  1.00  0.00     0.008 C
HETATM    4  C4  UNL     1       1.874  -1.034  12.675  1.00  0.00    -0.003 C
HETATM    5  C5  UNL     1       0.844  -1.281  11.612  1.00  0.00     0.039 C
HETATM    6  C6  UNL     1       0.631   0.122  11.058  1.00  0.00     0.147 C
HETATM    7  C7  UNL     1       1.149   1.076  12.114  1.00  0.00     0.153 C
HETATM    8  C8  UNL     1       1.246   0.198  13.341  1.00  0.00     0.052 C
HETATM    9  C9  UNL     1       2.247   0.686  14.343  1.00  0.00     0.153 C
ENDROOT
BRANCH   1  10
HETATM   10  O1  UNL     1       4.160  -0.158  15.351  1.00  0.00    -0.393 OA
ATOM     11  H1  UNL     1       4.568  -0.282  14.502  1.00  0.00     0.210 HD
ENDBRANCH   1  10
BRANCH   9  12
HETATM   12  O4  UNL     1       3.284   1.304  13.604  1.00  0.00    -0.393 OA
ATOM     13  H4  UNL     1       3.705   0.696  13.009  1.00  0.00     0.210 HD
ENDBRANCH   9  12
BRANCH   7  14
HETATM   14  O3  UNL     1       0.293   2.151  12.307  1.00  0.00    -0.393 OA
ATOM     15  H3  UNL     1       0.767   2.966  12.422  1.00  0.00     0.210 HD
ENDBRANCH   7  14
BRANCH   6  16
HETATM   16  O2  UNL     1      -0.701   0.387  10.801  1.00  0.00    -0.393 OA
ATOM     17  H2  UNL     1      -1.278  -0.269  11.172  1.00  0.00     0.210 HD
ENDBRANCH   6  16
TORSDOF 4
ENDMDL