MODEL 4
REMARK VINA RESULT: -4.811331187      1.186      4.390
REMARK  4 active torsions:
REMARK  status: ('A' for Active; 'I' for Inactive)
REMARK    1  A    between atoms: O1_1  and  C1_3
REMARK    2  A    between atoms: C4_6  and  O2_7
REMARK    3  A    between atoms: C5_9  and  O3_10
REMARK    4  A    between atoms: C9_15  and  O4_16
ROOT
HETATM    1  C1  UNL     1       3.392   0.388  15.165  1.00  0.00     0.147 C
HETATM    2  C2  UNL     1       2.834  -0.854  14.574  1.00  0.00     0.037 C
HETATM    3  C3  UNL     1       1.420  -0.745  14.096  1.00  0.00     0.043 C
HETATM    4  C4  UNL     1       1.099   0.459  13.318  1.00  0.00     0.090 C
HETATM    5  C5  UNL     1       0.781   0.258  11.872  1.00  0.00     0.153 C
HETATM    6  C6  UNL     1       0.936   1.674  11.336  1.00  0.00     0.035 C
HETATM    7  C7  UNL     1       1.897   2.373  12.290  1.00  0.00     0.013 C
HETATM    8  C8  UNL     1       2.386   1.284  13.164  1.00  0.00     0.054 C
HETATM    9  C9  UNL     1       2.833   1.659  14.521  1.00  0.00     0.154 C
ENDROOT
BRANCH   1  10
HETATM   10  O1  UNL     1       3.282   0.416  16.542  1.00  0.00    -0.393 OA
ATOM     11  H1  UNL     1       3.986   0.904  16.954  1.00  0.00     0.210 HD
ENDBRANCH   1  10
BRANCH   9  12
HETATM   12  O4  UNL     1       1.770   2.060  15.328  1.00  0.00    -0.393 OA
ATOM     13  H4  UNL     1       1.161   1.331  15.339  1.00  0.00     0.210 HD
ENDBRANCH   9  12
BRANCH   4  14
HETATM   14  O2  UNL     1       0.079   1.246  13.863  1.00  0.00    -0.387 OA
ATOM     15  H2  UNL     1      -0.612   1.472  13.252  1.00  0.00     0.210 HD
ENDBRANCH   4  14
BRANCH   5  16
HETATM   16  O3  UNL     1      -0.514  -0.220  11.658  1.00  0.00    -0.393 OA
ATOM     17  H3  UNL     1      -0.737  -0.289  10.737  1.00  0.00     0.210 HD
ENDBRANCH   5  16
TORSDOF 4
ENDMDL