MODEL 2
REMARK VINA RESULT: -5.171479981      1.739      2.379
REMARK  4 active torsions:
REMARK  status: ('A' for Active; 'I' for Inactive)
REMARK    1  A    between atoms: O1_1  and  C1_3
REMARK    2  A    between atoms: C7_9  and  O2_10
REMARK    3  A    between atoms: C8_12  and  O3_13
REMARK    4  A    between atoms: C9_15  and  O4_16
ROOT
HETATM    1  C1  UNL     1       2.731  -0.858  14.128  1.00  0.00     0.123 C
HETATM    2  C2  UNL     1       3.035   0.450  14.802  1.00  0.00     0.040 C
HETATM    3  C3  UNL     1       1.759   1.238  14.798  1.00  0.00     0.033 A
HETATM    4  C4  UNL     1       0.659   0.389  14.318  1.00  0.00     0.037 A
HETATM    5  C5  UNL     1       1.259  -0.887  13.836  1.00  0.00     0.024 C
HETATM    6  C6  UNL     1       1.078  -1.134  12.364  1.00  0.00     0.042 C
HETATM    7  C7  UNL     1       0.784   0.145  11.654  1.00  0.00     0.150 C
HETATM    8  C8  UNL     1       1.589   1.319  12.197  1.00  0.00     0.181 C
HETATM    9  C9  UNL     1       1.044   1.603  13.579  1.00  0.00     0.095 A
ENDROOT
BRANCH   1  10
HETATM   10  O1  UNL     1       3.024  -1.947  14.956  1.00  0.00    -0.395 OA
ATOM     11  H1  UNL     1       2.697  -1.817  15.838  1.00  0.00     0.210 HD
ENDBRANCH   1  10
BRANCH   9  12
HETATM   12  O4  UNL     1       0.176   2.703  13.643  1.00  0.00    -0.386 OA
ATOM     13  H4  UNL     1       0.505   3.539  13.333  1.00  0.00     0.210 HD
ENDBRANCH   9  12
BRANCH   7  14
HETATM   14  O2  UNL     1       1.007  -0.031  10.282  1.00  0.00    -0.393 OA
ATOM     15  H2  UNL     1       1.702  -0.667  10.160  1.00  0.00     0.210 HD
ENDBRANCH   7  14
BRANCH   8  16
HETATM   16  O3  UNL     1       1.333   2.389  11.344  1.00  0.00    -0.390 OA
ATOM     17  H3  UNL     1       0.991   2.010  10.543  1.00  0.00     0.210 HD
ENDBRANCH   8  16
TORSDOF 4
ENDMDL