MODEL 4
REMARK VINA RESULT: -4.179379493      2.293      3.699
REMARK  4 active torsions:
REMARK  status: ('A' for Active; 'I' for Inactive)
REMARK    1  A    between atoms: C4_4  and  O1_5
REMARK    2  A    between atoms: C5_7  and  O2_8
REMARK    3  A    between atoms: C6_10  and  O3_12
REMARK    4  A    between atoms: C8_14  and  O4_15
ROOT
HETATM    1  C1  UNL     1       1.463  -0.613  14.039  1.00  0.00     0.012 C
HETATM    2  C2  UNL     1       1.988   0.594  13.272  1.00  0.00     0.016 C
HETATM    3  C3  UNL     1       3.056   1.209  14.162  1.00  0.00     0.041 C
HETATM    4  C4  UNL     1       3.084   2.721  13.931  1.00  0.00     0.150 C
HETATM    5  C5  UNL     1       2.701   2.921  12.493  1.00  0.00     0.183 C
HETATM    6  C6  UNL     1       1.184   2.717  12.364  1.00  0.00     0.108 C
HETATM    7  C7  UNL     1       0.525   4.013  12.588  1.00  0.00     0.051 C
HETATM    8  C8  UNL     1       0.790   1.556  13.151  1.00  0.00     0.158 C
ENDROOT
BRANCH   6   9
HETATM    9  O3  UNL     1       1.022   2.411  10.987  1.00  0.00    -0.385 OA
ATOM     10  H3  UNL     1       0.081   2.468  10.866  1.00  0.00     0.210 HD
ENDBRANCH   6   9
BRANCH   5  11
HETATM   11  O2  UNL     1       3.104   4.121  11.965  1.00  0.00    -0.390 OA
ATOM     12  H2  UNL     1       3.136   4.138  11.016  1.00  0.00     0.210 HD
ENDBRANCH   5  11
BRANCH   8  13
HETATM   13  O4  UNL     1       0.321   1.696  14.400  1.00  0.00    -0.392 OA
ATOM     14  H4  UNL     1      -0.395   2.317  14.330  1.00  0.00     0.210 HD
ENDBRANCH   8  13
BRANCH   4  15
HETATM   15  O1  UNL     1       4.387   3.179  14.116  1.00  0.00    -0.393 OA
ATOM     16  H1  UNL     1       4.645   3.681  13.353  1.00  0.00     0.210 HD
ENDBRANCH   4  15
TORSDOF 4
ENDMDL