MODEL 5
REMARK VINA RESULT: -4.211964611      2.026      3.083
REMARK  3 active torsions:
REMARK  status: ('A' for Active; 'I' for Inactive)
REMARK    1  A    between atoms: C3_4  and  O1_5
REMARK    2  A    between atoms: C4_7  and  O2_8
REMARK    3  A    between atoms: C4_7  and  O3_10
ROOT
HETATM    1  C1  UNL     1       3.300   1.121  16.217  1.00  0.00     0.310 C
HETATM    2  N1  UNL     1       2.154   0.764  15.363  1.00  0.00     0.094 N
HETATM    3  C2  UNL     1       1.497   1.949  14.992  1.00  0.00     0.309 C
HETATM    4  C3  UNL     1       1.160   2.078  13.535  1.00  0.00     0.209 C
HETATM    5  C4  UNL     1       0.627   0.698  13.122  1.00  0.00     0.195 C
HETATM    6  C5  UNL     1       1.884  -0.160  13.091  1.00  0.00     0.110 C
HETATM    7  C6  UNL     1       1.569  -1.605  12.825  1.00  0.00     0.180 C
HETATM    8  O4  UNL     1       2.126  -2.348  13.824  1.00  0.00    -0.388 OA
HETATM    9  C7  UNL     1       2.394  -1.560  14.904  1.00  0.00     0.204 C
HETATM   10  C8  UNL     1       2.588  -0.130  14.381  1.00  0.00     0.257 C
ENDROOT
BRANCH   5  11
HETATM   11  O2  UNL     1      -0.044   0.726  11.935  1.00  0.00    -0.363 OA
ATOM     12  H2  UNL     1       0.208   0.017  11.355  1.00  0.00     0.213 HD
ENDBRANCH   5  11
BRANCH   5  13
HETATM   13  O3  UNL     1      -0.141   0.217  14.192  1.00  0.00    -0.363 OA
ATOM     14  H3  UNL     1      -1.015   0.056  13.857  1.00  0.00     0.213 HD
ENDBRANCH   5  13
BRANCH   4  15
HETATM   15  O1  UNL     1       0.253   3.077  13.289  1.00  0.00    -0.388 OA
ATOM     16  H1  UNL     1      -0.553   2.753  12.905  1.00  0.00     0.210 HD
ENDBRANCH   4  15
TORSDOF 3
ENDMDL