MODEL 3
REMARK VINA RESULT: -9.085979783      1.125      1.427
REMARK  4 active torsions:
REMARK  status: ('A' for Active; 'I' for Inactive)
REMARK    1  A    between atoms: C6_7  and  C7_8
REMARK    2  A    between atoms: N2_9  and  N3_11
REMARK    3  A    between atoms: C9_17  and  C10_18
REMARK    4  A    between atoms: N5_25  and  O2_26
ROOT
HETATM    1  N1  UNL     1      -8.652  30.865  25.149  1.00  0.00    -0.191 NA
HETATM    2  C1  UNL     1      -7.497  30.856  25.090  1.00  0.00     0.099 C
HETATM    3  C2  UNL     1      -6.043  30.867  25.014  1.00  0.00     0.045 A
HETATM    4  C3  UNL     1      -5.315  29.768  25.432  1.00  0.00     0.023 A
HETATM    5  C4  UNL     1      -3.937  29.802  25.351  1.00  0.00     0.002 A
HETATM    6  C5  UNL     1      -3.252  30.907  24.862  1.00  0.00     0.013 A
HETATM    7  C6  UNL     1      -3.980  32.007  24.444  1.00  0.00    -0.018 A
HETATM    8  C16 UNL     1      -5.355  31.951  24.534  1.00  0.00     0.035 A
ENDROOT
BRANCH   7   9
HETATM    9  C7  UNL     1      -3.298  33.187  23.924  1.00  0.00     0.118 C
HETATM   10  N2  UNL     1      -3.645  34.343  24.373  1.00  0.00    -0.308 N
ATOM     11  H2  UNL     1      -4.384  34.391  25.076  1.00  0.00     0.186 HD
BRANCH  10  12
HETATM   12  N3  UNL     1      -3.057  35.533  23.944  1.00  0.00    -0.262 N
HETATM   13  C8  UNL     1      -3.630  36.343  23.141  1.00  0.00     0.290 A
HETATM   14  O1  UNL     1      -4.799  36.274  22.569  1.00  0.00    -0.195 OA
HETATM   15  N5  UNL     1      -3.043  37.517  22.721  1.00  0.00    -0.164 N
HETATM   16  N4  UNL     1      -4.978  37.300  21.838  1.00  0.00    -0.238 N
HETATM   17  C9  UNL     1      -3.882  38.126  21.900  1.00  0.00     0.170 A
ATOM     18  H4  UNL     1      -5.815  37.482  21.284  1.00  0.00     0.196 HD
ATOM     19  H3  UNL     1      -2.126  35.767  24.288  1.00  0.00     0.190 HD
BRANCH  17  20
HETATM   20  C10 UNL     1      -3.824  39.393  21.197  1.00  0.00     0.051 A
HETATM   21  C11 UNL     1      -3.798  40.588  21.940  1.00  0.00     0.018 A
HETATM   22  C12 UNL     1      -3.775  41.832  21.373  1.00  0.00     0.001 A
HETATM   23  C13 UNL     1      -3.777  41.969  20.000  1.00  0.00     0.003 A
HETATM   24  C14 UNL     1      -3.803  40.842  19.252  1.00  0.00     0.043 A
HETATM   25  C15 UNL     1      -3.827  39.557  19.849  1.00  0.00     0.130 A
HETATM   26  F1  UNL     1      -3.884  38.531  19.000  1.00  0.00    -0.205 F
ENDBRANCH  17  20
BRANCH  15  27
HETATM   27  O2  UNL     1      -1.820  37.937  23.138  1.00  0.00    -0.278 OA
ATOM     28  H2  UNL     1      -1.078  38.055  22.557  1.00  0.00     0.245 HD
ENDBRANCH  15  27
ENDBRANCH  10  12
ENDBRANCH   7   9
TORSDOF 4
ENDMDL