MODEL 1
REMARK VINA RESULT: -7.863749070      0.000      0.000
REMARK  4 active torsions:
REMARK  status: ('A' for Active; 'I' for Inactive)
REMARK    1  A    between atoms: N1_2  and  N2_4
REMARK    2  A    between atoms: N2_4  and  C1_6
REMARK    3  A    between atoms: C3_11  and  C4_12
REMARK    4  A    between atoms: C9_18  and  N4_19
ROOT
HETATM    1  C1  UNL     1      -0.392  33.835  23.839  1.00  0.00     0.165 C
HETATM    2  N3  UNL     1      -0.321  34.944  24.422  1.00  0.00    -0.340 N
ATOM      3  H3  UNL     1       0.628  35.211  24.686  1.00  0.00     0.167 HD
HETATM    4  C2  UNL     1      -1.302  35.890  24.781  1.00  0.00     0.137 C
HETATM    5  S1  UNL     1      -2.927  35.126  25.117  1.00  0.00    -0.104 SA
HETATM    6  C3  UNL     1      -3.304  34.200  23.545  1.00  0.00     0.157 C
HETATM    7  S2  UNL     1      -1.896  33.131  23.274  1.00  0.00    -0.072 SA
ENDROOT
BRANCH   6   8
HETATM    8  C4  UNL     1      -4.541  33.442  23.874  1.00  0.00    -0.001 A
HETATM    9  C5  UNL     1      -4.391  32.158  24.403  1.00  0.00     0.015 A
HETATM   10  C6  UNL     1      -5.484  31.418  24.782  1.00  0.00     0.043 A
HETATM   11  C7  UNL     1      -6.755  31.943  24.640  1.00  0.00     0.118 A
HETATM   12  F1  UNL     1      -7.857  31.220  25.012  1.00  0.00    -0.206 F
HETATM   13  C8  UNL     1      -6.927  33.193  24.127  1.00  0.00     0.079 A
HETATM   14  C9  UNL     1      -5.795  33.943  23.740  1.00  0.00     0.114 A
BRANCH  14  15
HETATM   15  N4  UNL     1      -6.037  35.230  23.198  1.00  0.00    -0.115 N
HETATM   16  O3  UNL     1      -6.161  36.243  23.936  1.00  0.00    -0.532 OA
HETATM   17  O4  UNL     1      -6.145  35.446  21.859  1.00  0.00    -0.532 OA
ENDBRANCH  14  15
ENDBRANCH   6   8
BRANCH   1  18
HETATM   18  N2  UNL     1       0.817  33.126  23.634  1.00  0.00    -0.219 N
ATOM     19  H2  UNL     1       0.848  32.114  23.760  1.00  0.00     0.195 HD
BRANCH  18  20
HETATM   20  N1  UNL     1       1.953  33.816  23.261  1.00  0.00    -0.037 N
HETATM   21  O1  UNL     1       2.496  33.535  22.181  1.00  0.00    -0.516 OA
HETATM   22  O2  UNL     1       2.511  34.801  24.033  1.00  0.00    -0.516 OA
ENDBRANCH  18  20
ENDBRANCH   1  18
TORSDOF 4
ENDMDL