MODEL 2
REMARK VINA RESULT: -7.665359980      3.366      5.169
REMARK  4 active torsions:
REMARK  status: ('A' for Active; 'I' for Inactive)
REMARK    1  A    between atoms: C1_2  and  C2_4
REMARK    2  A    between atoms: S1_9  and  N1_10
REMARK    3  A    between atoms: N1_10  and  C5_12
REMARK    4  A    between atoms: C7_14  and  N2_15
ROOT
HETATM    1  N1  UNL     1      -2.841  33.698  23.316  1.00  0.00    -0.329 N
ATOM      2  H1  UNL     1      -1.965  33.570  22.810  1.00  0.00     0.174 HD
ENDROOT
BRANCH   1   3
HETATM    3  S1  UNL     1      -3.535  35.156  23.348  1.00  0.00    -0.010 SA
HETATM    4  C2  UNL     1      -5.024  35.777  22.425  1.00  0.00     0.192 C
HETATM    5  C3  UNL     1      -5.602  36.575  23.606  1.00  0.00     0.207 C
HETATM    6  O3  UNL     1      -4.559  37.213  24.265  1.00  0.00    -0.310 OA
HETATM    7  C4  UNL     1      -3.560  36.361  24.702  1.00  0.00     0.332 C
HETATM    8  O4  UNL     1      -2.829  36.348  25.721  1.00  0.00    -0.251 OA
BRANCH   4   9
HETATM    9  C1  UNL     1      -4.593  36.658  21.336  1.00  0.00     0.190 C
HETATM   10  O1  UNL     1      -4.716  36.250  20.143  1.00  0.00    -0.647 OA
HETATM   11  O2  UNL     1      -4.056  37.914  21.503  1.00  0.00    -0.647 OA
ENDBRANCH   4   9
ENDBRANCH   1   3
BRANCH   1  12
HETATM   12  C5  UNL     1      -3.423  32.607  23.975  1.00  0.00     0.062 A
HETATM   13  C6  UNL     1      -4.779  32.547  24.198  1.00  0.00     0.067 A
HETATM   14  C7  UNL     1      -5.281  31.443  24.852  1.00  0.00     0.105 A
HETATM   15  C8  UNL     1      -4.469  30.411  25.281  1.00  0.00     0.038 A
HETATM   16  C9  UNL     1      -3.102  30.497  25.041  1.00  0.00     0.029 A
HETATM   17  C10 UNL     1      -2.569  31.588  24.390  1.00  0.00     0.061 A
HETATM   18 CL1  UNL     1      -0.833  31.686  24.092  1.00  0.00    -0.082 Cl
BRANCH  14  19
HETATM   19  N2  UNL     1      -6.694  31.363  25.095  1.00  0.00    -0.116 N
HETATM   20  O5  UNL     1      -7.177  30.365  25.667  1.00  0.00    -0.532 OA
HETATM   21  O6  UNL     1      -7.554  32.348  24.721  1.00  0.00    -0.532 OA
ENDBRANCH  14  19
ENDBRANCH   1  12
TORSDOF 4
ENDMDL