MODEL 5
REMARK VINA RESULT: -6.420598037      3.210      5.213
REMARK  4 active torsions:
REMARK  status: ('A' for Active; 'I' for Inactive)
REMARK    1  A    between atoms: N1_5  and  C5_6
REMARK    2  A    between atoms: C5_6  and  C6_11
REMARK    3  A    between atoms: N2_7  and  O1_9
REMARK    4  A    between atoms: N3_15  and  C10_16
ROOT
HETATM    1  C6  UNL     1      -4.933  38.728  23.303  1.00  0.00     0.155 C
HETATM    2  C7  UNL     1      -5.163  40.022  22.501  1.00  0.00     0.035 C
HETATM    3  C8  UNL     1      -4.615  41.094  23.425  1.00  0.00     0.022 C
HETATM    4  C9  UNL     1      -3.920  40.347  24.574  1.00  0.00     0.126 C
HETATM    5  N3  UNL     1      -3.723  39.066  23.969  1.00  0.00    -0.349 N
ENDROOT
BRANCH   1   6
HETATM    6  C5  UNL     1      -4.891  37.557  22.427  1.00  0.00     0.122 C
HETATM    7  N2  UNL     1      -4.290  37.474  21.313  1.00  0.00    -0.255 N
ATOM      8  H2  UNL     1      -3.779  38.289  20.973  1.00  0.00     0.195 HD
BRANCH   6   9
HETATM    9  N1  UNL     1      -5.596  36.398  22.876  1.00  0.00    -0.367 N
HETATM   10  C4  UNL     1      -6.956  36.073  22.433  1.00  0.00     0.124 C
HETATM   11  C3  UNL     1      -7.529  35.480  23.710  1.00  0.00     0.026 C
HETATM   12  C2  UNL     1      -6.376  34.596  24.156  1.00  0.00     0.001 C
HETATM   13  C1  UNL     1      -6.390  33.328  23.352  1.00  0.00     0.011 C
HETATM   14  C12 UNL     1      -5.134  35.389  23.795  1.00  0.00     0.128 C
ENDBRANCH   6   9
BRANCH   7  15
HETATM   15  O1  UNL     1      -4.296  36.338  20.549  1.00  0.00    -0.288 OA
ATOM     16  H1  UNL     1      -4.817  35.575  20.766  1.00  0.00     0.244 HD
ENDBRANCH   7  15
ENDBRANCH   1   6
BRANCH   5  17
HETATM   17  C10 UNL     1      -2.529  38.316  24.041  1.00  0.00     0.165 A
HETATM   18  N4  UNL     1      -1.411  38.424  23.324  1.00  0.00    -0.278 N
HETATM   19  N5  UNL     1      -0.439  37.656  23.533  1.00  0.00    -0.282 N
ATOM     20  H4  UNL     1      -1.343  39.139  22.600  1.00  0.00     0.189 HD
HETATM   21  C11 UNL     1      -0.513  36.724  24.471  1.00  0.00     0.163 A
ATOM     22  H5  UNL     1       0.411  37.750  22.976  1.00  0.00     0.188 HD
HETATM   23 CL1  UNL     1       0.756  35.588  24.871  1.00  0.00    -0.055 Cl
HETATM   24  S1  UNL     1      -2.083  36.993  25.070  1.00  0.00    -0.021 SA
ENDBRANCH   5  17
TORSDOF 4
ENDMDL