MODEL 5
REMARK VINA RESULT: -6.321244856      2.002      2.182
REMARK  4 active torsions:
REMARK  status: ('A' for Active; 'I' for Inactive)
REMARK    1  A    between atoms: C4_5  and  C5_6
REMARK    2  A    between atoms: C7_9  and  C8_10
REMARK    3  A    between atoms: N2_11  and  N3_13
REMARK    4  A    between atoms: C9_14  and  O1_15
ROOT
HETATM    1  C5  UNL     1      -2.176  33.057  23.505  1.00  0.00     0.067 A
HETATM    2  C6  UNL     1      -1.224  33.775  24.438  1.00  0.00     0.102 A
HETATM    3 CL1  UNL     1       0.469  33.971  23.909  1.00  0.00    -0.123 Cl
HETATM    4  C7  UNL     1      -2.309  34.496  23.685  1.00  0.00     0.056 A
ENDROOT
BRANCH   4   5
HETATM    5  C8  UNL     1      -3.345  35.177  24.459  1.00  0.00     0.087 C
HETATM    6  N2  UNL     1      -3.268  36.395  24.834  1.00  0.00    -0.305 N
ATOM      7  H2  UNL     1      -4.039  36.791  25.372  1.00  0.00     0.186 HD
BRANCH   6   8
HETATM    8  N3  UNL     1      -2.142  37.230  24.529  1.00  0.00    -0.216 N
HETATM    9  C9  UNL     1      -2.022  37.862  23.399  1.00  0.00     0.170 A
HETATM   10  C10 UNL     1      -0.903  38.633  23.213  1.00  0.00     0.110 A
HETATM   11  S1  UNL     1      -0.069  38.410  24.685  1.00  0.00    -0.066 SA
HETATM   12  C11 UNL     1      -1.178  37.363  25.442  1.00  0.00     0.166 A
HETATM   13  S2  UNL     1      -1.086  36.678  26.949  1.00  0.00    -0.050 SA
BRANCH   9  14
HETATM   14  O1  UNL     1      -2.987  37.796  22.350  1.00  0.00    -0.344 OA
ATOM     15  H1  UNL     1      -2.855  37.314  21.542  1.00  0.00     0.219 HD
ENDBRANCH   9  14
ENDBRANCH   6   8
ENDBRANCH   4   5
BRANCH   1  16
HETATM   16  C4  UNL     1      -3.048  32.048  24.161  1.00  0.00     0.033 A
HETATM   17  C3  UNL     1      -2.640  30.868  24.735  1.00  0.00     0.045 A
HETATM   18  C2  UNL     1      -3.774  30.241  25.228  1.00  0.00     0.111 A
HETATM   19  N1  UNL     1      -4.835  31.016  24.960  1.00  0.00    -0.308 N
HETATM   20  C1  UNL     1      -6.235  30.717  25.313  1.00  0.00     0.177 C
HETATM   21  N4  UNL     1      -4.385  32.082  24.328  1.00  0.00    -0.303 N
ATOM     22  H4  UNL     1      -4.980  32.844  24.003  1.00  0.00     0.186 HD
ENDBRANCH   1  16
TORSDOF 4
ENDMDL