MODEL 4
REMARK VINA RESULT: -6.631884816      4.199      6.742
REMARK  5 active torsions:
REMARK  status: ('A' for Active; 'I' for Inactive)
REMARK    1  A    between atoms: C2_3  and  S1_4
REMARK    2  A    between atoms: S1_4  and  C3_5
REMARK    3  A    between atoms: C4_7  and  N2_8
REMARK    4  A    between atoms: C9_16  and  C10_17
REMARK    5  A    between atoms: C11_18  and  C12_19
ROOT
HETATM    1  N1  UNL     1       0.373  38.870  25.118  1.00  0.00    -0.197 NA
HETATM    2  C1  UNL     1      -0.026  37.787  25.154  1.00  0.00     0.069 C
HETATM    3  C2  UNL     1      -0.518  36.405  25.190  1.00  0.00     0.203 C
ENDROOT
BRANCH   3   4
HETATM    4  S1  UNL     1      -1.623  36.222  23.737  1.00  0.00    -0.105 SA
BRANCH   4   5
HETATM    5  C3  UNL     1      -2.418  34.615  23.956  1.00  0.00     0.081 A
HETATM    6  S2  UNL     1      -4.018  34.233  24.442  1.00  0.00    -0.044 SA
HETATM    7  C4  UNL     1      -3.900  32.532  24.379  1.00  0.00     0.149 A
HETATM    8  N3  UNL     1      -2.649  32.344  23.990  1.00  0.00    -0.328 N
HETATM    9  C9  UNL     1      -1.879  33.365  23.770  1.00  0.00     0.112 A
ATOM     10  H3  UNL     1      -2.290  31.398  23.864  1.00  0.00     0.168 HD
BRANCH   7  11
HETATM   11  N2  UNL     1      -4.928  31.598  24.680  1.00  0.00    -0.357 N
HETATM   12  C5  UNL     1      -6.316  31.976  24.498  1.00  0.00     0.151 C
HETATM   13  C6  UNL     1      -7.212  30.868  25.017  1.00  0.00     0.187 C
HETATM   14  O1  UNL     1      -6.850  30.393  26.252  1.00  0.00    -0.388 OA
HETATM   15  C7  UNL     1      -5.524  30.086  26.415  1.00  0.00     0.187 C
HETATM   16  C8  UNL     1      -4.684  30.261  25.171  1.00  0.00     0.151 C
ENDBRANCH   7  11
BRANCH   9  17
HETATM   17  C10 UNL     1      -0.479  33.218  23.337  1.00  0.00    -0.046 C
HETATM   18  C11 UNL     1       0.671  33.104  22.994  1.00  0.00    -0.085 C
BRANCH  18  19
HETATM   19  C12 UNL     1       2.050  32.978  22.558  1.00  0.00     0.208 C
HETATM   20 CL1  UNL     1       2.203  32.147  21.004  1.00  0.00    -0.117 Cl
ENDBRANCH  18  19
ENDBRANCH   9  17
ENDBRANCH   4   5
ENDBRANCH   3   4
TORSDOF 5
ENDMDL