MODEL 5
REMARK VINA RESULT: -8.753614941      4.122      5.431
REMARK  5 active torsions:
REMARK  status: ('A' for Active; 'I' for Inactive)
REMARK    1  A    between atoms: C2_5  and  N3_6
REMARK    2  A    between atoms: C2_5  and  C10_18
REMARK    3  A    between atoms: N3_6  and  O1_8
REMARK    4  A    between atoms: O1_8  and  C3_9
REMARK    5  A    between atoms: C3_9  and  C4_11
ROOT
HETATM    1  N1  UNL     1      -4.312  37.202  19.295  1.00  0.00    -0.172 NA
HETATM    2  C1  UNL     1      -4.716  36.769  20.301  1.00  0.00     0.183 C
HETATM    3  N2  UNL     1      -5.224  36.228  21.506  1.00  0.00    -0.276 N
ATOM      4  H2  UNL     1      -6.020  35.591  21.479  1.00  0.00     0.179 HD
HETATM    5  C2  UNL     1      -4.694  36.530  22.624  1.00  0.00     0.164 C
ENDROOT
BRANCH   5   6
HETATM    6  N3  UNL     1      -5.247  35.956  23.799  1.00  0.00    -0.238 N
ATOM      7  H3  UNL     1      -5.917  36.522  24.320  1.00  0.00     0.196 HD
BRANCH   6   8
HETATM    8  O1  UNL     1      -4.969  34.730  24.290  1.00  0.00    -0.193 OA
BRANCH   8   9
HETATM    9  C3  UNL     1      -5.575  33.571  23.883  1.00  0.00     0.316 C
HETATM   10  O2  UNL     1      -6.484  33.672  22.993  1.00  0.00    -0.257 OA
BRANCH   9  11
HETATM   11  C4  UNL     1      -5.233  32.254  24.413  1.00  0.00     0.063 A
HETATM   12  C5  UNL     1      -6.285  31.451  24.807  1.00  0.00     0.019 A
HETATM   13  C6  UNL     1      -6.063  30.175  25.319  1.00  0.00     0.001 A
HETATM   14  C7  UNL     1      -4.780  29.678  25.448  1.00  0.00     0.002 A
HETATM   15  C8  UNL     1      -3.738  30.499  25.046  1.00  0.00     0.025 A
HETATM   16  C9  UNL     1      -3.956  31.771  24.535  1.00  0.00     0.050 A
HETATM   17 CL1  UNL     1      -2.655  32.823  24.028  1.00  0.00    -0.083 Cl
ENDBRANCH   9  11
ENDBRANCH   8   9
ENDBRANCH   6   8
ENDBRANCH   5   6
BRANCH   5  18
HETATM   18  C10 UNL     1      -3.557  37.430  22.746  1.00  0.00     0.104 A
HETATM   19  C11 UNL     1      -2.576  37.335  23.737  1.00  0.00     0.086 A
HETATM   20  C12 UNL     1      -1.654  38.325  23.571  1.00  0.00     0.180 A
HETATM   21  C13 UNL     1      -0.492  38.598  24.357  1.00  0.00     0.127 C
HETATM   22  O3  UNL     1      -2.076  38.994  22.514  1.00  0.00    -0.226 OA
HETATM   23  N4  UNL     1       0.447  38.797  24.985  1.00  0.00    -0.189 NA
HETATM   24  N5  UNL     1      -3.171  38.495  22.023  1.00  0.00    -0.256 N
ATOM     25  H5  UNL     1      -3.665  38.858  21.207  1.00  0.00     0.195 HD
ENDBRANCH   5  18
TORSDOF 5
ENDMDL