MODEL 3
REMARK VINA RESULT: -7.795239617      3.061      5.493
REMARK  5 active torsions:
REMARK  status: ('A' for Active; 'I' for Inactive)
REMARK    1  A    between atoms: C2_3  and  N3_6
REMARK    2  A    between atoms: N3_6  and  N4_8
REMARK    3  A    between atoms: N4_8  and  C4_10
REMARK    4  A    between atoms: C6_13  and  N5_14
REMARK    5  A    between atoms: N7_19  and  C7_20
ROOT
HETATM    1  N1  UNL     1      -4.604  36.531  19.972  1.00  0.00    -0.189 NA
HETATM    2  C1  UNL     1      -4.623  36.303  21.107  1.00  0.00     0.130 C
HETATM    3  C2  UNL     1      -4.627  36.020  22.514  1.00  0.00     0.209 C
HETATM    4  C3  UNL     1      -5.824  35.729  23.250  1.00  0.00     0.130 C
HETATM    5  N2  UNL     1      -6.788  35.474  23.853  1.00  0.00    -0.189 NA
ENDROOT
BRANCH   3   6
HETATM    6  N3  UNL     1      -3.480  36.034  23.137  1.00  0.00    -0.280 N
ATOM      7  H3  UNL     1      -2.818  36.783  22.938  1.00  0.00     0.188 HD
BRANCH   6   8
HETATM    8  N4  UNL     1      -3.136  35.061  24.059  1.00  0.00    -0.281 N
ATOM      9  H4  UNL     1      -3.820  34.812  24.773  1.00  0.00     0.188 HD
BRANCH   8  10
HETATM   10  C4  UNL     1      -2.008  34.457  24.068  1.00  0.00     0.163 A
HETATM   11  C5  UNL     1      -0.730  34.972  24.089  1.00  0.00     0.132 A
HETATM   12 CL1  UNL     1      -0.316  36.671  24.108  1.00  0.00    -0.076 Cl
HETATM   13  C6  UNL     1       0.152  33.918  24.089  1.00  0.00     0.214 A
HETATM   14  N6  UNL     1      -0.601  32.797  24.071  1.00  0.00    -0.275 N
HETATM   15  N7  UNL     1      -1.890  33.106  24.058  1.00  0.00    -0.267 N
ATOM     16  H6  UNL     1      -0.230  31.847  24.067  1.00  0.00     0.189 HD
BRANCH  13  17
HETATM   17  N5  UNL     1       1.561  34.041  24.108  1.00  0.00    -0.095 N
HETATM   18  O1  UNL     1       2.141  34.246  25.180  1.00  0.00    -0.530 OA
HETATM   19  O2  UNL     1       2.290  33.931  22.923  1.00  0.00    -0.530 OA
ENDBRANCH  13  17
BRANCH  15  20
HETATM   20  C7  UNL     1      -2.991  32.149  24.036  1.00  0.00     0.110 C
HETATM   21  C8  UNL     1      -2.644  30.834  24.624  1.00  0.00     0.027 C
HETATM   22  C9  UNL     1      -3.714  30.141  25.380  1.00  0.00     0.002 C
HETATM   23  C10 UNL     1      -5.113  30.520  25.080  1.00  0.00     0.000 C
HETATM   24  C11 UNL     1      -5.320  31.891  24.539  1.00  0.00     0.002 C
HETATM   25  C12 UNL     1      -4.131  32.780  24.833  1.00  0.00     0.027 C
ENDBRANCH  15  20
ENDBRANCH   8  10
ENDBRANCH   6   8
ENDBRANCH   3   6
TORSDOF 5
ENDMDL