MODEL 3
REMARK VINA RESULT: -7.253493463      3.617      4.194
REMARK  5 active torsions:
REMARK  status: ('A' for Active; 'I' for Inactive)
REMARK    1  A    between atoms: N1_2  and  C1_4
REMARK    2  A    between atoms: C2_10  and  C3_11
REMARK    3  A    between atoms: C3_11  and  N4_13
REMARK    4  A    between atoms: N4_13  and  N5_15
REMARK    5  A    between atoms: C4_17  and  C5_18
ROOT
HETATM    1  C3  UNL     1      -3.914  34.796  23.398  1.00  0.00     0.146 C
HETATM    2  S2  UNL     1      -2.690  33.739  23.292  1.00  0.00    -0.056 SA
ENDROOT
BRANCH   1   3
HETATM    3  C2  UNL     1      -3.703  36.252  23.231  1.00  0.00     0.129 A
HETATM    4  C1  UNL     1      -4.217  36.904  22.141  1.00  0.00     0.192 A
HETATM    5  S1  UNL     1      -3.702  38.508  22.426  1.00  0.00     0.029 SA
HETATM    6  N2  UNL     1      -2.890  38.250  23.874  1.00  0.00    -0.267 N
HETATM    7  N3  UNL     1      -3.033  36.982  24.089  1.00  0.00    -0.289 N
ATOM      8  H2  UNL     1      -2.399  38.935  24.451  1.00  0.00     0.195 HD
ATOM      9  H3  UNL     1      -2.626  36.553  24.920  1.00  0.00     0.188 HD
BRANCH   4  10
HETATM   10  N1  UNL     1      -4.989  36.365  21.044  1.00  0.00    -0.104 N
HETATM   11  O1  UNL     1      -4.560  36.489  19.896  1.00  0.00    -0.531 OA
HETATM   12  O2  UNL     1      -6.152  35.750  21.355  1.00  0.00    -0.531 OA
ENDBRANCH   4  10
ENDBRANCH   1   3
BRANCH   1  13
HETATM   13  N4  UNL     1      -5.218  34.330  23.657  1.00  0.00    -0.289 N
ATOM     14  H4  UNL     1      -6.009  34.968  23.574  1.00  0.00     0.188 HD
BRANCH  13  15
HETATM   15  N5  UNL     1      -5.432  33.026  24.018  1.00  0.00    -0.314 N
HETATM   16  C4  UNL     1      -6.580  32.521  24.228  1.00  0.00     0.087 C
ATOM     17  H5  UNL     1      -4.618  32.420  24.125  1.00  0.00     0.185 HD
BRANCH  16  18
HETATM   18  C5  UNL     1      -6.752  31.097  24.618  1.00  0.00     0.059 C
HETATM   19  C6  UNL     1      -7.932  31.006  25.526  1.00  0.00     0.013 C
HETATM   20  C7  UNL     1      -7.625  31.232  26.974  1.00  0.00     0.001 C
HETATM   21  C8  UNL     1      -6.563  30.214  27.357  1.00  0.00     0.003 C
HETATM   22  C9  UNL     1      -5.312  30.655  26.637  1.00  0.00     0.038 C
HETATM   23  C10 UNL     1      -5.481  30.535  25.153  1.00  0.00     0.179 C
HETATM   24  F1  UNL     1      -5.306  29.201  24.821  1.00  0.00    -0.249 F
ENDBRANCH  16  18
ENDBRANCH  13  15
ENDBRANCH   1  13
TORSDOF 5
ENDMDL