MODEL 3
REMARK VINA RESULT: -7.449711146      4.292      5.541
REMARK  3 active torsions:
REMARK  status: ('A' for Active; 'I' for Inactive)
REMARK    1  A    between atoms: N1_2  and  C1_4
REMARK    2  A    between atoms: N4_9  and  C2_10
REMARK    3  A    between atoms: C8_16  and  N5_17
ROOT
HETATM    1  C1  UNL     1      -6.712  34.964  23.509  1.00  0.00     0.235 A
HETATM    2  N2  UNL     1      -7.220  33.727  23.772  1.00  0.00    -0.263 N
ATOM      3  H2  UNL     1      -8.200  33.448  23.715  1.00  0.00     0.190 HD
HETATM    4  N3  UNL     1      -6.231  32.979  24.106  1.00  0.00    -0.237 N
ATOM      5  H3  UNL     1      -6.320  31.994  24.358  1.00  0.00     0.208 HD
HETATM    6  N4  UNL     1      -5.075  33.639  24.087  1.00  0.00    -0.254 N
HETATM    7  C8  UNL     1      -5.351  34.921  23.705  1.00  0.00     0.176 A
ENDROOT
BRANCH   7   8
HETATM    8  N5  UNL     1      -4.389  35.927  23.589  1.00  0.00    -0.342 N
HETATM    9  C9  UNL     1      -4.039  36.454  22.254  1.00  0.00     0.145 C
HETATM   10  C10 UNL     1      -3.774  37.930  22.313  1.00  0.00     0.133 C
HETATM   11  N6  UNL     1      -4.398  38.567  23.448  1.00  0.00    -0.417 N
HETATM   12  C11 UNL     1      -4.038  38.044  24.726  1.00  0.00     0.155 C
ATOM     13  H6  UNL     1      -5.054  39.342  23.343  1.00  0.00     0.153 HD
HETATM   14  C12 UNL     1      -3.639  36.576  24.657  1.00  0.00     0.200 C
HETATM   15 CL1  UNL     1      -1.882  36.627  24.323  1.00  0.00    -0.101 Cl
ENDBRANCH   7   8
BRANCH   1  16
HETATM   16  N1  UNL     1      -7.504  36.060  23.116  1.00  0.00    -0.092 N
HETATM   17  O1  UNL     1      -8.298  36.019  22.183  1.00  0.00    -0.530 OA
HETATM   18  O2  UNL     1      -7.398  37.230  23.827  1.00  0.00    -0.530 OA
ENDBRANCH   1  16
BRANCH   6  19
HETATM   19  C2  UNL     1      -3.822  33.051  24.430  1.00  0.00     0.111 C
HETATM   20  C3  UNL     1      -4.053  31.535  24.546  1.00  0.00     0.027 C
HETATM   21  C4  UNL     1      -2.842  30.792  24.970  1.00  0.00     0.002 C
HETATM   22  C5  UNL     1      -1.656  31.101  24.067  1.00  0.00     0.000 C
HETATM   23  C6  UNL     1      -1.469  32.591  24.093  1.00  0.00     0.002 C
HETATM   24  C7  UNL     1      -2.719  33.205  23.435  1.00  0.00     0.027 C
ENDBRANCH   6  19
TORSDOF 3
ENDMDL