MODEL 1
REMARK VINA RESULT: -5.533193942      0.000      0.000
REMARK  4 active torsions:
REMARK  status: ('A' for Active; 'I' for Inactive)
REMARK    1  A    between atoms: N1_1  and  C1_4
REMARK    2  A    between atoms: C2_7  and  N3_8
REMARK    3  A    between atoms: N4_11  and  C3_12
REMARK    4  A    between atoms: N5_13  and  O1_15
ROOT
HETATM    1  C1  UNL     1      10.479  41.244  84.737  1.00  0.00     0.706 A
HETATM    2  N2  UNL     1       9.895  42.248  84.059  1.00  0.00    -0.020 N
ATOM      3  H2  UNL     1       8.991  42.210  83.590  1.00  0.00     0.203 HD
HETATM    4  C2  UNL     1      10.717  43.313  84.109  1.00  0.00     0.713 A
HETATM    5  N4  UNL     1      11.823  42.992  84.815  1.00  0.00    -0.066 N
HETATM    6  N6  UNL     1      11.650  41.734  85.183  1.00  0.00    -0.110 N
ATOM      7  H6  UNL     1      12.321  41.201  85.736  1.00  0.00     0.207 HD
ENDROOT
BRANCH   5   8
HETATM    8  C3  UNL     1      12.943  43.842  85.102  1.00  0.00     0.249 C
HETATM    9  N5  UNL     1      14.126  43.572  84.689  1.00  0.00    -0.262 N
ATOM     10  H5  UNL     1      14.903  44.195  84.908  1.00  0.00     0.195 HD
BRANCH   9  11
HETATM   11  O1  UNL     1      14.336  42.434  83.947  1.00  0.00    -0.289 OA
ATOM     12  H1  UNL     1      15.223  42.191  83.710  1.00  0.00     0.244 HD
ENDBRANCH   9  11
ENDBRANCH   5   8
BRANCH   4  13
HETATM   13  N3  UNL     1      10.462  44.467  83.552  1.00  0.00    -0.232 N
ATOM     14  H32 UNL     1      10.027  45.273  84.001  1.00  0.00     0.174 HD
ATOM     15  H31 UNL     1      10.676  44.697  82.581  1.00  0.00     0.174 HD
ENDBRANCH   4  13
BRANCH   1  16
HETATM   16  N1  UNL     1      10.002  40.040  84.922  1.00  0.00    -0.233 N
ATOM     17  H12 UNL     1       9.026  39.748  84.871  1.00  0.00     0.174 HD
ATOM     18  H11 UNL     1      10.534  39.199  85.148  1.00  0.00     0.174 HD
ENDBRANCH   1  16
TORSDOF 4
ENDMDL