MODEL 3
REMARK VINA RESULT: -5.643054560      1.878      1.918
REMARK  1 active torsions:
REMARK  status: ('A' for Active; 'I' for Inactive)
REMARK       I    between atoms: C1_2  and  N2_4
REMARK    1  A    between atoms: N2_4  and  N3_6
REMARK       I    between atoms: C2_8  and  N5_10
ROOT
HETATM    1  N3  UNL     1      14.624  44.259  83.293  1.00  0.00    -0.269 N
ATOM      2  H3  UNL     1      15.519  44.734  83.411  1.00  0.00     0.190 HD
HETATM    3  C2  UNL     1      14.180  43.443  84.204  1.00  0.00     0.213 C
HETATM    4  N4  UNL     1      14.998  43.258  85.353  1.00  0.00    -0.061 NA
HETATM    5  N5  UNL     1      12.943  42.776  84.058  1.00  0.00    -0.293 N
ATOM      6  H5  UNL     1      12.847  42.101  83.298  1.00  0.00     0.177 HD
HETATM    7  S1  UNL     1      11.590  43.036  85.086  1.00  0.00     0.044 SA
ENDROOT
BRANCH   1   8
HETATM    8  N2  UNL     1      13.851  44.468  82.155  1.00  0.00    -0.252 N
HETATM    9  C1  UNL     1      14.133  43.838  80.914  1.00  0.00     0.347 C
HETATM   10  N1  UNL     1      13.365  44.036  79.753  1.00  0.00    -0.038 NA
HETATM   11  O1  UNL     1      15.119  43.052  80.812  1.00  0.00    -0.249 OA
ATOM     12  H2  UNL     1      13.051  45.097  82.214  1.00  0.00     0.191 HD
ENDBRANCH   1   8
TORSDOF 1
ENDMDL