MODEL 4
REMARK VINA RESULT: -6.202496250      2.615      4.642
REMARK  2 active torsions:
REMARK  status: ('A' for Active; 'I' for Inactive)
REMARK       I    between atoms: C1_2  and  N2_4
REMARK    1  A    between atoms: N2_4  and  N3_6
REMARK       I    between atoms: N3_6  and  C2_8
REMARK       I    between atoms: C2_8  and  N4_10
REMARK    2  A    between atoms: N5_12  and  O3_14
ROOT
HETATM    1  N3  UNL     1      11.000  44.639  83.206  1.00  0.00    -0.247 N
ATOM      2  H3  UNL     1      11.138  45.343  83.931  1.00  0.00     0.192 HD
HETATM    3  C2  UNL     1      12.072  44.264  82.375  1.00  0.00     0.354 C
HETATM    4  O2  UNL     1      11.893  43.382  81.468  1.00  0.00    -0.244 OA
HETATM    5  N4  UNL     1      13.358  44.856  82.527  1.00  0.00    -0.231 N
ATOM      6  H4  UNL     1      13.513  45.835  82.290  1.00  0.00     0.193 HD
HETATM    7  N5  UNL     1      14.294  44.143  82.959  1.00  0.00    -0.206 N
ATOM      8  H5  UNL     1      14.136  43.163  83.195  1.00  0.00     0.215 HD
ENDROOT
BRANCH   1   9
HETATM    9  N2  UNL     1       9.752  44.045  83.039  1.00  0.00    -0.250 N
HETATM   10  C1  UNL     1       8.817  44.470  82.067  1.00  0.00     0.347 C
HETATM   11  N1  UNL     1       7.586  43.811  81.974  1.00  0.00    -0.038 NA
HETATM   12  O1  UNL     1       9.088  45.415  81.305  1.00  0.00    -0.249 OA
ATOM     13  H2  UNL     1       9.499  43.267  83.647  1.00  0.00     0.191 HD
ENDBRANCH   1   9
BRANCH   7  14
HETATM   14  O3  UNL     1      15.523  44.701  83.107  1.00  0.00    -0.274 OA
ATOM     15  H3  UNL     1      15.581  45.617  83.356  1.00  0.00     0.246 HD
ENDBRANCH   7  14
TORSDOF 2
ENDMDL