MODEL 3
REMARK VINA RESULT: -6.184497162      1.878      2.226
REMARK  3 active torsions:
REMARK  status: ('A' for Active; 'I' for Inactive)
REMARK       I    between atoms: N1_2  and  C2_4
REMARK       I    between atoms: C2_4  and  N2_5
REMARK    1  A    between atoms: N3_7  and  N4_9
REMARK    2  A    between atoms: N5_12  and  N6_14
REMARK    3  A    between atoms: C3_16  and  O1_18
ROOT
HETATM    1  C1  UNL     1      12.868  42.937  85.781  1.00  0.00     0.165 C
HETATM    2  N1  UNL     1      11.996  42.180  84.918  1.00  0.00    -0.228 N
ATOM      3  H1  UNL     1      11.560  41.316  85.242  1.00  0.00     0.177 HD
HETATM    4  C2  UNL     1      11.759  42.666  83.609  1.00  0.00     0.708 C
HETATM    5  N2  UNL     1      10.498  42.891  83.044  1.00  0.00    -0.117 N
ATOM      6  H2  UNL     1      10.447  42.938  82.027  1.00  0.00     0.207 HD
HETATM    7  N3  UNL     1       9.422  43.039  83.678  1.00  0.00    -0.235 N
ATOM      8  H3  UNL     1       9.399  43.004  84.698  1.00  0.00     0.208 HD
HETATM    9  N5  UNL     1      12.825  42.915  82.894  1.00  0.00    -0.128 N
ATOM     10  H5  UNL     1      13.747  42.754  83.301  1.00  0.00     0.205 HD
ENDROOT
BRANCH   9  11
HETATM   11  N6  UNL     1      12.731  43.393  81.602  1.00  0.00    -0.253 N
HETATM   12  C3  UNL     1      13.710  43.870  80.915  1.00  0.00     0.244 C
HETATM   13  N7  UNL     1      13.435  44.318  79.597  1.00  0.00    -0.055 NA
ATOM     14  H6  UNL     1      11.815  43.366  81.157  1.00  0.00     0.190 HD
BRANCH  12  15
HETATM   15  O1  UNL     1      14.957  43.916  81.501  1.00  0.00    -0.334 OA
ATOM     16  H1  UNL     1      15.103  44.542  82.200  1.00  0.00     0.220 HD
ENDBRANCH  12  15
ENDBRANCH   9  11
BRANCH   7  17
HETATM   17  N4  UNL     1       8.258  43.253  82.935  1.00  0.00    -0.330 N
ATOM     18  H42 UNL     1       7.411  43.590  83.391  1.00  0.00     0.178 HD
ATOM     19  H41 UNL     1       8.296  43.062  81.934  1.00  0.00     0.178 HD
ENDBRANCH   7  17
TORSDOF 3
ENDMDL