MODEL 2
REMARK VINA RESULT: -5.436160427      1.809      5.230
REMARK  3 active torsions:
REMARK  status: ('A' for Active; 'I' for Inactive)
REMARK    1  A    between atoms: C3_6  and  N3_7
REMARK    2  A    between atoms: N3_7  and  C4_9
REMARK    3  A    between atoms: C5_15  and  N6_16
ROOT
HETATM    1  C1  UNL     1      12.701  43.134  85.434  1.00  0.00     0.176 C
HETATM    2  N1  UNL     1      11.537  43.205  84.553  1.00  0.00    -0.183 N
HETATM    3  C2  UNL     1      11.221  44.337  83.897  1.00  0.00     0.217 A
HETATM    4  N2  UNL     1      10.153  44.417  83.083  1.00  0.00    -0.186 N
ATOM      5  H2  UNL     1       9.952  45.296  82.606  1.00  0.00     0.185 HD
HETATM    6  C3  UNL     1       9.347  43.358  82.887  1.00  0.00     0.698 A
HETATM    7  N5  UNL     1       9.666  42.230  83.545  1.00  0.00    -0.022 N
ATOM      8  H5  UNL     1       9.077  41.407  83.420  1.00  0.00     0.203 HD
HETATM    9  C5  UNL     1      10.733  42.144  84.360  1.00  0.00     0.693 A
ENDROOT
BRANCH   6  10
HETATM   10  N3  UNL     1       8.310  43.412  82.106  1.00  0.00    -0.188 N
ATOM     11  H3  UNL     1       8.437  43.199  81.116  1.00  0.00     0.185 HD
BRANCH  10  12
HETATM   12  C4  UNL     1       7.021  43.750  82.559  1.00  0.00     0.191 C
HETATM   13  N4  UNL     1       6.076  42.894  82.456  1.00  0.00    -0.395 N
ATOM     14  H42 UNL     1       6.271  41.981  82.046  1.00  0.00     0.156 HD
ATOM     15  H41 UNL     1       5.141  43.138  82.784  1.00  0.00     0.156 HD
ENDBRANCH  10  12
ENDBRANCH   6  10
BRANCH   9  16
HETATM   16  N6  UNL     1      11.035  41.059  84.988  1.00  0.00    -0.234 N
ATOM     17  H62 UNL     1      11.670  41.049  85.787  1.00  0.00     0.174 HD
ATOM     18  H61 UNL     1      10.610  40.195  84.651  1.00  0.00     0.174 HD
ENDBRANCH   9  16
TORSDOF 3
ENDMDL