MODEL 1
REMARK VINA RESULT: -6.555469344      0.000      0.000
REMARK  2 active torsions:
REMARK  status: ('A' for Active; 'I' for Inactive)
REMARK    1  A    between atoms: C1_2  and  N1_3
REMARK    2  A    between atoms: N1_3  and  C2_5
ROOT
HETATM    1  C2  UNL     1      12.428  43.443  83.698  1.00  0.00     0.182 A
HETATM    2  N2  UNL     1      11.529  43.634  82.716  1.00  0.00    -0.289 N
ATOM      3  H2  UNL     1      11.815  44.087  81.848  1.00  0.00     0.172 HD
HETATM    4  C3  UNL     1      10.249  43.230  82.874  1.00  0.00     0.340 A
HETATM    5  O2  UNL     1       9.418  43.417  81.943  1.00  0.00    -0.245 OA
HETATM    6  N3  UNL     1       9.806  42.628  83.990  1.00  0.00    -0.248 N
ATOM      7  H3  UNL     1       8.835  42.333  84.081  1.00  0.00     0.192 HD
HETATM    8  N4  UNL     1      10.678  42.433  84.965  1.00  0.00    -0.259 N
ATOM      9  H4  UNL     1      10.372  41.978  85.826  1.00  0.00     0.190 HD
HETATM   10  C4  UNL     1      11.975  42.826  84.845  1.00  0.00     0.304 A
HETATM   11  O3  UNL     1      12.808  42.640  85.772  1.00  0.00    -0.263 OA
ENDROOT
BRANCH   1  12
HETATM   12  N1  UNL     1      13.651  43.834  83.538  1.00  0.00    -0.316 N
ATOM     13  H1  UNL     1      14.210  44.101  84.349  1.00  0.00     0.170 HD
BRANCH  12  14
HETATM   14  C1  UNL     1      14.219  43.892  82.234  1.00  0.00     0.354 C
HETATM   15  O1  UNL     1      15.388  44.294  82.132  1.00  0.00    -0.283 OA
ENDBRANCH  12  14
ENDBRANCH   1  12
TORSDOF 2
ENDMDL