MODEL 1
REMARK VINA RESULT: -6.105824977      0.000      0.000
REMARK  2 active torsions:
REMARK  status: ('A' for Active; 'I' for Inactive)
REMARK    1  A    between atoms: C1_2  and  N1_3
REMARK    2  A    between atoms: N1_3  and  C2_5
ROOT
HETATM    1  C2  UNL     1      13.517  43.873  83.431  1.00  0.00     0.692 A
HETATM    2  N2  UNL     1      12.579  44.703  82.957  1.00  0.00    -0.141 N
ATOM      3  H2  UNL     1      11.964  45.180  83.615  1.00  0.00     0.189 HD
HETATM    4  C3  UNL     1      12.420  44.929  81.629  1.00  0.00     0.342 A
HETATM    5  O2  UNL     1      11.535  45.710  81.197  1.00  0.00    -0.246 OA
HETATM    6  N3  UNL     1      13.248  44.284  80.781  1.00  0.00    -0.260 N
ATOM      7  H3  UNL     1      13.145  44.440  79.779  1.00  0.00     0.175 HD
HETATM    8  C4  UNL     1      14.196  43.449  81.212  1.00  0.00     0.342 A
HETATM    9  O3  UNL     1      14.987  42.828  80.462  1.00  0.00    -0.246 OA
HETATM   10  N4  UNL     1      14.312  43.260  82.544  1.00  0.00    -0.141 N
ATOM     11  H4  UNL     1      15.032  42.624  82.888  1.00  0.00     0.189 HD
ENDROOT
BRANCH   1  12
HETATM   12  N1  UNL     1      13.646  43.677  84.700  1.00  0.00    -0.167 N
ATOM     13  H1  UNL     1      14.483  44.008  85.180  1.00  0.00     0.186 HD
BRANCH  12  14
HETATM   14  C1  UNL     1      12.640  43.010  85.430  1.00  0.00     0.368 C
HETATM   15  O1  UNL     1      11.494  43.466  85.648  1.00  0.00    -0.283 OA
ENDBRANCH  12  14
ENDBRANCH   1  12
TORSDOF 2
ENDMDL