MODEL 3
REMARK VINA RESULT: -5.680206891      3.218      6.303
REMARK  2 active torsions:
REMARK  status: ('A' for Active; 'I' for Inactive)
REMARK    1  A    between atoms: O1_2  and  N1_3
REMARK       I    between atoms: C2_5  and  N3_7
REMARK    2  A    between atoms: N3_7  and  N4_9
ROOT
HETATM    1  N1  UNL     1       9.391  44.564  83.200  1.00  0.00    -0.238 N
ATOM      2  H1  UNL     1       9.247  44.647  84.206  1.00  0.00     0.197 HD
HETATM    3  C2  UNL     1       8.472  43.980  82.506  1.00  0.00     0.227 C
HETATM    4  N2  UNL     1       8.582  43.817  81.100  1.00  0.00    -0.060 NA
HETATM    5  N3  UNL     1       7.318  43.487  83.176  1.00  0.00    -0.270 N
ATOM      6  H3  UNL     1       7.349  43.366  84.189  1.00  0.00     0.189 HD
ENDROOT
BRANCH   5   7
HETATM    7  N4  UNL     1       6.154  43.167  82.498  1.00  0.00    -0.274 N
HETATM    8  C3  UNL     1       5.202  44.027  82.376  1.00  0.00     0.215 C
HETATM    9  N5  UNL     1       3.991  43.761  81.697  1.00  0.00    -0.065 NA
HETATM   10  N6  UNL     1       5.355  45.323  82.949  1.00  0.00    -0.065 NA
ATOM     11  H4  UNL     1       6.048  42.238  82.089  1.00  0.00     0.189 HD
ENDBRANCH   5   7
BRANCH   1  12
HETATM   12  O1  UNL     1      10.533  45.074  82.680  1.00  0.00    -0.283 OA
HETATM   13  C1  UNL     1      11.761  44.392  82.965  1.00  0.00     0.237 C
ENDBRANCH   1  12
TORSDOF 2
ENDMDL