MODEL 4
REMARK VINA RESULT: -6.392824993      1.622      2.686
REMARK  2 active torsions:
REMARK  status: ('A' for Active; 'I' for Inactive)
REMARK    1  A    between atoms: N2_4  and  N3_6
REMARK    2  A    between atoms: N3_6  and  C1_8
ROOT
HETATM    1  C1  UNL     1      11.699  42.907  84.817  1.00  0.00     0.706 A
HETATM    2  N4  UNL     1      11.678  43.318  83.536  1.00  0.00    -0.139 N
ATOM      3  H4  UNL     1      10.800  43.296  83.017  1.00  0.00     0.189 HD
HETATM    4  C2  UNL     1      12.801  43.762  82.923  1.00  0.00     0.342 A
HETATM    5  O1  UNL     1      12.793  44.151  81.717  1.00  0.00    -0.246 OA
HETATM    6  N5  UNL     1      13.978  43.807  83.572  1.00  0.00    -0.260 N
ATOM      7  H5  UNL     1      14.820  44.143  83.104  1.00  0.00     0.175 HD
HETATM    8  C3  UNL     1      14.016  43.399  84.857  1.00  0.00     0.342 A
HETATM    9  O2  UNL     1      15.119  43.435  85.487  1.00  0.00    -0.246 OA
HETATM   10  N6  UNL     1      12.887  42.962  85.446  1.00  0.00    -0.139 N
ATOM     11  H6  UNL     1      12.934  42.657  86.419  1.00  0.00     0.189 HD
ENDROOT
BRANCH   1  12
HETATM   12  N3  UNL     1      10.619  42.486  85.388  1.00  0.00    -0.118 N
ATOM     13  H3  UNL     1      10.302  42.971  86.227  1.00  0.00     0.207 HD
BRANCH  12  14
HETATM   14  N2  UNL     1       9.871  41.425  84.936  1.00  0.00    -0.235 N
HETATM   15  N1  UNL     1      10.259  40.217  84.934  1.00  0.00    -0.330 N
ATOM     16  H12 UNL     1      11.195  40.037  85.297  1.00  0.00     0.178 HD
ATOM     17  H11 UNL     1       9.704  39.429  84.599  1.00  0.00     0.178 HD
ATOM     18  H2  UNL     1       8.937  41.623  84.576  1.00  0.00     0.208 HD
ENDBRANCH  12  14
ENDBRANCH   1  12
TORSDOF 2
ENDMDL