MODEL 1
REMARK VINA RESULT: -5.960598993      0.000      0.000
REMARK  1 active torsions:
REMARK  status: ('A' for Active; 'I' for Inactive)
REMARK    1  A    between atoms: C1_2  and  N1_3
ROOT
HETATM    1  N1  UNL     1       8.926  43.105  83.495  1.00  0.00    -0.165 N
ATOM      2  H1  UNL     1       8.347  42.779  84.269  1.00  0.00     0.186 HD
HETATM    3  C2  UNL     1      10.187  42.966  83.618  1.00  0.00     0.713 A
HETATM    4  N2  UNL     1      10.694  42.374  84.817  1.00  0.00    -0.127 N
ATOM      5  H2  UNL     1      10.038  42.078  85.540  1.00  0.00     0.206 HD
HETATM    6  N3  UNL     1      12.068  42.188  85.026  1.00  0.00    -0.236 N
ATOM      7  H3  UNL     1      12.398  41.763  85.893  1.00  0.00     0.192 HD
HETATM    8  C3  UNL     1      13.003  42.592  84.032  1.00  0.00     0.354 A
HETATM    9  O2  UNL     1      14.255  42.433  84.201  1.00  0.00    -0.244 OA
HETATM   10  N4  UNL     1      12.526  43.189  82.821  1.00  0.00    -0.236 N
ATOM     11  H4  UNL     1      13.180  43.485  82.098  1.00  0.00     0.192 HD
HETATM   12  N5  UNL     1      11.146  43.359  82.646  1.00  0.00    -0.127 N
ATOM     13  H5  UNL     1      10.815  43.785  81.781  1.00  0.00     0.206 HD
ENDROOT
BRANCH   1  14
HETATM   14  C1  UNL     1       8.261  43.661  82.397  1.00  0.00     0.368 C
HETATM   15  O1  UNL     1       8.628  43.458  81.206  1.00  0.00    -0.283 OA
ENDBRANCH   1  14
TORSDOF 1
ENDMDL