MODEL 2
REMARK VINA RESULT: -6.706057000      2.265      3.127
REMARK  3 active torsions:
REMARK  status: ('A' for Active; 'I' for Inactive)
REMARK    1  A    between atoms: C2_4  and  N3_5
REMARK    2  A    between atoms: C2_4  and  C4_14
REMARK    3  A    between atoms: N3_5  and  C3_7
ROOT
HETATM    1  N3  UNL     1      12.308  43.543  84.287  1.00  0.00    -0.175 N
ATOM      2  H3  UNL     1      12.279  44.431  84.787  1.00  0.00     0.182 HD
ENDROOT
BRANCH   1   3
HETATM    3  C2  UNL     1      13.288  43.386  83.243  1.00  0.00     0.284 A
HETATM    4  N1  UNL     1      14.707  43.461  83.623  1.00  0.00    -0.182 NA
HETATM    5  C1  UNL     1      14.939  43.803  85.005  1.00  0.00     0.137 C
HETATM    6  N2  UNL     1      14.098  42.255  83.292  1.00  0.00    -0.102 NA
BRANCH   3   7
HETATM    7  C4  UNL     1      12.970  44.107  81.994  1.00  0.00     0.295 C
HETATM    8  N7  UNL     1      12.302  45.353  81.922  1.00  0.00    -0.057 NA
HETATM    9  O1  UNL     1      13.319  43.577  80.916  1.00  0.00    -0.271 OA
ENDBRANCH   3   7
ENDBRANCH   1   3
BRANCH   1  10
HETATM   10  C3  UNL     1      11.476  42.639  84.622  1.00  0.00     0.712 A
HETATM   11  N4  UNL     1      11.524  41.493  85.287  1.00  0.00    -0.116 N
HETATM   12  N5  UNL     1      10.240  41.306  85.114  1.00  0.00    -0.214 N
ATOM     13  H4  UNL     1      12.266  40.967  85.748  1.00  0.00     0.207 HD
HETATM   14  N6  UNL     1      10.166  42.446  84.447  1.00  0.00    -0.116 N
ATOM     15  H5  UNL     1       9.573  40.583  85.382  1.00  0.00     0.209 HD
ATOM     16  H6  UNL     1       9.417  42.964  83.988  1.00  0.00     0.207 HD
ENDBRANCH   1  10
TORSDOF 3
ENDMDL