MODEL 3
REMARK VINA RESULT: -6.753508746      1.035      2.491
REMARK  1 active torsions:
REMARK  status: ('A' for Active; 'I' for Inactive)
REMARK    1  A    between atoms: N3_4  and  N4_6
ROOT
HETATM    1  N4  UNL     1      12.737  43.267  84.470  1.00  0.00    -0.279 N
ATOM      2  H4  UNL     1      12.827  42.542  85.181  1.00  0.00     0.189 HD
HETATM    3  C2  UNL     1      11.587  43.423  83.917  1.00  0.00     0.193 A
HETATM    4  N5  UNL     1      11.240  44.367  82.908  1.00  0.00    -0.289 N
ATOM      5  H5  UNL     1      11.862  45.053  82.482  1.00  0.00     0.172 HD
HETATM    6  C3  UNL     1       9.859  44.173  82.603  1.00  0.00     0.328 A
HETATM    7  O1  UNL     1       9.202  44.834  81.750  1.00  0.00    -0.247 OA
HETATM    8  N6  UNL     1       9.344  43.117  83.413  1.00  0.00    -0.272 N
ATOM      9  H6  UNL     1       8.386  42.766  83.405  1.00  0.00     0.174 HD
HETATM   10  C4  UNL     1      10.396  42.643  84.230  1.00  0.00     0.295 A
HETATM   11  O2  UNL     1      10.356  41.720  85.084  1.00  0.00    -0.264 OA
ENDROOT
BRANCH   1  12
HETATM   12  N3  UNL     1      13.860  44.012  84.166  1.00  0.00    -0.274 N
HETATM   13  C1  UNL     1      14.604  43.694  83.157  1.00  0.00     0.215 C
HETATM   14  N1  UNL     1      14.261  42.565  82.354  1.00  0.00    -0.065 NA
HETATM   15  N2  UNL     1      15.760  44.479  82.863  1.00  0.00    -0.065 NA
ATOM     16  H3  UNL     1      14.104  44.818  84.741  1.00  0.00     0.189 HD
ENDBRANCH   1  12
TORSDOF 1
ENDMDL