MODEL 3
REMARK VINA RESULT: -6.827925414      1.328      1.690
REMARK  1 active torsions:
REMARK  status: ('A' for Active; 'I' for Inactive)
REMARK       I    between atoms: N1_1  and  C1_5
REMARK       I    between atoms: C1_5  and  N2_6
REMARK       I    between atoms: C1_5  and  N3_10
REMARK    1  A    between atoms: N3_10  and  C2_12
ROOT
HETATM    1  C2  UNL     1      12.797  42.400  84.002  1.00  0.00     0.188 A
HETATM    2  N4  UNL     1      13.375  42.304  82.768  1.00  0.00    -0.277 N
ATOM      3  H4  UNL     1      12.992  41.637  82.099  1.00  0.00     0.189 HD
HETATM    4  N5  UNL     1      14.405  43.039  82.406  1.00  0.00    -0.250 N
ATOM      5  H5  UNL     1      14.792  42.920  81.470  1.00  0.00     0.192 HD
HETATM    6  C3  UNL     1      14.963  43.940  83.233  1.00  0.00     0.341 A
HETATM    7  O1  UNL     1      15.951  44.634  82.863  1.00  0.00    -0.245 OA
HETATM    8  N6  UNL     1      14.422  44.060  84.447  1.00  0.00    -0.271 N
ATOM      9  H6  UNL     1      14.824  44.736  85.095  1.00  0.00     0.174 HD
HETATM   10  C4  UNL     1      13.351  43.314  84.860  1.00  0.00     0.294 A
HETATM   11  O2  UNL     1      12.903  43.495  86.029  1.00  0.00    -0.264 OA
ENDROOT
BRANCH   1  12
HETATM   12  N3  UNL     1      11.810  41.672  84.299  1.00  0.00    -0.322 N
HETATM   13  C1  UNL     1      10.561  41.937  84.878  1.00  0.00     0.481 C
HETATM   14  N1  UNL     1       9.591  42.576  84.010  1.00  0.00    -0.033 N
HETATM   15  N2  UNL     1       9.906  40.693  85.342  1.00  0.00    -0.033 N
ATOM     16  H13 UNL     1       9.258  41.979  83.253  1.00  0.00     0.278 HD
ATOM     17  H12 UNL     1       8.683  42.727  84.449  1.00  0.00     0.278 HD
ATOM     18  H11 UNL     1      10.042  43.434  83.690  1.00  0.00     0.278 HD
ATOM     19  H23 UNL     1       8.998  40.844  85.781  1.00  0.00     0.278 HD
ATOM     20  H22 UNL     1       9.573  40.095  84.585  1.00  0.00     0.278 HD
ATOM     21  H21 UNL     1      10.588  40.242  85.952  1.00  0.00     0.278 HD
ATOM     22  H3  UNL     1      11.950  40.687  84.072  1.00  0.00     0.165 HD
ENDBRANCH   1  12
TORSDOF 1
ENDMDL