MODEL 4
REMARK VINA RESULT: -6.854926848      1.639      1.918
REMARK  1 active torsions:
REMARK  status: ('A' for Active; 'I' for Inactive)
REMARK       I    between atoms: C1_4  and  N3_6
REMARK    1  A    between atoms: N3_6  and  C2_8
ROOT
HETATM    1  C2  UNL     1      12.692  43.658  83.387  1.00  0.00     0.692 A
HETATM    2  N4  UNL     1      11.597  43.321  82.680  1.00  0.00    -0.141 N
ATOM      3  H4  UNL     1      11.668  42.600  81.961  1.00  0.00     0.189 HD
HETATM    4  C3  UNL     1      10.414  43.914  82.903  1.00  0.00     0.342 A
HETATM    5  O1  UNL     1       9.385  43.613  82.256  1.00  0.00    -0.246 OA
HETATM    6  N5  UNL     1      10.303  44.861  83.844  1.00  0.00    -0.260 N
ATOM      7  H5  UNL     1       9.411  45.321  84.027  1.00  0.00     0.175 HD
HETATM    8  C4  UNL     1      11.402  45.183  84.537  1.00  0.00     0.342 A
HETATM    9  O2  UNL     1      11.347  46.077  85.440  1.00  0.00    -0.246 OA
HETATM   10  N6  UNL     1      12.593  44.610  84.336  1.00  0.00    -0.141 N
ATOM     11  H6  UNL     1      13.406  44.886  84.887  1.00  0.00     0.189 HD
ENDROOT
BRANCH   1  12
HETATM   12  N3  UNL     1      13.812  43.072  83.149  1.00  0.00    -0.163 N
HETATM   13  C1  UNL     1      14.736  43.689  82.269  1.00  0.00     0.200 C
HETATM   14  N1  UNL     1      14.583  43.534  81.012  1.00  0.00    -0.373 N
HETATM   15  N2  UNL     1      15.791  44.452  82.812  1.00  0.00    -0.063 NA
ATOM     16  H12 UNL     1      15.248  43.978  80.378  1.00  0.00     0.158 HD
ATOM     17  H11 UNL     1      13.820  42.982  80.618  1.00  0.00     0.158 HD
ATOM     18  H3  UNL     1      14.031  42.177  83.587  1.00  0.00     0.187 HD
ENDBRANCH   1  12
TORSDOF 1
ENDMDL