MODEL 2
REMARK VINA RESULT: -7.181296163      1.394      1.394
REMARK  2 active torsions:
REMARK  status: ('A' for Active; 'I' for Inactive)
REMARK    1  A    between atoms: N1_1  and  C1_4
REMARK    2  A    between atoms: C3_11  and  N4_12
REMARK       I    between atoms: N4_12  and  C4_14
ROOT
HETATM    1  C1  UNL     1      10.584  42.366  84.470  1.00  0.00     0.694 A
HETATM    2  N2  UNL     1       9.701  42.813  83.562  1.00  0.00    -0.141 N
ATOM      3  H2  UNL     1       8.777  42.385  83.500  1.00  0.00     0.189 HD
HETATM    4  C2  UNL     1      10.027  43.821  82.735  1.00  0.00     0.352 A
HETATM    5  O1  UNL     1       9.224  44.257  81.881  1.00  0.00    -0.246 OA
HETATM    6  N3  UNL     1      11.258  44.380  82.828  1.00  0.00    -0.140 N
ATOM      7  H3  UNL     1      11.518  45.145  82.206  1.00  0.00     0.189 HD
HETATM    8  C3  UNL     1      12.130  43.932  83.730  1.00  0.00     0.704 A
HETATM    9  N6  UNL     1      11.810  42.913  84.572  1.00  0.00    -0.022 N
ATOM     10  H6  UNL     1      12.481  42.573  85.261  1.00  0.00     0.203 HD
ENDROOT
BRANCH   8  11
HETATM   11  N4  UNL     1      13.302  44.438  83.843  1.00  0.00    -0.143 N
HETATM   12  C4  UNL     1      14.505  43.753  83.636  1.00  0.00     0.346 C
HETATM   13  N5  UNL     1      15.371  44.218  82.582  1.00  0.00    -0.039 NA
HETATM   14  O2  UNL     1      14.896  42.762  84.296  1.00  0.00    -0.250 OA
ATOM     15  H4  UNL     1      13.363  45.422  84.104  1.00  0.00     0.188 HD
ENDBRANCH   8  11
BRANCH   1  16
HETATM   16  N1  UNL     1      10.229  41.400  85.240  1.00  0.00    -0.234 N
ATOM     17  H12 UNL     1       9.311  40.965  85.143  1.00  0.00     0.174 HD
ATOM     18  H11 UNL     1      10.889  41.081  85.950  1.00  0.00     0.174 HD
ENDBRANCH   1  16
TORSDOF 2
ENDMDL