MODEL 2
REMARK VINA RESULT: -6.381688243      2.428      3.134
REMARK  3 active torsions:
REMARK  status: ('A' for Active; 'I' for Inactive)
REMARK    1  A    between atoms: N1_2  and  N2_3
REMARK       I    between atoms: N1_2  and  C3_8
REMARK       I    between atoms: C3_8  and  N5_10
REMARK    2  A    between atoms: N5_10  and  N6_12
REMARK    3  A    between atoms: N6_12  and  N7_13
ROOT
HETATM    1  C1  UNL     1      11.247  44.502  82.670  1.00  0.00     0.183 C
HETATM    2  N1  UNL     1      12.281  43.986  83.549  1.00  0.00    -0.244 N
HETATM    3  C3  UNL     1      11.860  43.021  84.501  1.00  0.00     0.353 C
HETATM    4  O1  UNL     1      12.744  42.550  85.282  1.00  0.00    -0.244 OA
HETATM    5  N5  UNL     1      10.519  42.572  84.614  1.00  0.00    -0.234 N
ATOM      6  H5  UNL     1       9.804  42.946  83.990  1.00  0.00     0.189 HD
ENDROOT
BRANCH   2   7
HETATM    7  N2  UNL     1      13.594  44.363  83.511  1.00  0.00    -0.270 N
HETATM    8  C2  UNL     1      14.570  43.903  82.878  1.00  0.00     0.215 C
HETATM    9  N3  UNL     1      15.854  44.482  83.009  1.00  0.00    -0.065 NA
HETATM   10  N4  UNL     1      14.414  42.796  82.011  1.00  0.00    -0.065 NA
ATOM     11  H2  UNL     1      13.817  45.162  84.104  1.00  0.00     0.189 HD
ENDBRANCH   2   7
BRANCH   5  12
HETATM   12  N6  UNL     1      10.176  41.623  85.573  1.00  0.00    -0.026 NA
BRANCH  12  13
HETATM   13  N7  UNL     1      10.571  40.358  85.067  1.00  0.00    -0.329 N
ATOM     14  H72 UNL     1      10.991  40.187  84.154  1.00  0.00     0.174 HD
ATOM     15  H71 UNL     1      10.355  39.667  85.785  1.00  0.00     0.174 HD
ENDBRANCH  12  13
ENDBRANCH   5  12
TORSDOF 3
ENDMDL