MODEL 3
REMARK VINA RESULT: -6.985044649      1.585      1.761
REMARK  1 active torsions:
REMARK  status: ('A' for Active; 'I' for Inactive)
REMARK       I    between atoms: N1_1  and  C1_5
REMARK       I    between atoms: C1_5  and  N2_6
REMARK       I    between atoms: C1_5  and  N3_10
REMARK    1  A    between atoms: N3_10  and  C2_12
ROOT
HETATM    1  C2  UNL     1      13.046  42.668  83.644  1.00  0.00     0.689 A
HETATM    2  N4  UNL     1      13.809  43.032  84.685  1.00  0.00    -0.141 N
ATOM      3  H4  UNL     1      13.582  42.701  85.623  1.00  0.00     0.189 HD
HETATM    4  C3  UNL     1      14.890  43.844  84.491  1.00  0.00     0.342 A
HETATM    5  O1  UNL     1      15.617  44.193  85.468  1.00  0.00    -0.246 OA
HETATM    6  N5  UNL     1      15.201  44.289  83.261  1.00  0.00    -0.260 N
ATOM      7  H5  UNL     1      16.010  44.895  83.124  1.00  0.00     0.175 HD
HETATM    8  C4  UNL     1      14.440  43.928  82.213  1.00  0.00     0.342 A
HETATM    9  O2  UNL     1      14.734  44.348  81.048  1.00  0.00    -0.246 OA
HETATM   10  N6  UNL     1      13.393  43.135  82.434  1.00  0.00    -0.141 N
ATOM     11  H6  UNL     1      12.819  42.866  81.635  1.00  0.00     0.189 HD
ENDROOT
BRANCH   1  12
HETATM   12  N3  UNL     1      12.035  41.909  83.820  1.00  0.00    -0.173 N
HETATM   13  C1  UNL     1      10.803  42.203  84.460  1.00  0.00     0.494 C
HETATM   14  N1  UNL     1      10.922  42.572  85.860  1.00  0.00    -0.032 N
HETATM   15  N2  UNL     1      10.112  43.252  83.694  1.00  0.00    -0.032 N
ATOM     16  H13 UNL     1      11.374  43.479  85.972  1.00  0.00     0.278 HD
ATOM     17  H12 UNL     1      10.014  42.799  86.267  1.00  0.00     0.278 HD
ATOM     18  H11 UNL     1      11.401  41.846  86.392  1.00  0.00     0.278 HD
ATOM     19  H23 UNL     1       9.204  43.478  84.101  1.00  0.00     0.278 HD
ATOM     20  H22 UNL     1      10.564  44.159  83.806  1.00  0.00     0.278 HD
ATOM     21  H21 UNL     1      10.028  42.993  82.710  1.00  0.00     0.278 HD
ATOM     22  H3  UNL     1      12.125  40.962  83.450  1.00  0.00     0.181 HD
ENDBRANCH   1  12
TORSDOF 1
ENDMDL