MODEL 5
REMARK VINA RESULT: -6.564055707      2.475      5.082
REMARK  2 active torsions:
REMARK  status: ('A' for Active; 'I' for Inactive)
REMARK    1  A    between atoms: N2_4  and  N3_6
REMARK       I    between atoms: N5_11  and  C2_12
REMARK       I    between atoms: C2_12  and  N6_14
REMARK    2  A    between atoms: N6_14  and  N7_16
ROOT
HETATM    1  N3  UNL     1      10.512  42.279  85.038  1.00  0.00    -0.096 N
HETATM    2  N4  UNL     1      10.038  43.171  84.065  1.00  0.00    -0.213 N
ATOM      3  H4  UNL     1       9.106  43.192  83.650  1.00  0.00     0.195 HD
HETATM    4  C1  UNL     1      11.130  44.045  83.779  1.00  0.00     0.365 C
HETATM    5  O1  UNL     1      11.178  45.003  82.974  1.00  0.00    -0.243 OA
HETATM    6  N5  UNL     1      12.199  43.612  84.609  1.00  0.00    -0.132 N
HETATM    7  C2  UNL     1      13.600  43.758  84.442  1.00  0.00     0.362 C
HETATM    8  O2  UNL     1      14.359  43.281  85.339  1.00  0.00    -0.243 OA
HETATM    9  N6  UNL     1      14.153  44.407  83.324  1.00  0.00    -0.257 N
ATOM     10  H6  UNL     1      13.548  44.793  82.598  1.00  0.00     0.191 HD
HETATM   11  N8  UNL     1      11.549  42.971  85.699  1.00  0.00     0.035 NA
ENDROOT
BRANCH   9  12
HETATM   12  N7  UNL     1      15.558  44.517  83.221  1.00  0.00    -0.341 N
ATOM     13  H72 UNL     1      16.133  43.675  83.272  1.00  0.00     0.177 HD
ATOM     14  H71 UNL     1      15.973  45.440  83.096  1.00  0.00     0.177 HD
ENDBRANCH   9  12
BRANCH   1  15
HETATM   15  N2  UNL     1      10.074  40.985  85.315  1.00  0.00    -0.214 N
HETATM   16  N1  UNL     1      10.432  40.051  84.542  1.00  0.00    -0.328 N
ATOM     17  H12 UNL     1      11.027  40.257  83.739  1.00  0.00     0.178 HD
ATOM     18  H11 UNL     1      10.112  39.104  84.745  1.00  0.00     0.178 HD
ATOM     19  H2  UNL     1       9.479  40.797  86.121  1.00  0.00     0.211 HD
ENDBRANCH   1  15
TORSDOF 2
ENDMDL