MODEL 1
REMARK VINA RESULT: -7.370863555      0.000      0.000
REMARK  3 active torsions:
REMARK  status: ('A' for Active; 'I' for Inactive)
REMARK    1  A    between atoms: N1_1  and  N2_4
REMARK    2  A    between atoms: N2_4  and  N3_6
REMARK    3  A    between atoms: N4_8  and  N5_10
ROOT
HETATM    1  N5  UNL     1      11.481  43.848  84.139  1.00  0.00    -0.255 N
ATOM      2  H5  UNL     1      11.500  44.196  85.098  1.00  0.00     0.191 HD
HETATM    3  C1  UNL     1      12.562  43.841  83.423  1.00  0.00     0.205 A
HETATM    4  N6  UNL     1      13.814  44.305  83.905  1.00  0.00    -0.289 N
ATOM      5  H6  UNL     1      13.993  44.681  84.837  1.00  0.00     0.172 HD
HETATM    6  C2  UNL     1      14.776  44.157  82.871  1.00  0.00     0.316 A
HETATM    7  O1  UNL     1      16.012  44.465  82.933  1.00  0.00    -0.262 OA
HETATM    8  C3  UNL     1      14.053  43.583  81.743  1.00  0.00     0.316 A
HETATM    9  O2  UNL     1      14.549  43.295  80.618  1.00  0.00    -0.262 OA
HETATM   10  N7  UNL     1      12.697  43.387  82.071  1.00  0.00    -0.289 N
ATOM     11  H7  UNL     1      11.966  43.003  81.473  1.00  0.00     0.172 HD
ENDROOT
BRANCH   1  12
HETATM   12  N4  UNL     1      10.296  43.375  83.586  1.00  0.00    -0.224 N
HETATM   13  N3  UNL     1       9.683  42.419  84.135  1.00  0.00    -0.214 N
ATOM     14  H3  UNL     1       8.813  42.067  83.734  1.00  0.00     0.211 HD
ATOM     15  H4  UNL     1       9.923  43.800  82.738  1.00  0.00     0.210 HD
BRANCH  13  16
HETATM   16  N2  UNL     1      10.206  41.846  85.296  1.00  0.00    -0.234 N
ATOM     17  H2  UNL     1      10.402  42.401  86.129  1.00  0.00     0.209 HD
BRANCH  16  18
HETATM   18  N1  UNL     1      10.446  40.457  85.250  1.00  0.00    -0.330 N
ATOM     19  H12 UNL     1       9.676  39.790  85.268  1.00  0.00     0.178 HD
ATOM     20  H11 UNL     1      11.424  40.172  85.199  1.00  0.00     0.178 HD
ENDBRANCH  16  18
ENDBRANCH  13  16
ENDBRANCH   1  12
TORSDOF 3
ENDMDL