MODEL 4
REMARK VINA RESULT: -6.067896538      2.867      3.816
REMARK  4 active torsions:
REMARK  status: ('A' for Active; 'I' for Inactive)
REMARK    1  A    between atoms: N1_1  and  N2_4
REMARK    2  A    between atoms: N2_4  and  C1_6
REMARK    3  A    between atoms: C3_15  and  N6_16
REMARK    4  A    between atoms: N6_16  and  C4_18
ROOT
HETATM    1  C1  UNL     1      12.198  44.325  83.442  1.00  0.00     0.179 A
HETATM    2  N3  UNL     1      12.312  44.740  84.713  1.00  0.00    -0.277 N
ATOM      3  H3  UNL     1      11.559  45.286  85.133  1.00  0.00     0.189 HD
HETATM    4  N4  UNL     1      13.400  44.448  85.438  1.00  0.00    -0.250 N
ATOM      5  H4  UNL     1      13.480  44.767  86.404  1.00  0.00     0.192 HD
HETATM    6  C2  UNL     1      14.383  43.730  84.874  1.00  0.00     0.340 A
HETATM    7  O1  UNL     1      15.387  43.475  85.579  1.00  0.00    -0.245 OA
HETATM    8  N5  UNL     1      14.335  43.285  83.613  1.00  0.00    -0.290 N
ATOM      9  H5  UNL     1      15.096  42.740  83.206  1.00  0.00     0.172 HD
HETATM   10  C3  UNL     1      13.232  43.592  82.909  1.00  0.00     0.159 A
ENDROOT
BRANCH   1  11
HETATM   11  N2  UNL     1      11.167  44.593  82.734  1.00  0.00    -0.288 N
ATOM     12  H2  UNL     1      11.251  44.687  81.722  1.00  0.00     0.188 HD
BRANCH  11  13
HETATM   13  N1  UNL     1       9.935  44.755  83.347  1.00  0.00    -0.343 N
ATOM     14  H12 UNL     1       9.548  45.694  83.444  1.00  0.00     0.176 HD
ATOM     15  H11 UNL     1       9.430  43.939  83.694  1.00  0.00     0.176 HD
ENDBRANCH  11  13
ENDBRANCH   1  11
BRANCH  10  16
HETATM   16  N6  UNL     1      13.132  43.192  81.696  1.00  0.00    -0.317 N
ATOM     17  H6  UNL     1      12.221  42.831  81.413  1.00  0.00     0.169 HD
BRANCH  16  18
HETATM   18  C4  UNL     1      14.127  43.192  80.714  1.00  0.00     0.354 C
HETATM   19  O2  UNL     1      15.351  43.017  81.018  1.00  0.00    -0.283 OA
ENDBRANCH  16  18
ENDBRANCH  10  16
TORSDOF 4
ENDMDL