MODEL 1
REMARK VINA RESULT: -6.650654701      0.000      0.000
REMARK  3 active torsions:
REMARK  status: ('A' for Active; 'I' for Inactive)
REMARK    1  A    between atoms: N1_2  and  C2_3
REMARK    2  A    between atoms: N1_2  and  S1_17
REMARK    3  A    between atoms: C12_13  and  O1_15
ROOT
HETATM    1  C2  UNL     1      39.224  51.640  15.245  1.00  0.00     0.129 C
HETATM    2  C3  UNL     1      39.219  50.639  14.082  1.00  0.00     0.030 C
HETATM    3  C4  UNL     1      39.235  51.430  12.832  1.00  0.00     0.011 C
HETATM    4  C5  UNL     1      40.575  51.634  12.202  1.00  0.00    -0.041 C
HETATM    5  C6  UNL     1      40.956  50.311  11.554  1.00  0.00     0.015 C
HETATM    6  C7  UNL     1      40.339  52.586  11.031  1.00  0.00     0.015 C
HETATM    7  C8  UNL     1      41.643  52.123  13.130  1.00  0.00    -0.038 C
HETATM    8  C9  UNL     1      42.359  53.269  12.381  1.00  0.00     0.015 C
HETATM    9  C10 UNL     1      42.716  51.074  13.338  1.00  0.00     0.015 C
HETATM   10  C11 UNL     1      41.178  52.766  14.376  1.00  0.00     0.049 C
HETATM   11  C12 UNL     1      40.702  51.904  15.478  1.00  0.00     0.076 C
HETATM   12  C13 UNL     1      40.922  52.679  16.784  1.00  0.00     0.048 C
ENDROOT
BRANCH   1  13
HETATM   13  N1  UNL     1      38.470  51.269  16.341  1.00  0.00    -0.308 N
HETATM   14  C1  UNL     1      38.848  50.324  17.278  1.00  0.00     0.163 C
BRANCH  13  15
HETATM   15  S1  UNL     1      37.187  52.280  16.734  1.00  0.00     0.224 S
HETATM   16  C14 UNL     1      35.850  51.399  17.541  1.00  0.00     0.186 C
HETATM   17  O2  UNL     1      37.544  53.420  17.622  1.00  0.00    -0.206 OA
HETATM   18  O3  UNL     1      36.637  52.882  15.456  1.00  0.00    -0.206 OA
ENDBRANCH  13  15
ENDBRANCH   1  13
BRANCH  11  19
HETATM   19  O1  UNL     1      41.448  50.753  15.577  1.00  0.00    -0.388 OA
ATOM     20  H1  UNL     1      42.210  50.752  15.009  1.00  0.00     0.210 HD
ENDBRANCH  11  19
TORSDOF 3
ENDMDL