MODEL 5
REMARK VINA RESULT: -7.476362744      4.394      5.755
REMARK  3 active torsions:
REMARK  status: ('A' for Active; 'I' for Inactive)
REMARK    1  A    between atoms: C2_2  and  C3_3
REMARK    2  A    between atoms: C2_2  and  N2_16
REMARK       I    between atoms: C3_3  and  N1_5
REMARK    3  A    between atoms: N1_5  and  C4_7
ROOT
HETATM    1  C3  UNL     1      40.672  52.068  17.384  1.00  0.00     0.240 C
HETATM    2  O1  UNL     1      40.050  50.998  17.589  1.00  0.00    -0.271 OA
HETATM    3  N1  UNL     1      41.068  52.358  16.067  1.00  0.00    -0.351 N
ATOM      4  H1  UNL     1      41.576  53.226  15.901  1.00  0.00     0.163 HD
ENDROOT
BRANCH   1   5
HETATM    5  C2  UNL     1      40.941  52.938  18.543  1.00  0.00     0.167 C
HETATM    6  C1  UNL     1      40.941  52.155  19.838  1.00  0.00     0.042 C
BRANCH   5   7
HETATM    7  N2  UNL     1      40.195  54.142  18.604  1.00  0.00    -0.397 N
HETATM    8  C13 UNL     1      38.955  54.166  17.913  1.00  0.00     0.148 C
HETATM    9  C14 UNL     1      37.752  53.926  18.776  1.00  0.00     0.291 C
HETATM   10  N3  UNL     1      38.019  54.148  20.182  1.00  0.00     0.087 N
HETATM   11  C15 UNL     1      36.830  54.341  20.952  1.00  0.00     0.310 C
HETATM   12  C16 UNL     1      38.885  55.278  20.328  1.00  0.00     0.291 C
HETATM   13  C17 UNL     1      40.257  54.868  19.818  1.00  0.00     0.148 C
ENDBRANCH   5   7
ENDBRANCH   1   5
BRANCH   3  14
HETATM   14  C4  UNL     1      40.799  51.492  14.923  1.00  0.00     0.107 C
HETATM   15  C5  UNL     1      41.997  51.416  14.112  1.00  0.00    -0.002 C
HETATM   16  C6  UNL     1      42.427  52.425  13.181  1.00  0.00    -0.006 C
HETATM   17  C7  UNL     1      41.566  53.167  12.274  1.00  0.00    -0.027 C
HETATM   18  C8  UNL     1      40.499  52.557  11.498  1.00  0.00     0.027 C
HETATM   19  C9  UNL     1      40.432  51.088  11.384  1.00  0.00     0.004 C
HETATM   20  C10 UNL     1      39.548  50.367  12.319  1.00  0.00     0.000 C
HETATM   21  C11 UNL     1      38.817  51.122  13.354  1.00  0.00     0.002 C
HETATM   22  C12 UNL     1      39.491  51.893  14.382  1.00  0.00     0.029 C
ENDBRANCH   3  14
TORSDOF 3
ENDMDL