MODEL 5
REMARK VINA RESULT: -6.826364162      2.223      4.196
REMARK  3 active torsions:
REMARK  status: ('A' for Active; 'I' for Inactive)
REMARK    1  A    between atoms: C13_13  and  O1_14
REMARK    2  A    between atoms: C13_13  and  C14_16
REMARK    3  A    between atoms: C14_16  and  N1_17
ROOT
HETATM    1  C1  UNL     1      41.870  52.890  12.605  1.00  0.00     0.013 C
HETATM    2  C2  UNL     1      40.453  52.334  12.619  1.00  0.00     0.022 C
HETATM    3  C3  UNL     1      40.343  51.203  11.666  1.00  0.00     0.012 C
HETATM    4  C4  UNL     1      39.664  50.052  12.378  1.00  0.00    -0.006 C
HETATM    5  C5  UNL     1      38.623  49.416  11.566  1.00  0.00     0.010 C
HETATM    6  C6  UNL     1      37.317  49.116  12.164  1.00  0.00    -0.014 C
HETATM    7  C7  UNL     1      36.168  49.846  11.449  1.00  0.00     0.005 C
HETATM    8  C8  UNL     1      35.910  51.151  12.169  1.00  0.00     0.001 C
HETATM    9  C9  UNL     1      37.209  51.711  12.757  1.00  0.00     0.005 C
HETATM   10  C10 UNL     1      37.797  50.847  13.790  1.00  0.00    -0.006 C
HETATM   11  C11 UNL     1      37.156  49.454  13.623  1.00  0.00     0.010 C
HETATM   12  C12 UNL     1      39.261  50.565  13.733  1.00  0.00     0.034 C
HETATM   13  C13 UNL     1      40.204  51.655  13.990  1.00  0.00     0.098 C
ENDROOT
BRANCH  13  14
HETATM   14  O1  UNL     1      41.467  51.125  14.272  1.00  0.00    -0.384 OA
ATOM     15  H1  UNL     1      41.245  50.405  14.852  1.00  0.00     0.211 HD
ENDBRANCH  13  14
BRANCH  13  16
HETATM   16  C14 UNL     1      39.882  52.666  15.018  1.00  0.00     0.106 C
BRANCH  16  17
HETATM   17  N1  UNL     1      39.734  52.289  16.355  1.00  0.00    -0.347 N
HETATM   18  C15 UNL     1      40.825  52.603  17.177  1.00  0.00     0.094 C
HETATM   19  C16 UNL     1      40.929  51.685  18.373  1.00  0.00     0.213 C
HETATM   20  O2  UNL     1      39.714  51.827  19.061  1.00  0.00    -0.381 OA
HETATM   21  C17 UNL     1      38.760  51.230  18.274  1.00  0.00     0.213 C
HETATM   22  C18 UNL     1      38.542  51.936  16.937  1.00  0.00     0.094 C
ENDBRANCH  16  17
ENDBRANCH  13  16
TORSDOF 3
ENDMDL