MODEL 1
REMARK VINA RESULT: -7.787649777      0.000      0.000
REMARK  3 active torsions:
REMARK  status: ('A' for Active; 'I' for Inactive)
REMARK    1  A    between atoms: N1_8  and  C7_9
REMARK    2  A    between atoms: C7_9  and  C8_10
REMARK    3  A    between atoms: C14_17  and  O3_18
ROOT
HETATM    1  C8  UNL     1      37.903  51.785  15.044  1.00  0.00     0.008 C
HETATM    2  C9  UNL     1      38.143  51.596  16.493  1.00  0.00     0.032 C
HETATM    3  C10 UNL     1      37.150  50.667  17.159  1.00  0.00     0.169 C
HETATM    4  O2  UNL     1      36.373  49.988  16.225  1.00  0.00    -0.380 OA
HETATM    5  C11 UNL     1      35.603  50.844  15.440  1.00  0.00     0.061 C
HETATM    6  C12 UNL     1      34.853  49.956  14.461  1.00  0.00     0.040 C
HETATM    7  C13 UNL     1      33.826  50.702  13.667  1.00  0.00     0.034 C
HETATM    8  C14 UNL     1      32.789  51.226  14.668  1.00  0.00     0.118 C
HETATM    9  C15 UNL     1      33.479  52.179  15.600  1.00  0.00     0.034 C
HETATM   10  C16 UNL     1      34.615  51.568  16.350  1.00  0.00     0.040 C
HETATM   11  C17 UNL     1      36.402  51.876  14.719  1.00  0.00     0.044 C
ENDROOT
BRANCH   1  12
HETATM   12  C7  UNL     1      38.468  50.784  14.111  1.00  0.00     0.130 C
BRANCH  12  13
HETATM   13  N1  UNL     1      39.826  50.981  13.689  1.00  0.00    -0.352 N
HETATM   14  C1  UNL     1      40.156  50.451  12.418  1.00  0.00     0.219 C
HETATM   15  O1  UNL     1      39.200  50.257  11.624  1.00  0.00    -0.273 OA
HETATM   16  C2  UNL     1      41.474  50.067  11.830  1.00  0.00     0.103 C
HETATM   17  C3  UNL     1      42.590  50.906  12.434  1.00  0.00     0.009 C
HETATM   18  C4  UNL     1      42.208  52.338  12.587  1.00  0.00     0.002 C
HETATM   19  C5  UNL     1      41.445  52.733  13.775  1.00  0.00     0.020 C
HETATM   20  C6  UNL     1      40.762  51.671  14.545  1.00  0.00     0.125 C
ENDBRANCH  12  13
ENDBRANCH   1  12
BRANCH   8  21
HETATM   21  O3  UNL     1      32.237  50.137  15.311  1.00  0.00    -0.396 OA
ATOM     22  H3  UNL     1      31.375  50.390  15.620  1.00  0.00     0.210 HD
ENDBRANCH   8  21
TORSDOF 3
ENDMDL