MODEL 3
REMARK VINA RESULT: -6.155101688      3.875      5.359
REMARK  4 active torsions:
REMARK  status: ('A' for Active; 'I' for Inactive)
REMARK    1  A    between atoms: C2_2  and  C3_3
REMARK    2  A    between atoms: C3_3  and  C4_4
REMARK    3  A    between atoms: C4_4  and  O1_5
REMARK    4  A    between atoms: N2_17  and  O3_18
ROOT
HETATM    1  C4  UNL     1      38.448  51.257  17.415  1.00  0.00     0.181 C
HETATM    2  O2  UNL     1      37.626  51.447  18.536  1.00  0.00    -0.338 OA
HETATM    3  C5  UNL     1      38.261  52.336  19.394  1.00  0.00     0.097 C
HETATM    4  C6  UNL     1      38.712  51.557  20.588  1.00  0.00     0.052 C
HETATM    5  C7  UNL     1      37.254  53.415  19.735  1.00  0.00     0.052 C
HETATM    6  C8  UNL     1      39.386  52.951  18.623  1.00  0.00     0.040 C
HETATM    7  N1  UNL     1      40.391  53.594  18.998  1.00  0.00    -0.360 N
HETATM    8  C9  UNL     1      40.687  53.898  20.366  1.00  0.00     0.152 C
HETATM    9  C10 UNL     1      41.331  54.051  18.020  1.00  0.00     0.124 C
HETATM   10  C11 UNL     1      42.766  53.868  18.543  1.00  0.00     0.065 C
HETATM   11  C12 UNL     1      41.153  55.527  17.759  1.00  0.00     0.065 C
HETATM   12  N2  UNL     1      41.254  53.341  16.783  1.00  0.00    -0.239 N
HETATM   13  C13 UNL     1      40.237  52.677  16.374  1.00  0.00     0.031 C
HETATM   14  C14 UNL     1      40.350  52.001  15.054  1.00  0.00     0.067 C
HETATM   15  C15 UNL     1      39.043  52.630  17.205  1.00  0.00     0.094 C
HETATM   16  C16 UNL     1      38.028  53.595  16.634  1.00  0.00     0.034 C
ENDROOT
BRANCH   1  17
HETATM   17  C3  UNL     1      37.515  50.823  16.308  1.00  0.00     0.069 C
BRANCH  17  18
HETATM   18  C2  UNL     1      36.119  50.712  16.889  1.00  0.00     0.001 C
HETATM   19  C1  UNL     1      35.166  51.349  15.877  1.00  0.00     0.005 C
ENDBRANCH  17  18
ENDBRANCH   1  17
BRANCH   1  20
HETATM   20  O1  UNL     1      39.418  50.328  17.696  1.00  0.00    -0.364 OA
ATOM     21  H1  UNL     1      39.359  49.984  18.580  1.00  0.00     0.213 HD
ENDBRANCH   1  20
BRANCH  12  22
HETATM   22  O3  UNL     1      42.408  53.408  15.988  1.00  0.00    -0.285 OA
ATOM     23  H3  UNL     1      42.249  53.494  15.056  1.00  0.00     0.245 HD
ENDBRANCH  12  22
TORSDOF 4
ENDMDL