MODEL 2
REMARK VINA RESULT: -7.568065408      0.563      1.123
REMARK  2 active torsions:
REMARK  status: ('A' for Active; 'I' for Inactive)
REMARK       I    between atoms: C2_2  and  N1_4
REMARK    1  A    between atoms: N1_4  and  C3_6
REMARK    2  A    between atoms: N2_13  and  C10_14
ROOT
HETATM    1  C3  UNL     1      37.887  50.387  13.311  1.00  0.00     0.084 C
HETATM    2  C4  UNL     1      36.781  49.381  12.970  1.00  0.00     0.026 C
HETATM    3  C5  UNL     1      35.923  49.259  14.182  1.00  0.00     0.013 C
HETATM    4  C6  UNL     1      35.335  50.547  14.664  1.00  0.00    -0.014 C
HETATM    5  C7  UNL     1      35.075  50.354  16.169  1.00  0.00     0.013 C
HETATM    6  C8  UNL     1      34.539  51.687  16.639  1.00  0.00     0.031 C
HETATM    7  C9  UNL     1      33.232  51.934  15.992  1.00  0.00     0.273 C
HETATM    8  N2  UNL     1      33.119  51.639  14.625  1.00  0.00     0.094 N
HETATM    9  C15 UNL     1      33.989  50.722  14.034  1.00  0.00     0.282 C
HETATM   10  C16 UNL     1      36.233  51.726  14.545  1.00  0.00     0.013 C
HETATM   11  C17 UNL     1      37.153  51.727  13.387  1.00  0.00     0.026 C
ENDROOT
BRANCH   8  12
HETATM   12  C10 UNL     1      31.738  51.246  14.362  1.00  0.00     0.227 C
HETATM   13  C11 UNL     1      31.631  49.794  13.982  1.00  0.00     0.062 C
HETATM   14  C12 UNL     1      30.181  49.536  13.610  1.00  0.00     0.169 C
HETATM   15  O2  UNL     1      29.369  50.621  13.929  1.00  0.00    -0.391 OA
HETATM   16  C13 UNL     1      29.660  51.749  13.195  1.00  0.00     0.169 C
HETATM   17  C14 UNL     1      31.153  52.046  13.199  1.00  0.00     0.062 C
ENDBRANCH   8  12
BRANCH   1  18
HETATM   18  N1  UNL     1      38.941  50.387  12.356  1.00  0.00    -0.357 N
HETATM   19  C2  UNL     1      40.295  50.275  12.753  1.00  0.00     0.213 C
HETATM   20  C1  UNL     1      41.395  50.274  11.747  1.00  0.00     0.117 C
HETATM   21  O1  UNL     1      40.550  50.176  13.981  1.00  0.00    -0.274 OA
ATOM     22  H1  UNL     1      38.717  50.469  11.365  1.00  0.00     0.162 HD
ENDBRANCH   1  18
TORSDOF 2
ENDMDL