MODEL 5
REMARK VINA RESULT: -6.695718658      1.854      6.733
REMARK  0 active torsions:
REMARK  status: ('A' for Active; 'I' for Inactive)
REMARK       I    between atoms: N2_7  and  C6_9
REMARK       I    between atoms: C6_9  and  N3_10
REMARK       I    between atoms: C6_9  and  N4_14
ROOT
HETATM    1  C1  UNL     1      43.143  57.141  18.034  1.00  0.00     0.309 C
HETATM    2  N1  UNL     1      42.188  56.087  17.645  1.00  0.00     0.084 N
HETATM    3  C2  UNL     1      41.061  56.219  18.530  1.00  0.00     0.272 C
HETATM    4  C3  UNL     1      39.987  55.216  18.187  1.00  0.00     0.041 C
HETATM    5  C4  UNL     1      40.534  53.900  17.696  1.00  0.00     0.038 C
HETATM    6  C5  UNL     1      39.708  52.735  18.100  1.00  0.00    -0.010 C
HETATM    7  N2  UNL     1      38.771  52.293  17.395  1.00  0.00    -0.345 N
ATOM      8  H2  UNL     1      38.294  51.489  17.803  1.00  0.00     0.163 HD
HETATM    9  C6  UNL     1      38.255  52.684  16.164  1.00  0.00     0.520 C
HETATM   10  N3  UNL     1      37.278  53.761  16.234  1.00  0.00    -0.030 N
ATOM     11  H31 UNL     1      36.900  54.048  15.331  1.00  0.00     0.279 HD
ATOM     12  H32 UNL     1      37.670  54.564  16.725  1.00  0.00     0.279 HD
ATOM     13  H33 UNL     1      36.522  53.515  16.873  1.00  0.00     0.279 HD
HETATM   14  N4  UNL     1      37.649  51.630  15.384  1.00  0.00     0.138 N
HETATM   15  C7  UNL     1      37.191  52.235  14.153  1.00  0.00     0.277 C
HETATM   16  C8  UNL     1      36.484  51.305  13.238  1.00  0.00     0.030 C
HETATM   17  C9  UNL     1      37.271  50.163  12.711  1.00  0.00     0.002 C
HETATM   18  C10 UNL     1      38.750  50.366  12.685  1.00  0.00     0.002 C
HETATM   19  C11 UNL     1      39.392  50.582  14.011  1.00  0.00     0.030 C
HETATM   20  C12 UNL     1      38.465  50.484  15.191  1.00  0.00     0.277 C
HETATM   21  C13 UNL     1      39.965  52.018  19.406  1.00  0.00     0.052 C
HETATM   22  C14 UNL     1      41.463  51.855  19.637  1.00  0.00     0.006 C
HETATM   23  C15 UNL     1      42.030  53.277  19.605  1.00  0.00     0.007 C
HETATM   24  C16 UNL     1      41.968  53.686  18.141  1.00  0.00     0.023 C
HETATM   25  C17 UNL     1      42.859  54.813  17.790  1.00  0.00     0.277 C
ENDROOT
TORSDOF 0
ENDMDL