MODEL 4
REMARK VINA RESULT: -6.619541920      1.773      2.747
REMARK  3 active torsions:
REMARK  status: ('A' for Active; 'I' for Inactive)
REMARK    1  A    between atoms: C10_11  and  O1_12
REMARK    2  A    between atoms: C10_11  and  C11_14
REMARK    3  A    between atoms: C11_14  and  N2_15
ROOT
HETATM    1  C1  UNL     1      41.054  52.051  20.544  1.00  0.00     0.310 C
HETATM    2  N1  UNL     1      40.000  52.961  20.142  1.00  0.00     0.090 N
HETATM    3  C2  UNL     1      38.850  52.781  21.056  1.00  0.00     0.272 C
HETATM    4  C3  UNL     1      37.767  53.750  20.795  1.00  0.00     0.031 C
HETATM    5  C4  UNL     1      37.741  54.408  19.477  1.00  0.00     0.013 C
HETATM    6  C5  UNL     1      38.654  53.877  18.443  1.00  0.00    -0.009 C
HETATM    7  C6  UNL     1      39.799  54.872  18.194  1.00  0.00     0.012 C
HETATM    8  C7  UNL     1      40.804  53.990  17.444  1.00  0.00     0.010 C
HETATM    9  C8  UNL     1      40.449  52.591  17.724  1.00  0.00     0.056 C
HETATM   10  C9  UNL     1      39.460  52.658  18.853  1.00  0.00     0.238 C
HETATM   11  C10 UNL     1      39.703  51.862  16.583  1.00  0.00     0.090 C
HETATM   12  C17 UNL     1      38.234  52.233  16.615  1.00  0.00     0.041 C
HETATM   13  C18 UNL     1      37.997  53.653  17.091  1.00  0.00     0.014 C
ENDROOT
BRANCH  11  14
HETATM   14  O1  UNL     1      39.807  50.508  16.895  1.00  0.00    -0.388 OA
ATOM     15  H1  UNL     1      39.498  50.439  17.790  1.00  0.00     0.210 HD
ENDBRANCH  11  14
BRANCH  11  16
HETATM   16  C11 UNL     1      40.363  52.165  15.306  1.00  0.00     0.310 C
BRANCH  16  17
HETATM   17  N2  UNL     1      40.445  51.076  14.328  1.00  0.00     0.091 N
HETATM   18  C12 UNL     1      39.321  51.416  13.398  1.00  0.00     0.272 C
HETATM   19  C13 UNL     1      39.296  50.444  12.264  1.00  0.00     0.030 C
HETATM   20  C14 UNL     1      40.520  50.781  11.396  1.00  0.00     0.003 C
HETATM   21  C15 UNL     1      41.722  50.576  12.251  1.00  0.00     0.030 C
HETATM   22  C16 UNL     1      41.672  51.303  13.559  1.00  0.00     0.272 C
ENDBRANCH  16  17
ENDBRANCH  11  16
TORSDOF 3
ENDMDL