MODEL 4
REMARK VINA RESULT: -6.628449699      5.073      7.003
REMARK  2 active torsions:
REMARK  status: ('A' for Active; 'I' for Inactive)
REMARK    1  A    between atoms: C9_10  and  C10_11
REMARK       I    between atoms: C10_11  and  N2_13
REMARK    2  A    between atoms: N2_13  and  C11_15
ROOT
HETATM    1  C1  UNL     1      41.804  49.387  11.659  1.00  0.00     0.309 C
HETATM    2  N1  UNL     1      41.421  50.588  12.366  1.00  0.00     0.085 N
HETATM    3  C2  UNL     1      42.459  51.573  12.411  1.00  0.00     0.272 C
HETATM    4  C3  UNL     1      42.513  52.177  13.779  1.00  0.00     0.031 C
HETATM    5  C4  UNL     1      41.146  52.711  14.190  1.00  0.00     0.013 C
HETATM    6  C5  UNL     1      40.081  51.632  14.024  1.00  0.00    -0.013 C
HETATM    7  C6  UNL     1      39.187  52.043  12.904  1.00  0.00     0.011 C
HETATM    8  C7  UNL     1      37.868  51.329  12.874  1.00  0.00     0.002 C
HETATM    9  C8  UNL     1      37.199  51.565  14.227  1.00  0.00     0.014 C
HETATM   10  C9  UNL     1      38.050  50.793  15.240  1.00  0.00     0.078 C
HETATM   11  C16 UNL     1      39.390  51.481  15.342  1.00  0.00     0.025 C
HETATM   12  C17 UNL     1      40.776  50.336  13.611  1.00  0.00     0.281 C
ENDROOT
BRANCH  10  13
HETATM   13  C10 UNL     1      37.412  50.876  16.579  1.00  0.00     0.222 C
HETATM   14  O1  UNL     1      36.349  50.223  16.760  1.00  0.00    -0.273 OA
HETATM   15  N2  UNL     1      37.963  51.656  17.621  1.00  0.00    -0.356 N
ATOM     16  H2  UNL     1      38.823  52.182  17.465  1.00  0.00     0.162 HD
BRANCH  15  17
HETATM   17  C11 UNL     1      37.304  51.708  18.916  1.00  0.00     0.088 C
HETATM   18  C12 UNL     1      36.500  52.988  18.990  1.00  0.00     0.051 C
HETATM   19  C13 UNL     1      37.351  54.040  19.669  1.00  0.00     0.169 C
HETATM   20  O2  UNL     1      37.445  53.739  21.026  1.00  0.00    -0.391 OA
HETATM   21  C14 UNL     1      37.752  52.409  21.248  1.00  0.00     0.169 C
HETATM   22  C15 UNL     1      38.333  51.732  20.024  1.00  0.00     0.051 C
ENDBRANCH  15  17
ENDBRANCH  10  13
TORSDOF 2
ENDMDL