MODEL 1
REMARK VINA RESULT: -7.613773841      0.000      0.000
REMARK  9 active torsions:
REMARK  status: ('A' for Active; 'I' for Inactive)
REMARK    1  A    between atoms: O1_2  and  C2_3
REMARK    2  A    between atoms: C2_3  and  C3_5
REMARK    3  A    between atoms: C3_5  and  C4_6
REMARK    4  A    between atoms: C3_5  and  C5_9
REMARK    5  A    between atoms: C4_6  and  O3_7
REMARK    6  A    between atoms: C5_9  and  C6_10
REMARK    7  A    between atoms: C6_10  and  O4_11
REMARK    8  A    between atoms: C7_13  and  C8_14
REMARK    9  A    between atoms: C8_14  and  C9_15
ROOT
HETATM    1  C9  UNL     1      40.039  53.235  17.296  1.00  0.00     0.052 C
HETATM    2  C10 UNL     1      39.685  54.652  17.703  1.00  0.00     0.186 C
HETATM    3  O5  UNL     1      39.494  54.453  19.093  1.00  0.00    -0.379 OA
HETATM    4  C11 UNL     1      38.729  53.277  19.203  1.00  0.00     0.058 C
HETATM    5  C12 UNL     1      37.289  53.769  19.422  1.00  0.00     0.046 C
HETATM    6  C13 UNL     1      39.101  52.519  20.420  1.00  0.00     0.046 C
HETATM    7  C14 UNL     1      38.806  52.592  17.917  1.00  0.00     0.038 C
HETATM    8  C15 UNL     1      38.878  51.162  17.796  1.00  0.00     0.010 C
HETATM    9  C16 UNL     1      38.021  50.663  16.656  1.00  0.00     0.011 C
HETATM   10  C17 UNL     1      38.011  51.377  15.402  1.00  0.00    -0.025 A
HETATM   11  C18 UNL     1      36.616  51.439  14.731  1.00  0.00     0.016 C
HETATM   12  C19 UNL     1      38.946  52.345  14.976  1.00  0.00     0.073 A
HETATM   13  C20 UNL     1      39.930  52.967  15.869  1.00  0.00     0.144 C
HETATM   14  O6  UNL     1      40.920  53.364  15.230  1.00  0.00    -0.297 OA
HETATM   15  C21 UNL     1      39.097  50.988  14.411  1.00  0.00    -0.029 A
HETATM   16  C22 UNL     1      38.693  50.731  12.966  1.00  0.00     0.016 C
HETATM   17  C23 UNL     1      40.290  50.215  14.868  1.00  0.00     0.016 C
ENDROOT
BRANCH   1  18
HETATM   18  C8  UNL     1      41.335  52.787  17.890  1.00  0.00     0.049 C
BRANCH  18  19
HETATM   19  C7  UNL     1      42.209  53.929  18.267  1.00  0.00     0.006 C
HETATM   20  C6  UNL     1      43.218  54.366  17.543  1.00  0.00     0.040 C
BRANCH  20  21
HETATM   21  C5  UNL     1      44.076  55.488  17.911  1.00  0.00     0.080 C
BRANCH  21  22
HETATM   22  C3  UNL     1      43.847  56.739  17.140  1.00  0.00     0.115 C
BRANCH  22  23
HETATM   23  C2  UNL     1      45.030  57.266  16.463  1.00  0.00     0.265 C
HETATM   24  O2  UNL     1      44.937  58.120  15.550  1.00  0.00    -0.265 OA
BRANCH  23  25
HETATM   25  O1  UNL     1      46.285  56.826  16.824  1.00  0.00    -0.326 OA
HETATM   26  C1  UNL     1      47.419  56.950  15.963  1.00  0.00     0.213 C
ENDBRANCH  23  25
ENDBRANCH  22  23
BRANCH  22  27
HETATM   27  C4  UNL     1      43.337  57.794  18.095  1.00  0.00     0.179 C
BRANCH  27  28
HETATM   28  O3  UNL     1      44.416  58.561  18.595  1.00  0.00    -0.400 OA
ATOM     29  H3  UNL     1      44.370  59.449  18.261  1.00  0.00     0.209 HD
ENDBRANCH  27  28
ENDBRANCH  22  27
ENDBRANCH  21  22
ENDBRANCH  20  21
BRANCH  20  30
HETATM   30  O4  UNL     1      43.480  53.707  16.339  1.00  0.00    -0.365 OA
ATOM     31  H4  UNL     1      42.783  53.189  15.954  1.00  0.00     0.217 HD
ENDBRANCH  20  30
ENDBRANCH  18  19
ENDBRANCH   1  18
TORSDOF 9
ENDMDL