MODEL 5
REMARK VINA RESULT: -7.453719727      1.350      1.945
REMARK  8 active torsions:
REMARK  status: ('A' for Active; 'I' for Inactive)
REMARK    1  A    between atoms: O1_2  and  C2_3
REMARK    2  A    between atoms: C4_5  and  C5_6
REMARK    3  A    between atoms: N2_15  and  C11_16
REMARK    4  A    between atoms: C11_16  and  C12_17
REMARK    5  A    between atoms: C13_18  and  C14_19
REMARK    6  A    between atoms: C14_19  and  C15_20
REMARK    7  A    between atoms: C19_26  and  O4_27
REMARK    8  A    between atoms: C21_29  and  O5_30
ROOT
HETATM    1  C15 UNL     1      35.392  49.171  13.601  1.00  0.00     0.136 C
HETATM    2  C16 UNL     1      34.178  50.004  13.613  1.00  0.00     0.060 C
HETATM    3  N3  UNL     1      33.215  50.653  13.629  1.00  0.00    -0.197 NA
ENDROOT
BRANCH   1   4
HETATM    4  C14 UNL     1      36.115  49.357  12.276  1.00  0.00     0.108 C
BRANCH   4   5
HETATM    5  C13 UNL     1      37.250  50.276  12.401  1.00  0.00    -0.104 C
HETATM    6  C12 UNL     1      38.185  51.052  12.521  1.00  0.00    -0.087 C
BRANCH   6   7
HETATM    7  C11 UNL     1      39.279  51.990  12.668  1.00  0.00     0.222 C
BRANCH   7   8
HETATM    8  N2  UNL     1      40.009  51.735  13.887  1.00  0.00    -0.311 N
HETATM    9  C8  UNL     1      41.403  51.410  13.948  1.00  0.00     0.104 C
HETATM   10  N1  UNL     1      41.641  50.294  14.844  1.00  0.00    -0.331 N
HETATM   11  C9  UNL     1      42.224  52.579  14.506  1.00  0.00     0.063 C
HETATM   12  C10 UNL     1      41.998  51.073  12.609  1.00  0.00     0.063 C
HETATM   13  C7  UNL     1      40.998  50.314  16.110  1.00  0.00     0.259 C
ATOM     14  H1  UNL     1      42.250  49.521  14.573  1.00  0.00     0.165 HD
HETATM   15  C6  UNL     1      39.763  51.094  16.322  1.00  0.00     0.100 C
HETATM   16  O2  UNL     1      41.536  49.633  17.037  1.00  0.00    -0.267 OA
HETATM   17  C5  UNL     1      39.240  51.101  17.516  1.00  0.00     0.034 C
HETATM   18  C17 UNL     1      39.300  51.806  15.145  1.00  0.00     0.262 C
HETATM   19  O3  UNL     1      38.282  52.503  15.185  1.00  0.00    -0.267 OA
BRANCH  17  20
HETATM   20  C4  UNL     1      38.082  51.726  18.050  1.00  0.00    -0.030 A
HETATM   21  C3  UNL     1      36.846  51.146  18.028  1.00  0.00     0.051 A
HETATM   22  C2  UNL     1      35.751  51.811  18.543  1.00  0.00     0.104 A
HETATM   23  C21 UNL     1      35.886  53.065  19.086  1.00  0.00     0.133 A
HETATM   24  C19 UNL     1      37.117  53.667  19.120  1.00  0.00     0.104 A
HETATM   25  C18 UNL     1      38.206  52.986  18.598  1.00  0.00     0.051 A
BRANCH  22  26
HETATM   26  O1  UNL     1      34.525  51.168  18.491  1.00  0.00    -0.353 OA
HETATM   27  C1  UNL     1      33.961  50.718  17.285  1.00  0.00     0.210 C
ENDBRANCH  22  26
BRANCH  23  28
HETATM   28  O5  UNL     1      34.775  53.717  19.599  1.00  0.00    -0.356 OA
ATOM     29  H5  UNL     1      34.550  54.585  19.285  1.00  0.00     0.218 HD
ENDBRANCH  23  28
BRANCH  24  30
HETATM   30  O4  UNL     1      37.220  54.937  19.676  1.00  0.00    -0.353 OA
HETATM   31  C20 UNL     1      38.507  55.427  19.995  1.00  0.00     0.210 C
ENDBRANCH  24  30
ENDBRANCH  17  20
ENDBRANCH   7   8
ENDBRANCH   6   7
ENDBRANCH   4   5
ENDBRANCH   1   4
TORSDOF 8
ENDMDL