MODEL 3
REMARK VINA RESULT: -8.970113775      0.716      1.091
REMARK  5 active torsions:
REMARK  status: ('A' for Active; 'I' for Inactive)
REMARK    1  A    between atoms: O1_2  and  C2_3
REMARK    2  A    between atoms: C6_9  and  S1_10
REMARK    3  A    between atoms: S1_10  and  C7_13
REMARK    4  A    between atoms: C7_13  and  C8_14
REMARK    5  A    between atoms: C20_30  and  O5_31
ROOT
HETATM    1  C2  UNL     1      30.897  50.481  14.273  1.00  0.00     0.103 A
HETATM    2  C3  UNL     1      31.997  49.953  13.621  1.00  0.00     0.070 A
HETATM    3  C4  UNL     1      33.291  50.318  13.999  1.00  0.00     0.047 A
HETATM    4  N1  UNL     1      34.326  49.789  13.349  1.00  0.00    -0.364 N
ATOM      5  H1  UNL     1      34.172  49.128  12.587  1.00  0.00     0.165 HD
HETATM    6  C5  UNL     1      35.573  50.130  13.701  1.00  0.00     0.114 A
HETATM    7  C6  UNL     1      35.804  51.012  14.715  1.00  0.00     0.101 A
HETATM    8  C17 UNL     1      34.716  51.556  15.384  1.00  0.00     0.061 A
HETATM    9  N2  UNL     1      34.988  52.373  16.322  1.00  0.00    -0.397 N
ATOM     10  H21 UNL     1      34.188  52.772  16.813  1.00  0.00     0.156 HD
ATOM     11  H22 UNL     1      35.940  52.628  16.583  1.00  0.00     0.156 HD
HETATM   12  C18 UNL     1      33.433  51.213  15.031  1.00  0.00     0.021 A
HETATM   13  C19 UNL     1      32.360  51.761  15.705  1.00  0.00     0.055 A
HETATM   14  C20 UNL     1      31.082  51.376  15.303  1.00  0.00     0.102 A
ENDROOT
BRANCH   7  15
HETATM   15  S1  UNL     1      37.473  51.477  15.196  1.00  0.00     0.180 S
HETATM   16  O2  UNL     1      37.650  51.006  16.586  1.00  0.00    -0.222 OA
HETATM   17  O3  UNL     1      37.400  53.003  15.100  1.00  0.00    -0.222 OA
BRANCH  15  18
HETATM   18  C7  UNL     1      38.521  50.825  14.001  1.00  0.00     0.160 C
BRANCH  18  19
HETATM   19  C8  UNL     1      39.936  51.174  13.884  1.00  0.00    -0.001 C
HETATM   20  C9  UNL     1      40.106  52.343  12.919  1.00  0.00    -0.012 C
HETATM   21  C10 UNL     1      41.313  52.703  12.558  1.00  0.00     0.047 C
HETATM   22  C11 UNL     1      42.402  51.919  13.139  1.00  0.00     0.154 C
HETATM   23  O4  UNL     1      43.611  52.158  12.924  1.00  0.00    -0.293 OA
HETATM   24  C12 UNL     1      41.987  50.820  14.004  1.00  0.00     0.069 C
HETATM   25  C13 UNL     1      40.851  50.084  13.328  1.00  0.00     0.028 C
HETATM   26  C14 UNL     1      40.890  51.355  14.982  1.00  0.00    -0.025 C
HETATM   27  C15 UNL     1      40.946  50.473  16.176  1.00  0.00     0.016 C
HETATM   28  C16 UNL     1      41.185  52.805  15.367  1.00  0.00     0.016 C
ENDBRANCH  18  19
ENDBRANCH  15  18
ENDBRANCH   7  15
BRANCH  14  29
HETATM   29  O5  UNL     1      29.977  51.900  15.950  1.00  0.00    -0.353 OA
HETATM   30  C21 UNL     1      29.798  53.288  16.040  1.00  0.00     0.210 C
ENDBRANCH  14  29
BRANCH   1  31
HETATM   31  O1  UNL     1      29.607  50.129  13.910  1.00  0.00    -0.353 OA
HETATM   32  C1  UNL     1      29.020  50.460  12.688  1.00  0.00     0.210 C
ENDBRANCH   1  31
TORSDOF 5
ENDMDL