MODEL 2
REMARK VINA RESULT: -7.724615718      2.023      6.716
REMARK  8 active torsions:
REMARK  status: ('A' for Active; 'I' for Inactive)
REMARK    1  A    between atoms: C2_2  and  C3_3
REMARK    2  A    between atoms: C8_8  and  O1_9
REMARK    3  A    between atoms: C14_17  and  O3_18
REMARK    4  A    between atoms: O3_18  and  C15_19
REMARK    5  A    between atoms: C15_19  and  C16_20
REMARK    6  A    between atoms: C16_20  and  O4_21
REMARK    7  A    between atoms: C16_20  and  C17_23
REMARK    8  A    between atoms: C22_29  and  C23_30
ROOT
HETATM    1  C3  UNL     1      41.018  52.002  13.099  1.00  0.00    -0.010 C
HETATM    2  C4  UNL     1      41.065  53.507  12.839  1.00  0.00     0.021 C
HETATM    3  C5  UNL     1      42.322  51.469  12.623  1.00  0.00     0.014 C
HETATM    4  C6  UNL     1      43.409  51.304  13.603  1.00  0.00     0.004 C
HETATM    5  C7  UNL     1      43.217  52.145  14.792  1.00  0.00     0.042 C
HETATM    6  C8  UNL     1      41.866  52.075  15.444  1.00  0.00     0.102 C
HETATM    7  C9  UNL     1      41.729  53.397  16.109  1.00  0.00     0.192 A
HETATM    8  O2  UNL     1      42.650  53.972  16.923  1.00  0.00    -0.366 OA
HETATM    9  C10 UNL     1      41.402  53.526  17.429  1.00  0.00     0.087 A
HETATM   10  C11 UNL     1      41.690  52.850  18.712  1.00  0.00     0.049 C
HETATM   11  C12 UNL     1      40.211  54.458  17.510  1.00  0.00     0.043 C
HETATM   12  C13 UNL     1      39.246  53.982  16.444  1.00  0.00     0.035 C
HETATM   13  C14 UNL     1      39.119  52.457  16.382  1.00  0.00     0.126 C
HETATM   14  C20 UNL     1      39.365  51.951  14.980  1.00  0.00     0.030 C
HETATM   15  C21 UNL     1      38.384  50.820  14.781  1.00  0.00     0.014 C
HETATM   16  C22 UNL     1      40.739  51.666  14.558  1.00  0.00     0.062 C
ENDROOT
BRANCH  13  17
HETATM   17  O3  UNL     1      37.846  52.231  16.843  1.00  0.00    -0.383 OA
BRANCH  17  18
HETATM   18  C15 UNL     1      37.093  53.199  17.364  1.00  0.00     0.202 C
BRANCH  18  19
HETATM   19  C16 UNL     1      36.513  53.130  18.718  1.00  0.00     0.173 C
BRANCH  19  20
HETATM   20  O4  UNL     1      35.136  53.062  18.766  1.00  0.00    -0.391 OA
ATOM     21  H4  UNL     1      34.698  53.870  19.007  1.00  0.00     0.210 HD
ENDBRANCH  19  20
BRANCH  19  22
HETATM   22  C17 UNL     1      37.048  51.938  19.511  1.00  0.00     0.181 A
HETATM   23  O5  UNL     1      36.681  52.019  20.871  1.00  0.00    -0.373 OA
HETATM   24  C18 UNL     1      38.086  52.101  20.511  1.00  0.00     0.149 A
HETATM   25  C19 UNL     1      38.735  53.420  20.819  1.00  0.00     0.042 C
ENDBRANCH  19  22
ENDBRANCH  18  19
ENDBRANCH  17  18
ENDBRANCH  13  17
BRANCH  16  26
HETATM   26  C23 UNL     1      40.812  50.151  14.649  1.00  0.00     0.245 C
HETATM   27  O6  UNL     1      40.649  49.466  15.587  1.00  0.00    -0.306 OA
ENDBRANCH  16  26
BRANCH   1  28
HETATM   28  C2  UNL     1      39.969  51.551  12.163  1.00  0.00    -0.026 C
HETATM   29  C1  UNL     1      39.932  50.561  11.319  1.00  0.00     0.008 C
ENDBRANCH   1  28
BRANCH   6  30
HETATM   30  O1  UNL     1      42.036  51.147  16.512  1.00  0.00    -0.386 OA
ATOM     31  H1  UNL     1      41.765  50.314  16.145  1.00  0.00     0.210 HD
ENDBRANCH   6  30
TORSDOF 8
ENDMDL