MODEL 1
REMARK VINA RESULT: -7.498051974      0.000      0.000
REMARK  8 active torsions:
REMARK  status: ('A' for Active; 'I' for Inactive)
REMARK    1  A    between atoms: C4_4  and  C5_5
REMARK    2  A    between atoms: C10_12  and  C11_13
REMARK    3  A    between atoms: C11_13  and  O3_15
REMARK    4  A    between atoms: C11_13  and  C13_17
REMARK    5  A    between atoms: C13_17  and  C14_18
REMARK    6  A    between atoms: C14_18  and  C15_19
REMARK    7  A    between atoms: C15_19  and  O4_21
REMARK    8  A    between atoms: C18_24  and  O5_25
ROOT
HETATM    1  C1  UNL     1      36.548  53.920  20.645  1.00  0.00     0.043 C
HETATM    2  C2  UNL     1      37.745  53.595  19.824  1.00  0.00    -0.078 C
HETATM    3  C3  UNL     1      37.619  53.366  18.521  1.00  0.00     0.008 C
HETATM    4  C4  UNL     1      38.845  53.041  17.715  1.00  0.00     0.158 C
HETATM    5  O1  UNL     1      39.613  54.122  17.393  1.00  0.00    -0.311 OA
HETATM    6  C8  UNL     1      40.313  55.082  17.995  1.00  0.00     0.277 C
HETATM    7  O2  UNL     1      39.887  56.300  17.892  1.00  0.00    -0.264 OA
HETATM    8  C9  UNL     1      41.537  55.030  18.794  1.00  0.00     0.119 A
HETATM    9  C10 UNL     1      42.717  55.702  18.263  1.00  0.00    -0.025 A
HETATM   10  C17 UNL     1      43.457  54.636  18.437  1.00  0.00     0.020 A
HETATM   11  C18 UNL     1      42.318  53.846  18.999  1.00  0.00     0.102 A
HETATM   12  C19 UNL     1      42.224  54.016  20.484  1.00  0.00     0.034 C
HETATM   13  C20 UNL     1      41.946  52.852  21.344  1.00  0.00     0.014 C
HETATM   14  C21 UNL     1      41.209  55.069  20.243  1.00  0.00     0.088 C
HETATM   15  C22 UNL     1      39.791  54.814  20.538  1.00  0.00     0.137 C
HETATM   16  O6  UNL     1      39.055  55.775  20.837  1.00  0.00    -0.297 OA
HETATM   17  C23 UNL     1      39.074  53.537  20.533  1.00  0.00     0.112 C
ENDROOT
BRANCH   9  18
HETATM   18  C11 UNL     1      43.040  57.093  17.689  1.00  0.00     0.079 C
HETATM   19  C12 UNL     1      42.893  56.980  16.158  1.00  0.00     0.051 C
BRANCH  18  20
HETATM   20  O3  UNL     1      42.140  58.035  18.101  1.00  0.00    -0.386 OA
ATOM     21  H3  UNL     1      42.542  58.689  18.660  1.00  0.00     0.211 HD
ENDBRANCH  18  20
BRANCH  18  22
HETATM   22  C13 UNL     1      44.455  57.382  18.001  1.00  0.00     0.045 C
BRANCH  22  23
HETATM   23  C14 UNL     1      45.439  57.419  16.908  1.00  0.00     0.034 C
BRANCH  23  24
HETATM   24  C15 UNL     1      46.697  56.680  16.888  1.00  0.00     0.114 C
HETATM   25  C16 UNL     1      47.503  57.086  15.589  1.00  0.00     0.039 C
BRANCH  24  26
HETATM   26  O4  UNL     1      46.554  55.281  16.598  1.00  0.00    -0.396 OA
ATOM     27  H4  UNL     1      46.762  55.046  15.702  1.00  0.00     0.210 HD
ENDBRANCH  24  26
ENDBRANCH  23  24
ENDBRANCH  22  23
ENDBRANCH  18  22
ENDBRANCH   9  18
BRANCH  11  28
HETATM   28  O5  UNL     1      42.167  52.669  18.406  1.00  0.00    -0.384 OA
ATOM     29  H5  UNL     1      42.306  52.463  17.489  1.00  0.00     0.211 HD
ENDBRANCH  11  28
BRANCH   4  30
HETATM   30  C5  UNL     1      38.304  52.478  16.386  1.00  0.00     0.011 C
HETATM   31  C6  UNL     1      39.427  52.613  15.372  1.00  0.00     0.012 C
HETATM   32  C7  UNL     1      37.156  53.325  15.883  1.00  0.00     0.012 C
ENDBRANCH   4  30
TORSDOF 8
ENDMDL