MODEL 5
REMARK VINA RESULT: -8.130003696      2.058      4.164
REMARK  6 active torsions:
REMARK  status: ('A' for Active; 'I' for Inactive)
REMARK    1  A    between atoms: C4_4  and  C5_5
REMARK    2  A    between atoms: C9_10  and  S1_11
REMARK    3  A    between atoms: S1_11  and  N1_14
REMARK    4  A    between atoms: N1_14  and  C10_16
REMARK    5  A    between atoms: C15_24  and  O5_25
REMARK    6  A    between atoms: O5_25  and  C16_26
ROOT
HETATM    1  C1  UNL     1      36.885  50.306  12.389  1.00  0.00     0.043 C
HETATM    2  C2  UNL     1      37.757  50.869  13.199  1.00  0.00     0.024 A
HETATM    3  C3  UNL     1      39.032  51.371  12.738  1.00  0.00     0.044 A
HETATM    4  C4  UNL     1      39.949  51.952  13.533  1.00  0.00     0.024 A
HETATM    5  C7  UNL     1      39.625  52.077  14.934  1.00  0.00     0.006 A
HETATM    6  C8  UNL     1      40.511  52.665  15.831  1.00  0.00     0.042 A
HETATM    7  C9  UNL     1      40.200  52.782  17.162  1.00  0.00     0.114 A
HETATM    8  C15 UNL     1      38.994  52.312  17.613  1.00  0.00     0.094 A
HETATM    9  C18 UNL     1      38.076  51.723  16.786  1.00  0.00     0.068 A
HETATM   10  C19 UNL     1      38.398  51.607  15.441  1.00  0.00     0.046 A
HETATM   11  N3  UNL     1      37.453  50.998  14.572  1.00  0.00    -0.356 N
ATOM     12  H3  UNL     1      36.564  50.658  14.936  1.00  0.00     0.166 HD
ENDROOT
BRANCH   7  13
HETATM   13  S1  UNL     1      41.366  53.533  18.262  1.00  0.00     0.267 S
HETATM   14  O2  UNL     1      40.684  54.743  18.857  1.00  0.00    -0.200 OA
HETATM   15  O3  UNL     1      41.562  52.568  19.405  1.00  0.00    -0.200 OA
BRANCH  13  16
HETATM   16  N1  UNL     1      42.746  54.009  17.467  1.00  0.00    -0.258 N
ATOM     17  H1  UNL     1      43.377  53.223  17.307  1.00  0.00     0.181 HD
BRANCH  16  18
HETATM   18  C10 UNL     1      43.213  55.076  17.015  1.00  0.00     0.187 A
HETATM   19  O4  UNL     1      42.447  55.964  16.387  1.00  0.00    -0.218 OA
HETATM   20  N2  UNL     1      43.129  56.971  16.013  1.00  0.00    -0.263 N
HETATM   21  C11 UNL     1      44.421  56.855  16.355  1.00  0.00     0.039 A
ATOM     22  H2  UNL     1      42.739  57.770  15.512  1.00  0.00     0.194 HD
HETATM   23  C12 UNL     1      45.571  57.769  16.134  1.00  0.00     0.071 C
HETATM   24  C13 UNL     1      44.470  55.610  17.014  1.00  0.00     0.016 A
HETATM   25  C14 UNL     1      45.709  55.055  17.574  1.00  0.00     0.055 C
ENDBRANCH  16  18
ENDBRANCH  13  16
ENDBRANCH   7  13
BRANCH   8  26
HETATM   26  O5  UNL     1      38.719  52.448  18.952  1.00  0.00    -0.350 OA
BRANCH  26  27
HETATM   27  C16 UNL     1      37.993  51.599  19.763  1.00  0.00     0.171 C
HETATM   28  C17 UNL     1      38.476  51.610  21.190  1.00  0.00     0.034 C
ENDBRANCH  26  27
ENDBRANCH   8  26
BRANCH   4  29
HETATM   29  C5  UNL     1      41.188  52.413  12.952  1.00  0.00     0.156 C
HETATM   30  C6  UNL     1      42.357  51.455  12.843  1.00  0.00     0.097 C
HETATM   31  O1  UNL     1      41.373  53.550  12.527  1.00  0.00    -0.293 OA
ENDBRANCH   4  29
TORSDOF 6
ENDMDL