MODEL 4
REMARK VINA RESULT: -7.488292681      1.729      4.242
REMARK  7 active torsions:
REMARK  status: ('A' for Active; 'I' for Inactive)
REMARK    1  A    between atoms: C2_2  and  C3_3
REMARK    2  A    between atoms: C4_4  and  O1_5
REMARK    3  A    between atoms: C8_10  and  O2_12
REMARK    4  A    between atoms: C15_20  and  O4_21
REMARK    5  A    between atoms: C17_24  and  C18_25
REMARK    6  A    between atoms: C18_25  and  C19_26
REMARK    7  A    between atoms: C19_26  and  C20_27
ROOT
HETATM    1  C3  UNL     1      41.275  54.618  16.823  1.00  0.00     0.044 C
HETATM    2  C4  UNL     1      41.051  55.063  18.219  1.00  0.00     0.130 C
HETATM    3  C5  UNL     1      39.719  54.638  18.851  1.00  0.00     0.074 C
HETATM    4  C6  UNL     1      39.250  53.426  18.137  1.00  0.00    -0.010 C
HETATM    5  C7  UNL     1      38.078  53.840  17.676  1.00  0.00     0.021 C
HETATM    6  C8  UNL     1      37.085  53.043  16.825  1.00  0.00     0.076 C
HETATM    7  C9  UNL     1      36.149  52.393  17.807  1.00  0.00     0.051 C
HETATM    8  C10 UNL     1      37.913  51.898  16.191  1.00  0.00     0.021 C
HETATM    9  C11 UNL     1      37.031  51.294  15.128  1.00  0.00     0.013 C
HETATM   10  C12 UNL     1      39.219  52.406  15.563  1.00  0.00     0.030 C
HETATM   11  C13 UNL     1      40.430  52.185  16.394  1.00  0.00     0.082 C
HETATM   12  C14 UNL     1      39.893  52.154  17.840  1.00  0.00     0.169 C
HETATM   13  O3  UNL     1      40.066  51.133  18.510  1.00  0.00    -0.292 OA
HETATM   14  C15 UNL     1      41.226  51.018  16.006  1.00  0.00     0.276 C
HETATM   15  O5  UNL     1      42.474  51.448  15.514  1.00  0.00    -0.354 OA
HETATM   16  C17 UNL     1      42.360  52.842  15.358  1.00  0.00     0.131 C
HETATM   17  C24 UNL     1      41.478  53.226  16.485  1.00  0.00     0.046 C
ENDROOT
BRANCH  16  18
HETATM   18  C18 UNL     1      42.025  53.222  13.980  1.00  0.00     0.036 C
BRANCH  18  19
HETATM   19  C19 UNL     1      42.352  52.089  12.979  1.00  0.00     0.030 C
BRANCH  19  20
HETATM   20  C20 UNL     1      41.126  51.578  12.312  1.00  0.00    -0.025 C
HETATM   21  C21 UNL     1      41.111  50.383  11.730  1.00  0.00    -0.091 C
HETATM   22  C22 UNL     1      39.883  49.891  11.070  1.00  0.00     0.042 C
HETATM   23  C23 UNL     1      42.325  49.522  11.729  1.00  0.00     0.042 C
ENDBRANCH  19  20
ENDBRANCH  18  19
ENDBRANCH  16  18
BRANCH  14  24
HETATM   24  O4  UNL     1      41.483  50.066  16.950  1.00  0.00    -0.365 OA
HETATM   25  C16 UNL     1      40.719  48.908  16.756  1.00  0.00     0.204 C
ENDBRANCH  14  24
BRANCH   1  26
HETATM   26  C2  UNL     1      42.591  55.307  16.442  1.00  0.00    -0.029 C
HETATM   27  C1  UNL     1      43.695  55.190  17.121  1.00  0.00     0.007 C
ENDBRANCH   1  26
BRANCH   2  28
HETATM   28  O1  UNL     1      41.035  56.458  18.323  1.00  0.00    -0.395 OA
ATOM     29  H1  UNL     1      40.240  56.830  17.960  1.00  0.00     0.210 HD
ENDBRANCH   2  28
BRANCH   6  30
HETATM   30  O2  UNL     1      36.416  53.800  15.932  1.00  0.00    -0.386 OA
ATOM     31  H2  UNL     1      36.962  54.121  15.224  1.00  0.00     0.211 HD
ENDBRANCH   6  30
TORSDOF 7
ENDMDL