MODEL 1
REMARK VINA RESULT: -8.489815148      0.000      0.000
REMARK  6 active torsions:
REMARK  status: ('A' for Active; 'I' for Inactive)
REMARK    1  A    between atoms: C2_2  and  C3_3
REMARK       I    between atoms: C3_3  and  N1_5
REMARK    2  A    between atoms: N1_5  and  C5_7
REMARK    3  A    between atoms: C5_7  and  C6_8
REMARK    4  A    between atoms: C9_14  and  N4_15
REMARK    5  A    between atoms: N4_15  and  C10_17
REMARK    6  A    between atoms: C15_22  and  O2_23
ROOT
HETATM    1  C6  UNL     1      42.867  55.877  20.518  1.00  0.00     0.057 C
HETATM    2  C7  UNL     1      42.715  56.639  21.852  1.00  0.00     0.041 C
HETATM    3  C8  UNL     1      42.503  54.473  20.803  1.00  0.00     0.183 C
HETATM    4  N2  UNL     1      42.099  53.709  19.631  1.00  0.00    -0.261 N
HETATM    5  N3  UNL     1      42.290  52.497  19.208  1.00  0.00    -0.128 N
ATOM      6  H3  UNL     1      42.830  51.778  19.688  1.00  0.00     0.206 HD
HETATM    7  C9  UNL     1      41.652  52.345  18.023  1.00  0.00     0.699 A
HETATM    8  N5  UNL     1      41.057  53.512  17.729  1.00  0.00    -0.175 N
ATOM      9  H5  UNL     1      40.497  53.720  16.902  1.00  0.00     0.185 HD
HETATM   10  C18 UNL     1      41.340  54.343  18.727  1.00  0.00     0.142 A
HETATM   11  C19 UNL     1      40.979  55.740  18.987  1.00  0.00     0.080 C
HETATM   12  C20 UNL     1      39.650  55.814  19.743  1.00  0.00     0.046 C
HETATM   13  C21 UNL     1      40.684  56.385  17.622  1.00  0.00     0.046 C
HETATM   14  N6  UNL     1      41.962  56.545  19.607  1.00  0.00    -0.395 N
ATOM     15  H6  UNL     1      42.031  57.546  19.422  1.00  0.00     0.155 HD
ENDROOT
BRANCH   7  16
HETATM   16  N4  UNL     1      41.628  51.278  17.323  1.00  0.00    -0.190 N
ATOM     17  H4  UNL     1      41.666  50.364  17.775  1.00  0.00     0.184 HD
BRANCH  16  18
HETATM   18  C10 UNL     1      41.550  51.375  15.911  1.00  0.00     0.052 A
HETATM   19  C11 UNL     1      42.672  51.364  15.110  1.00  0.00     0.037 A
HETATM   20  C12 UNL     1      42.593  51.456  13.739  1.00  0.00    -0.057 A
HETATM   21  C13 UNL     1      43.786  51.448  12.852  1.00  0.00     0.048 C
HETATM   22  C14 UNL     1      41.344  51.563  13.174  1.00  0.00     0.043 A
HETATM   23  C15 UNL     1      40.199  51.577  13.939  1.00  0.00     0.070 A
HETATM   24  C17 UNL     1      40.306  51.482  15.310  1.00  0.00     0.066 A
BRANCH  23  25
HETATM   25  O2  UNL     1      38.935  51.685  13.384  1.00  0.00    -0.356 OA
HETATM   26  C16 UNL     1      38.197  50.605  12.884  1.00  0.00     0.210 C
ENDBRANCH  23  25
ENDBRANCH  16  18
ENDBRANCH   7  16
BRANCH   1  27
HETATM   27  C5  UNL     1      44.248  56.018  19.978  1.00  0.00     0.157 C
BRANCH  27  28
HETATM   28  N1  UNL     1      44.386  56.216  18.566  1.00  0.00    -0.351 N
HETATM   29  C3  UNL     1      44.264  57.438  17.889  1.00  0.00     0.242 C
HETATM   30  O1  UNL     1      44.082  58.550  18.447  1.00  0.00    -0.268 OA
HETATM   31  C4  UNL     1      44.646  55.025  17.770  1.00  0.00     0.153 C
BRANCH  29  32
HETATM   32  C2  UNL     1      44.350  57.460  16.436  1.00  0.00     0.064 C
HETATM   33  C1  UNL     1      45.470  57.768  15.815  1.00  0.00     0.017 C
ENDBRANCH  29  32
ENDBRANCH  27  28
ENDBRANCH   1  27
TORSDOF 6
ENDMDL