MODEL 4
REMARK VINA RESULT: -8.593522743      2.410      9.115
REMARK  8 active torsions:
REMARK  status: ('A' for Active; 'I' for Inactive)
REMARK    1  A    between atoms: C3_3  and  C5_5
REMARK       I    between atoms: C5_5  and  N1_7
REMARK    2  A    between atoms: C11_16  and  C12_17
REMARK       I    between atoms: C12_17  and  N3_19
REMARK    3  A    between atoms: N3_19  and  C13_21
REMARK    4  A    between atoms: C13_21  and  O5_26
REMARK    5  A    between atoms: N4_22  and  O4_24
REMARK    6  A    between atoms: O5_26  and  C14_27
REMARK    7  A    between atoms: C14_27  and  C15_28
REMARK    8  A    between atoms: C15_28  and  C16_29
ROOT
HETATM    1  C5  UNL     1      40.260  51.582  11.770  1.00  0.00     0.251 C
HETATM    2  O1  UNL     1      40.147  52.736  11.250  1.00  0.00    -0.268 OA
HETATM    3  N1  UNL     1      39.092  50.824  11.928  1.00  0.00    -0.320 N
ATOM      4  H1  UNL     1      38.751  50.316  11.112  1.00  0.00     0.169 HD
HETATM    5  C6  UNL     1      38.421  50.716  13.005  1.00  0.00     0.108 C
HETATM    6  C7  UNL     1      38.624  51.304  14.347  1.00  0.00     0.274 C
HETATM    7  O2  UNL     1      39.516  51.758  15.073  1.00  0.00    -0.266 OA
HETATM    8  N2  UNL     1      37.221  51.135  14.527  1.00  0.00    -0.301 N
HETATM    9  C8  UNL     1      35.974  51.481  15.145  1.00  0.00     0.029 C
HETATM   10  C9  UNL     1      35.858  52.522  15.932  1.00  0.00    -0.005 C
HETATM   11  C10 UNL     1      36.998  53.409  16.237  1.00  0.00     0.038 C
HETATM   12  C11 UNL     1      34.851  50.575  14.808  1.00  0.00     0.150 C
HETATM   13  C18 UNL     1      34.808  50.514  13.326  1.00  0.00    -0.008 C
HETATM   14  C19 UNL     1      35.959  50.263  12.718  1.00  0.00     0.002 C
HETATM   15  C20 UNL     1      37.221  50.056  13.524  1.00  0.00     0.171 C
ENDROOT
BRANCH  12  16
HETATM   16  C12 UNL     1      33.568  50.896  15.419  1.00  0.00     0.238 C
HETATM   17  O3  UNL     1      32.717  51.496  14.673  1.00  0.00    -0.272 OA
HETATM   18  N3  UNL     1      33.203  50.598  16.755  1.00  0.00    -0.290 N
ATOM     19  H3  UNL     1      33.871  50.120  17.360  1.00  0.00     0.172 HD
BRANCH  18  20
HETATM   20  C13 UNL     1      31.935  50.946  17.268  1.00  0.00     0.246 C
HETATM   21  N4  UNL     1      31.621  52.173  17.522  1.00  0.00    -0.232 N
ATOM     22  H4  UNL     1      30.700  52.405  17.892  1.00  0.00     0.198 HD
BRANCH  21  23
HETATM   23  O4  UNL     1      32.556  53.171  17.282  1.00  0.00    -0.287 OA
ATOM     24  H4  UNL     1      33.047  53.528  18.012  1.00  0.00     0.244 HD
ENDBRANCH  21  23
BRANCH  20  25
HETATM   25  O5  UNL     1      30.944  50.003  17.536  1.00  0.00    -0.321 OA
BRANCH  25  26
HETATM   26  C14 UNL     1      31.141  48.937  18.444  1.00  0.00     0.179 C
BRANCH  26  27
HETATM   27  C15 UNL     1      29.898  48.044  18.503  1.00  0.00     0.026 C
BRANCH  27  28
HETATM   28  C16 UNL     1      30.085  46.963  19.545  1.00  0.00    -0.002 C
HETATM   29  C17 UNL     1      29.114  45.834  19.274  1.00  0.00     0.005 C
ENDBRANCH  27  28
ENDBRANCH  26  27
ENDBRANCH  25  26
ENDBRANCH  20  25
ENDBRANCH  18  20
ENDBRANCH  12  16
BRANCH   1  30
HETATM   30  C3  UNL     1      41.586  51.134  12.161  1.00  0.00     0.002 C
HETATM   31  C2  UNL     1      42.359  51.956  12.838  1.00  0.00    -0.019 C
HETATM   32  C1  UNL     1      43.710  51.529  13.248  1.00  0.00     0.036 C
HETATM   33  C4  UNL     1      42.086  49.782  11.819  1.00  0.00     0.054 C
ENDBRANCH   1  30
TORSDOF 8
ENDMDL