MODEL 2
REMARK VINA RESULT: -8.315333192      1.914      7.633
REMARK  9 active torsions:
REMARK  status: ('A' for Active; 'I' for Inactive)
REMARK    1  A    between atoms: C4_8  and  C5_9
REMARK    2  A    between atoms: C5_9  and  O1_10
REMARK    3  A    between atoms: C5_9  and  N3_12
REMARK    4  A    between atoms: C10_17  and  O2_18
REMARK    5  A    between atoms: O2_18  and  C11_19
REMARK    6  A    between atoms: C11_19  and  C12_20
REMARK    7  A    between atoms: C12_20  and  C13_21
REMARK    8  A    between atoms: C13_21  and  O4_23
REMARK    9  A    between atoms: O4_23  and  C14_24
ROOT
HETATM    1  N3  UNL     1      46.207  56.665  16.974  1.00  0.00    -0.348 N
HETATM    2  C6  UNL     1      45.573  57.169  18.153  1.00  0.00     0.089 C
HETATM    3  C7  UNL     1      46.253  56.343  19.238  1.00  0.00     0.027 C
HETATM    4  C8  UNL     1      46.678  55.066  18.539  1.00  0.00     0.030 C
HETATM    5  C9  UNL     1      45.965  55.207  17.229  1.00  0.00     0.116 C
HETATM    6  C10 UNL     1      44.500  55.205  17.467  1.00  0.00     0.146 C
HETATM    7  C21 UNL     1      44.152  56.600  17.949  1.00  0.00     0.059 C
ENDROOT
BRANCH   6   8
HETATM    8  O2  UNL     1      43.733  54.864  16.389  1.00  0.00    -0.383 OA
BRANCH   8   9
HETATM    9  C11 UNL     1      42.383  54.894  16.601  1.00  0.00     0.178 C
BRANCH   9  10
HETATM   10  C12 UNL     1      41.810  53.702  17.291  1.00  0.00     0.137 C
BRANCH  10  11
HETATM   11  C13 UNL     1      40.384  53.552  16.870  1.00  0.00     0.261 C
HETATM   12  O3  UNL     1      39.447  53.919  17.612  1.00  0.00    -0.265 OA
BRANCH  11  13
HETATM   13  O4  UNL     1      40.035  53.002  15.644  1.00  0.00    -0.314 OA
BRANCH  13  14
HETATM   14  C14 UNL     1      40.755  52.021  14.995  1.00  0.00     0.164 C
HETATM   15  C15 UNL     1      40.883  52.219  13.502  1.00  0.00     0.072 C
HETATM   16  C16 UNL     1      41.330  50.837  13.071  1.00  0.00     0.121 C
HETATM   17  C17 UNL     1      40.774  50.448  11.728  1.00  0.00     0.046 C
HETATM   18  C18 UNL     1      42.851  50.897  12.953  1.00  0.00     0.046 C
HETATM   19  N4  UNL     1      40.889  49.906  14.061  1.00  0.00    -0.061 N
HETATM   20  C19 UNL     1      40.175  50.638  15.083  1.00  0.00     0.212 C
ATOM     21  H42 UNL     1      40.339  49.143  13.667  1.00  0.00     0.278 HD
ATOM     22  H41 UNL     1      41.651  49.344  14.441  1.00  0.00     0.278 HD
HETATM   23  C20 UNL     1      40.425  49.964  16.400  1.00  0.00     0.043 C
ENDBRANCH  13  14
ENDBRANCH  11  13
ENDBRANCH  10  11
ENDBRANCH   9  10
ENDBRANCH   8   9
ENDBRANCH   6   8
BRANCH   1  24
HETATM   24  C5  UNL     1      46.868  57.194  15.867  1.00  0.00     0.168 C
BRANCH  24  25
HETATM   25  C4  UNL     1      48.105  56.820  15.247  1.00  0.00     0.106 A
HETATM   26  C2  UNL     1      49.307  56.730  15.942  1.00  0.00     0.037 A
HETATM   27  C1  UNL     1      49.548  56.982  17.368  1.00  0.00     0.070 C
HETATM   28  N1  UNL     1      50.243  56.362  15.069  1.00  0.00    -0.354 N
HETATM   29  C3  UNL     1      49.682  56.221  13.870  1.00  0.00     0.181 A
ATOM     30  H1  UNL     1      51.230  56.214  15.283  1.00  0.00     0.166 HD
HETATM   31  N2  UNL     1      48.350  56.505  13.978  1.00  0.00    -0.347 N
ATOM     32  H2  UNL     1      47.667  56.480  13.222  1.00  0.00     0.167 HD
ENDBRANCH  24  25
BRANCH  24  33
HETATM   33  O1  UNL     1      46.233  58.196  15.322  1.00  0.00    -0.344 OA
ATOM     34  H1  UNL     1      45.364  58.373  15.660  1.00  0.00     0.219 HD
ENDBRANCH  24  33
ENDBRANCH   1  24
TORSDOF 9
ENDMDL