MODEL 2
REMARK VINA RESULT: -6.669794388      1.357      1.414
REMARK  6 active torsions:
REMARK  status: ('A' for Active; 'I' for Inactive)
REMARK    1  A    between atoms: C2_2  and  C4_4
REMARK    2  A    between atoms: C4_4  and  C5_5
REMARK    3  A    between atoms: C5_5  and  C6_6
REMARK    4  A    between atoms: C6_6  and  O1_7
REMARK    5  A    between atoms: C12_14  and  O2_16
REMARK    6  A    between atoms: C17_24  and  O5_26
ROOT
HETATM    1  C6  UNL     1       2.064   3.030  27.221  1.00  0.00     0.089 C
HETATM    2  C7  UNL     1       2.206   4.505  27.303  1.00  0.00     0.056 C
HETATM    3  C8  UNL     1       1.510   5.141  28.451  1.00  0.00     0.019 C
HETATM    4  C9  UNL     1       0.013   5.210  28.178  1.00  0.00     0.021 C
HETATM    5  C10 UNL     1       1.741   4.449  29.773  1.00  0.00     0.016 C
HETATM    6  C11 UNL     1       1.327   3.011  29.630  1.00  0.00     0.046 C
HETATM    7  C12 UNL     1       2.012   2.302  28.514  1.00  0.00     0.085 C
HETATM    8  C13 UNL     1       1.256   0.986  28.283  1.00  0.00     0.049 C
HETATM    9  C14 UNL     1       0.913   5.143  30.792  1.00  0.00     0.113 C
HETATM   10  C15 UNL     1       1.549   5.424  32.119  1.00  0.00     0.187 C
HETATM   11  O3  UNL     1       1.692   6.754  31.731  1.00  0.00    -0.328 OA
HETATM   12  C16 UNL     1       0.803   6.602  30.670  1.00  0.00     0.328 C
HETATM   13  F1  UNL     1      -0.460   7.034  31.110  1.00  0.00    -0.180 F
HETATM   14  O4  UNL     1       1.113   7.186  29.501  1.00  0.00    -0.292 OA
HETATM   15  C17 UNL     1       1.982   6.566  28.662  1.00  0.00     0.172 C
HETATM   16  C18 UNL     1       3.417   6.645  29.067  1.00  0.00     0.080 C
ENDROOT
BRANCH   1  17
HETATM   17  C5  UNL     1       3.233   2.492  26.393  1.00  0.00     0.041 C
BRANCH  17  18
HETATM   18  C4  UNL     1       2.664   1.907  25.147  1.00  0.00     0.007 C
BRANCH  18  19
HETATM   19  C2  UNL     1       3.101   0.482  24.902  1.00  0.00    -0.023 C
HETATM   20  C1  UNL     1       4.086  -0.004  25.915  1.00  0.00     0.009 C
HETATM   21  C3  UNL     1       1.862  -0.382  24.867  1.00  0.00     0.009 C
ENDBRANCH  18  19
ENDBRANCH  17  18
ENDBRANCH   1  17
BRANCH   1  22
HETATM   22  O1  UNL     1       0.910   2.697  26.490  1.00  0.00    -0.387 OA
ATOM     23  H1  UNL     1       0.751   3.442  25.923  1.00  0.00     0.210 HD
ENDBRANCH   1  22
BRANCH   7  24
HETATM   24  O2  UNL     1       3.288   1.935  28.939  1.00  0.00    -0.387 OA
ATOM     25  H2  UNL     1       3.247   1.364  29.697  1.00  0.00     0.210 HD
ENDBRANCH   7  24
BRANCH  15  26
HETATM   26  O5  UNL     1       1.866   7.191  27.397  1.00  0.00    -0.365 OA
ATOM     27  H5  UNL     1       0.934   7.311  27.260  1.00  0.00     0.213 HD
ENDBRANCH  15  26
TORSDOF 6
ENDMDL