MODEL 4
REMARK VINA RESULT: -5.920779875      2.123      4.942
REMARK  5 active torsions:
REMARK  status: ('A' for Active; 'I' for Inactive)
REMARK    1  A    between atoms: C2_2  and  N1_5
REMARK    2  A    between atoms: C5_8  and  O1_9
REMARK    3  A    between atoms: O1_9  and  C6_10
REMARK    4  A    between atoms: C6_10  and  C7_11
REMARK    5  A    between atoms: C7_11  and  C8_12
ROOT
HETATM    1  C8  UNL     1       6.872   2.078  28.617  1.00  0.00     0.126 C
HETATM    2  C9  UNL     1       7.929   2.521  29.495  1.00  0.00     0.059 C
HETATM    3  N3  UNL     1       8.770   2.874  30.216  1.00  0.00    -0.197 NA
ENDROOT
BRANCH   1   4
HETATM    4  C7  UNL     1       5.569   2.813  28.955  1.00  0.00     0.041 C
BRANCH   4   5
HETATM    5  C6  UNL     1       4.677   1.915  29.780  1.00  0.00     0.178 C
BRANCH   5   6
HETATM    6  O1  UNL     1       3.314   2.199  29.638  1.00  0.00    -0.334 OA
BRANCH   6   7
HETATM    7  C5  UNL     1       2.688   2.002  28.430  1.00  0.00     0.168 A
HETATM    8  N2  UNL     1       2.676   0.955  27.588  1.00  0.00    -0.276 N
HETATM    9  N1  UNL     1       1.935   1.192  26.523  1.00  0.00    -0.283 N
ATOM     10  H2  UNL     1       3.179   0.083  27.752  1.00  0.00     0.189 HD
HETATM   11  C11 UNL     1       1.438   2.461  26.682  1.00  0.00     0.068 A
HETATM   12  C10 UNL     1       1.881   3.002  27.857  1.00  0.00     0.050 A
HETATM   13  C12 UNL     1       0.536   3.184  25.724  1.00  0.00     0.291 C
HETATM   14  C14 UNL     1       1.528   4.362  28.326  1.00  0.00     0.091 C
HETATM   15  C13 UNL     1       0.445   4.881  27.410  1.00  0.00     0.268 C
HETATM   16  C15 UNL     1       0.991   4.373  29.723  1.00  0.00     0.075 C
HETATM   17  N6  UNL     1       2.685   5.202  28.133  1.00  0.00    -0.365 N
HETATM   18  N4  UNL     1       0.697   4.600  26.023  1.00  0.00    -0.067 N
ATOM     19  H42 UNL     1       1.615   4.939  25.735  1.00  0.00     0.277 HD
ATOM     20  H41 UNL     1       0.117   5.178  25.414  1.00  0.00     0.277 HD
HETATM   21  C16 UNL     1       1.433   5.493  30.582  1.00  0.00     0.179 C
HETATM   22  F1  UNL     1       0.739   6.677  30.327  1.00  0.00    -0.249 F
HETATM   23  C17 UNL     1       2.911   5.766  30.532  1.00  0.00     0.113 C
HETATM   24  C18 UNL     1       3.243   6.061  29.112  1.00  0.00     0.074 C
HETATM   25  N5  UNL     1       4.008   7.059  28.805  1.00  0.00    -0.389 N
ATOM     26  H52 UNL     1       4.409   7.678  29.510  1.00  0.00     0.157 HD
ATOM     27  H51 UNL     1       4.236   7.261  27.832  1.00  0.00     0.157 HD
ATOM     28  H6  UNL     1       3.138   5.174  27.219  1.00  0.00     0.162 HD
BRANCH   9  29
HETATM   29  C2  UNL     1       1.677   0.304  25.390  1.00  0.00     0.043 C
HETATM   30  C1  UNL     1       2.798  -0.715  25.358  1.00  0.00     0.039 C
HETATM   31  C3  UNL     1       1.620   1.026  24.090  1.00  0.00     0.039 C
HETATM   32  C4  UNL     1       0.377  -0.477  25.626  1.00  0.00     0.039 C
ENDBRANCH   9  29
ENDBRANCH   6   7
ENDBRANCH   5   6
ENDBRANCH   4   5
ENDBRANCH   1   4
TORSDOF 5
ENDMDL