MODEL 2
REMARK VINA RESULT: -7.154292183      2.701      6.601
REMARK  6 active torsions:
REMARK  status: ('A' for Active; 'I' for Inactive)
REMARK    1  A    between atoms: C2_5  and  N2_6
REMARK    2  A    between atoms: N2_6  and  C3_8
REMARK    3  A    between atoms: C8_16  and  N4_17
REMARK    4  A    between atoms: C13_22  and  N5_23
REMARK    5  A    between atoms: N5_23  and  N6_25
REMARK    6  A    between atoms: N6_25  and  C14_27
ROOT
HETATM    1  O1  UNL     1       3.721   6.109  28.482  1.00  0.00    -0.265 OA
HETATM    2  C1  UNL     1       2.635   5.486  28.491  1.00  0.00     0.291 A
HETATM    3  N1  UNL     1       1.745   5.716  29.466  1.00  0.00    -0.154 N
ATOM      4  H1  UNL     1       1.978   6.401  30.185  1.00  0.00     0.187 HD
HETATM    5  C2  UNL     1       0.559   5.086  29.541  1.00  0.00     0.683 A
HETATM    6  N3  UNL     1       0.263   4.170  28.566  1.00  0.00    -0.174 N
ATOM      7  H3  UNL     1      -0.633   3.685  28.611  1.00  0.00     0.186 HD
HETATM    8  C8  UNL     1       1.097   3.882  27.558  1.00  0.00     0.153 A
HETATM    9  C13 UNL     1       2.302   4.548  27.515  1.00  0.00     0.161 A
ENDROOT
BRANCH   9  10
HETATM   10  N5  UNL     1       3.216   4.281  26.474  1.00  0.00    -0.292 N
ATOM     11  H5  UNL     1       2.881   4.283  25.510  1.00  0.00     0.187 HD
BRANCH  10  12
HETATM   12  N6  UNL     1       4.461   4.036  26.703  1.00  0.00    -0.297 N
ATOM     13  H6  UNL     1       5.177   4.710  26.429  1.00  0.00     0.187 HD
BRANCH  12  14
HETATM   14  C14 UNL     1       4.825   2.824  27.339  1.00  0.00     0.081 A
HETATM   15  C15 UNL     1       5.175   2.606  28.661  1.00  0.00     0.139 A
HETATM   16  N7  UNL     1       5.434   1.278  28.763  1.00  0.00    -0.310 N
HETATM   17  N8  UNL     1       5.254   0.710  27.575  1.00  0.00    -0.310 N
ATOM     18  H7  UNL     1       5.720   0.795  29.614  1.00  0.00     0.186 HD
HETATM   19  C16 UNL     1       4.881   1.616  26.676  1.00  0.00     0.139 A
ATOM     20  H8  UNL     1       5.384  -0.283  27.380  1.00  0.00     0.186 HD
ENDBRANCH  12  14
ENDBRANCH  10  12
ENDBRANCH   9  10
BRANCH   8  21
HETATM   21  N4  UNL     1       0.819   2.939  26.535  1.00  0.00    -0.365 N
HETATM   22  C9  UNL     1       0.446   3.125  25.160  1.00  0.00     0.124 C
HETATM   23  C10 UNL     1       1.378   2.143  24.455  1.00  0.00     0.021 C
HETATM   24  C11 UNL     1       1.652   1.065  25.500  1.00  0.00     0.021 C
HETATM   25  C12 UNL     1       0.871   1.491  26.733  1.00  0.00     0.124 C
ENDBRANCH   8  21
BRANCH   5  26
HETATM   26  N2  UNL     1      -0.291   5.315  30.485  1.00  0.00    -0.218 N
ATOM     27  H2  UNL     1      -0.017   5.167  31.457  1.00  0.00     0.178 HD
BRANCH  26  28
HETATM   28  C3  UNL     1      -1.603   5.770  30.187  1.00  0.00     0.133 C
HETATM   29  C4  UNL     1      -2.595   5.563  31.318  1.00  0.00     0.029 C
HETATM   30  C5  UNL     1      -3.785   6.363  30.802  1.00  0.00     0.005 C
HETATM   31  C6  UNL     1      -3.188   7.471  29.941  1.00  0.00     0.039 C
HETATM   32  C7  UNL     1      -1.668   7.301  30.076  1.00  0.00     0.193 C
HETATM   33  F1  UNL     1      -1.000   7.761  28.984  1.00  0.00    -0.247 F
ENDBRANCH  26  28
ENDBRANCH   5  26
TORSDOF 6
ENDMDL