MODEL 3
REMARK VINA RESULT: -7.179696935      3.356      7.389
REMARK  4 active torsions:
REMARK  status: ('A' for Active; 'I' for Inactive)
REMARK    1  A    between atoms: C4_9  and  C5_10
REMARK    2  A    between atoms: C5_10  and  S1_11
REMARK    3  A    between atoms: S1_11  and  C6_12
REMARK    4  A    between atoms: C7_17  and  C8_18
ROOT
HETATM    1  C6  UNL     1       0.777   3.571  26.411  1.00  0.00     0.160 A
HETATM    2  N3  UNL     1       0.413   4.700  25.813  1.00  0.00    -0.278 N
ATOM      3  H3  UNL     1       0.468   4.858  24.808  1.00  0.00     0.189 HD
HETATM    4  N4  UNL     1      -0.022   5.584  26.672  1.00  0.00    -0.286 N
ATOM      5  H4  UNL     1      -0.355   6.521  26.445  1.00  0.00     0.188 HD
HETATM    6  C7  UNL     1       0.044   5.043  27.916  1.00  0.00     0.106 A
HETATM    7  N5  UNL     1       0.535   3.808  27.749  1.00  0.00    -0.324 N
ATOM      8  H5  UNL     1       0.705   3.140  28.501  1.00  0.00     0.169 HD
ENDROOT
BRANCH   1   9
HETATM    9  S1  UNL     1       1.441   2.029  25.799  1.00  0.00    -0.088 SA
BRANCH   9  10
HETATM   10  C5  UNL     1       3.172   2.103  25.434  1.00  0.00     0.129 C
BRANCH  10  11
HETATM   11  C4  UNL     1       4.089   2.123  26.582  1.00  0.00     0.051 A
HETATM   12  C3  UNL     1       4.547   3.376  27.031  1.00  0.00     0.111 A
HETATM   13  N1  UNL     1       5.427   3.448  28.052  1.00  0.00    -0.332 N
HETATM   14  N2  UNL     1       4.106   4.434  26.452  1.00  0.00    -0.385 N
HETATM   15  C2  UNL     1       5.920   2.379  28.693  1.00  0.00     0.080 A
ATOM     16  H1  UNL     1       5.736   4.372  28.353  1.00  0.00     0.168 HD
HETATM   17  C1  UNL     1       6.892   2.496  29.821  1.00  0.00     0.089 C
HETATM   18  N6  UNL     1       5.498   1.181  28.275  1.00  0.00    -0.322 N
HETATM   19  C15 UNL     1       4.606   1.044  27.247  1.00  0.00     0.200 A
ATOM     20  H6  UNL     1       5.851   0.344  28.738  1.00  0.00     0.169 HD
HETATM   21  F1  UNL     1       4.279  -0.197  26.829  1.00  0.00    -0.185 F
ATOM     22  H22 UNL     1       4.438   5.342  26.778  1.00  0.00     0.157 HD
ATOM     23  H21 UNL     1       3.440   4.379  25.681  1.00  0.00     0.157 HD
ENDBRANCH  10  11
ENDBRANCH   9  10
ENDBRANCH   1   9
BRANCH   6  24
HETATM   24  C8  UNL     1      -0.333   5.670  29.182  1.00  0.00     0.024 C
HETATM   25  C9  UNL     1      -0.872   7.054  29.041  1.00  0.00     0.043 C
HETATM   26  C10 UNL     1      -2.010   7.419  29.895  1.00  0.00     0.169 C
HETATM   27  O1  UNL     1      -2.289   6.635  30.967  1.00  0.00    -0.386 OA
HETATM   28  C11 UNL     1      -1.394   5.625  31.240  1.00  0.00     0.122 C
HETATM   29  C12 UNL     1       0.007   6.164  31.436  1.00  0.00     0.033 C
HETATM   30  C14 UNL     1      -1.303   4.775  29.975  1.00  0.00     0.049 C
HETATM   31  C13 UNL     1       0.796   5.726  30.199  1.00  0.00     0.020 C
ENDBRANCH   6  24
TORSDOF 4
ENDMDL