MODEL 2
REMARK VINA RESULT: -6.832868116      0.108      1.555
REMARK  6 active torsions:
REMARK  status: ('A' for Active; 'I' for Inactive)
REMARK    1  A    between atoms: N1_1  and  N2_4
REMARK    2  A    between atoms: N2_4  and  C1_6
REMARK    3  A    between atoms: C2_11  and  S1_12
REMARK    4  A    between atoms: S1_12  and  C3_13
REMARK    5  A    between atoms: C3_13  and  C4_14
REMARK       I    between atoms: C4_14  and  N5_16
REMARK    6  A    between atoms: N5_16  and  C5_18
ROOT
HETATM    1  C3  UNL     1       3.412   5.973  28.670  1.00  0.00     0.184 C
ENDROOT
BRANCH   1   2
HETATM    2  S1  UNL     1       2.534   6.207  30.217  1.00  0.00    -0.094 SA
BRANCH   2   3
HETATM    3  C2  UNL     1       0.824   6.619  29.803  1.00  0.00     0.130 A
HETATM    4  N4  UNL     1       0.336   7.052  28.651  1.00  0.00    -0.286 N
HETATM    5  N3  UNL     1      -0.902   7.297  28.530  1.00  0.00    -0.277 N
ATOM      6  H4  UNL     1       0.960   7.190  27.856  1.00  0.00     0.188 HD
HETATM    7  C1  UNL     1      -1.700   7.107  29.586  1.00  0.00     0.180 A
ATOM      8  H3  UNL     1      -1.282   7.632  27.644  1.00  0.00     0.189 HD
HETATM    9  S2  UNL     1      -0.588   6.561  30.765  1.00  0.00    -0.025 SA
BRANCH   7  10
HETATM   10  N2  UNL     1      -2.997   7.299  29.673  1.00  0.00    -0.285 N
ATOM     11  H2  UNL     1      -3.409   8.209  29.470  1.00  0.00     0.188 HD
BRANCH  10  12
HETATM   12  N1  UNL     1      -3.785   6.226  30.050  1.00  0.00    -0.343 N
ATOM     13  H12 UNL     1      -3.740   5.868  31.004  1.00  0.00     0.176 HD
ATOM     14  H11 UNL     1      -4.402   5.818  29.348  1.00  0.00     0.176 HD
ENDBRANCH  10  12
ENDBRANCH   7  10
ENDBRANCH   2   3
ENDBRANCH   1   2
BRANCH   1  15
HETATM   15  C4  UNL     1       3.111   4.655  28.045  1.00  0.00     0.228 C
HETATM   16  O1  UNL     1       3.777   3.673  28.455  1.00  0.00    -0.273 OA
HETATM   17  N5  UNL     1       2.111   4.565  27.036  1.00  0.00    -0.351 N
ATOM     18  H5  UNL     1       1.618   5.414  26.760  1.00  0.00     0.163 HD
BRANCH  17  19
HETATM   19  C5  UNL     1       1.767   3.330  26.391  1.00  0.00     0.034 C
HETATM   20  C6  UNL     1       1.321   2.317  27.433  1.00  0.00     0.035 C
HETATM   21  C7  UNL     1       1.019   0.974  26.859  1.00  0.00    -0.012 C
HETATM   22  C8  UNL     1      -0.115   1.135  25.870  1.00  0.00     0.009 C
HETATM   23  C12 UNL     1       2.248   0.463  26.158  1.00  0.00     0.009 C
HETATM   24  C9  UNL     1       0.333   2.123  24.827  1.00  0.00    -0.012 C
HETATM   25  C10 UNL     1       1.539   1.632  24.069  1.00  0.00     0.009 C
HETATM   26  C14 UNL     1       0.623   3.475  25.414  1.00  0.00     0.035 C
HETATM   27  C11 UNL     1       2.645   1.409  25.059  1.00  0.00    -0.012 C
HETATM   28  C13 UNL     1       2.978   2.737  25.707  1.00  0.00     0.035 C
ENDBRANCH  17  19
ENDBRANCH   1  15
TORSDOF 6
ENDMDL