MODEL 1
REMARK VINA RESULT: -6.577221648      0.000      0.000
REMARK  5 active torsions:
REMARK  status: ('A' for Active; 'I' for Inactive)
REMARK       I    between atoms: C1_2  and  N1_3
REMARK    1  A    between atoms: C1_2  and  C12_20
REMARK    2  A    between atoms: N1_3  and  C2_5
REMARK    3  A    between atoms: C2_5  and  C3_6
REMARK    4  A    between atoms: C6_9  and  N2_10
REMARK    5  A    between atoms: N2_10  and  C7_12
ROOT
HETATM    1  C3  UNL     1       2.940   2.690  26.306  1.00  0.00     0.003 C
HETATM    2  C4  UNL     1       2.126   2.687  25.035  1.00  0.00     0.008 C
HETATM    3  C5  UNL     1       0.664   2.925  25.289  1.00  0.00     0.025 C
HETATM    4  C6  UNL     1       0.396   3.682  26.564  1.00  0.00     0.083 C
HETATM    5  C10 UNL     1       1.055   3.069  27.768  1.00  0.00     0.025 C
HETATM    6  C11 UNL     1       2.059   2.010  27.362  1.00  0.00     0.008 C
ENDROOT
BRANCH   1   7
HETATM    7  C2  UNL     1       4.242   1.959  26.166  1.00  0.00     0.127 C
BRANCH   7   8
HETATM    8  N1  UNL     1       5.198   2.378  27.138  1.00  0.00    -0.355 N
HETATM    9  C1  UNL     1       5.791   1.419  27.995  1.00  0.00     0.279 C
HETATM   10  O1  UNL     1       5.491   0.186  27.920  1.00  0.00    -0.265 OA
ATOM     11  H1  UNL     1       5.454   3.363  27.216  1.00  0.00     0.162 HD
BRANCH   9  12
HETATM   12  C12 UNL     1       6.765   1.862  28.982  1.00  0.00     0.194 A
HETATM   13  O2  UNL     1       8.045   1.670  28.964  1.00  0.00    -0.246 OA
HETATM   14  C13 UNL     1       8.547   2.226  30.029  1.00  0.00     0.418 A
HETATM   15  O3  UNL     1       9.766   2.247  30.357  1.00  0.00    -0.229 OA
HETATM   16  O4  UNL     1       7.613   2.777  30.736  1.00  0.00    -0.240 OA
HETATM   17  C14 UNL     1       6.487   2.581  30.134  1.00  0.00     0.190 A
HETATM   18 CL1  UNL     1       4.879   3.081  30.593  1.00  0.00    -0.053 Cl
ENDBRANCH   9  12
ENDBRANCH   7   8
ENDBRANCH   1   7
BRANCH   4  19
HETATM   19  N2  UNL     1       0.738   5.081  26.453  1.00  0.00    -0.366 N
ATOM     20  H2  UNL     1       1.149   5.459  25.599  1.00  0.00     0.162 HD
BRANCH  19  21
HETATM   21  C7  UNL     1       0.500   5.849  27.494  1.00  0.00     0.144 A
HETATM   22  N3  UNL     1      -0.669   6.316  27.940  1.00  0.00    -0.346 N
HETATM   23  C8  UNL     1      -0.677   7.069  29.001  1.00  0.00     0.097 A
ATOM     24  H3  UNL     1      -1.538   6.088  27.457  1.00  0.00     0.167 HD
HETATM   25  C9  UNL     1       0.517   7.344  29.608  1.00  0.00     0.070 A
HETATM   26  S1  UNL     1       1.620   6.500  28.617  1.00  0.00    -0.065 SA
ENDBRANCH  19  21
ENDBRANCH   4  19
TORSDOF 5
ENDMDL