MODEL 4
REMARK VINA RESULT: -5.901921967      2.806      6.838
REMARK  5 active torsions:
REMARK  status: ('A' for Active; 'I' for Inactive)
REMARK    1  A    between atoms: C5_8  and  N3_9
REMARK    2  A    between atoms: N3_9  and  C6_11
REMARK    3  A    between atoms: C6_11  and  C7_12
REMARK    4  A    between atoms: C7_12  and  N4_13
REMARK    5  A    between atoms: N4_13  and  C8_15
ROOT
HETATM    1  C1  UNL     1       8.127   2.634  29.581  1.00  0.00     0.072 C
HETATM    2  C2  UNL     1       6.855   2.274  28.940  1.00  0.00     0.051 A
HETATM    3  N1  UNL     1       6.661   1.580  27.821  1.00  0.00    -0.301 N
ATOM      4  H1  UNL     1       7.409   1.194  27.246  1.00  0.00     0.187 HD
HETATM    5  N2  UNL     1       5.362   1.456  27.552  1.00  0.00    -0.291 N
HETATM    6  C3  UNL     1       4.771   0.756  26.417  1.00  0.00     0.178 C
HETATM    7  C4  UNL     1       4.679   2.087  28.519  1.00  0.00     0.123 A
HETATM    8  C5  UNL     1       3.310   2.276  28.751  1.00  0.00     0.138 A
HETATM    9  N5  UNL     1       2.996   2.970  29.847  1.00  0.00    -0.317 N
ATOM     10  H5  UNL     1       2.004   3.119  30.036  1.00  0.00     0.170 HD
HETATM   11  C16 UNL     1       3.867   3.486  30.719  1.00  0.00     0.181 A
HETATM   12 CL1  UNL     1       3.315   4.392  32.143  1.00  0.00    -0.045 Cl
HETATM   13  N6  UNL     1       5.179   3.307  30.499  1.00  0.00    -0.329 N
ATOM     14  H6  UNL     1       5.864   3.692  31.148  1.00  0.00     0.168 HD
HETATM   15  C17 UNL     1       5.588   2.615  29.413  1.00  0.00     0.090 A
ENDROOT
BRANCH   8  16
HETATM   16  N3  UNL     1       2.516   1.787  27.919  1.00  0.00    -0.351 N
ATOM     17  H3  UNL     1       2.862   0.914  27.521  1.00  0.00     0.166 HD
BRANCH  16  18
HETATM   18  C6  UNL     1       1.266   2.147  27.400  1.00  0.00     0.093 C
BRANCH  18  19
HETATM   19  C7  UNL     1       1.200   3.272  26.406  1.00  0.00     0.058 A
HETATM   20  C14 UNL     1       0.638   2.934  24.987  1.00  0.00     0.039 A
HETATM   21  C15 UNL     1       2.094   2.999  25.203  1.00  0.00     0.039 A
BRANCH  19  22
HETATM   22  N4  UNL     1       1.112   4.640  26.733  1.00  0.00    -0.404 N
ATOM     23  H4  UNL     1       1.177   5.328  25.982  1.00  0.00     0.154 HD
BRANCH  22  24
HETATM   24  C8  UNL     1       0.938   5.098  28.059  1.00  0.00     0.077 C
HETATM   25  C9  UNL     1      -0.367   4.740  28.620  1.00  0.00     0.024 C
HETATM   26  C10 UNL     1      -0.880   5.605  29.755  1.00  0.00     0.002 C
HETATM   27  C11 UNL     1      -0.818   7.037  29.281  1.00  0.00     0.000 C
HETATM   28  C12 UNL     1       0.660   7.343  29.164  1.00  0.00     0.002 C
HETATM   29  C13 UNL     1       1.316   6.558  28.073  1.00  0.00     0.024 C
ENDBRANCH  22  24
ENDBRANCH  19  22
ENDBRANCH  18  19
ENDBRANCH  16  18
ENDBRANCH   8  16
TORSDOF 5
ENDMDL