MODEL 1
REMARK VINA RESULT: -6.181079474      0.000      0.000
REMARK  6 active torsions:
REMARK  status: ('A' for Active; 'I' for Inactive)
REMARK    1  A    between atoms: C6_11  and  N3_12
REMARK    2  A    between atoms: N4_15  and  C7_16
REMARK    3  A    between atoms: C8_18  and  C9_19
REMARK    4  A    between atoms: C9_19  and  S1_20
REMARK    5  A    between atoms: S1_20  and  C10_21
REMARK    6  A    between atoms: C13_24  and  O2_25
ROOT
HETATM    1  C1  UNL     1       0.081   5.268  26.608  1.00  0.00     0.044 C
HETATM    2  C2  UNL     1       0.972   4.338  26.959  1.00  0.00     0.047 A
HETATM    3  C3  UNL     1       1.635   3.263  26.230  1.00  0.00     0.078 A
HETATM    4  C4  UNL     1       2.331   2.864  27.353  1.00  0.00     0.128 A
HETATM    5  N1  UNL     1       3.176   1.821  27.267  1.00  0.00    -0.318 N
ATOM      6  H1  UNL     1       3.686   1.535  28.104  1.00  0.00     0.170 HD
HETATM    7  C5  UNL     1       3.380   1.137  26.126  1.00  0.00     0.182 A
HETATM    8 CL1  UNL     1       4.489  -0.221  26.044  1.00  0.00    -0.045 Cl
HETATM    9  N2  UNL     1       2.720   1.495  25.015  1.00  0.00    -0.318 N
ATOM     10  H2  UNL     1       2.862   0.987  24.142  1.00  0.00     0.170 HD
HETATM   11  C6  UNL     1       1.864   2.541  25.070  1.00  0.00     0.117 A
HETATM   12  N4  UNL     1       1.687   3.919  28.090  1.00  0.00    -0.304 N
ENDROOT
BRANCH  12  13
HETATM   13  C7  UNL     1       1.776   4.340  29.449  1.00  0.00     0.236 C
HETATM   14  O1  UNL     1       0.601   4.991  29.878  1.00  0.00    -0.357 OA
HETATM   15  C8  UNL     1       0.999   5.320  31.188  1.00  0.00     0.162 C
HETATM   16  C13 UNL     1       2.252   6.076  30.953  1.00  0.00     0.155 C
HETATM   17  C14 UNL     1       2.856   5.315  29.762  1.00  0.00     0.062 C
HETATM   18  C15 UNL     1       3.226   6.225  28.643  1.00  0.00     0.017 C
BRANCH  15  19
HETATM   19  C9  UNL     1      -0.061   6.048  31.941  1.00  0.00     0.109 C
BRANCH  19  20
HETATM   20  S1  UNL     1      -1.729   5.567  31.524  1.00  0.00    -0.162 SA
BRANCH  20  21
HETATM   21  C10 UNL     1      -2.349   6.579  30.177  1.00  0.00     0.039 C
HETATM   22  C11 UNL     1      -3.759   7.066  30.414  1.00  0.00     0.021 C
HETATM   23  C12 UNL     1      -1.486   7.795  29.916  1.00  0.00     0.021 C
ENDBRANCH  20  21
ENDBRANCH  19  20
ENDBRANCH  15  19
BRANCH  16  24
HETATM   24  O2  UNL     1       2.088   7.378  30.573  1.00  0.00    -0.392 OA
ATOM     25  H2  UNL     1       2.827   7.766  30.119  1.00  0.00     0.210 HD
ENDBRANCH  16  24
ENDBRANCH  12  13
BRANCH  11  26
HETATM   26  N3  UNL     1       1.262   2.835  23.966  1.00  0.00    -0.385 N
ATOM     27  H32 UNL     1       0.283   2.558  23.906  1.00  0.00     0.157 HD
ATOM     28  H31 UNL     1       1.749   3.315  23.209  1.00  0.00     0.157 HD
ENDBRANCH  11  26
TORSDOF 6
ENDMDL