MODEL 2
REMARK VINA RESULT: -6.274158953      2.249      2.910
REMARK  6 active torsions:
REMARK  status: ('A' for Active; 'I' for Inactive)
REMARK    1  A    between atoms: C2_2  and  C3_3
REMARK    2  A    between atoms: C3_3  and  C4_4
REMARK    3  A    between atoms: C4_4  and  O1_5
REMARK    4  A    between atoms: N1_10  and  C8_11
REMARK    5  A    between atoms: C9_14  and  N3_15
REMARK    6  A    between atoms: C11_19  and  N4_20
ROOT
HETATM    1  C8  UNL     1       0.748   4.077  27.473  1.00  0.00     0.683 A
HETATM    2  N2  UNL     1       1.285   5.284  27.170  1.00  0.00    -0.177 N
ATOM      3  H2  UNL     1       1.953   5.346  26.402  1.00  0.00     0.185 HD
HETATM    4  C9  UNL     1       0.969   6.401  27.846  1.00  0.00     0.118 A
HETATM    5  C10 UNL     1       0.070   6.326  28.882  1.00  0.00     0.097 A
HETATM    6  C11 UNL     1      -0.490   5.088  29.205  1.00  0.00     0.122 A
HETATM    7  N5  UNL     1      -0.120   4.025  28.480  1.00  0.00    -0.177 N
ATOM      8  H5  UNL     1      -0.529   3.121  28.714  1.00  0.00     0.186 HD
ENDROOT
BRANCH   1   9
HETATM    9  N1  UNL     1       1.164   2.926  26.700  1.00  0.00    -0.217 N
HETATM   10  C7  UNL     1       0.280   1.823  26.856  1.00  0.00     0.141 C
HETATM   11  C6  UNL     1       0.154   0.913  25.676  1.00  0.00     0.023 C
HETATM   12  C5  UNL     1       1.404   0.637  24.923  1.00  0.00     0.039 C
HETATM   13  C4  UNL     1       2.655   0.676  25.699  1.00  0.00     0.059 C
HETATM   14  C17 UNL     1       3.253   2.042  25.676  1.00  0.00     0.058 C
HETATM   15  C16 UNL     1       2.361   3.184  25.968  1.00  0.00     0.144 C
BRANCH  13  16
HETATM   16  C3  UNL     1       3.710  -0.308  25.251  1.00  0.00     0.037 C
BRANCH  16  17
HETATM   17  C2  UNL     1       3.233  -1.665  24.901  1.00  0.00    -0.002 C
HETATM   18  C1  UNL     1       4.080  -2.645  25.731  1.00  0.00     0.005 C
ENDBRANCH  16  17
ENDBRANCH  13  16
BRANCH  13  19
HETATM   19  O1  UNL     1       2.462   0.339  27.063  1.00  0.00    -0.390 OA
ATOM     20  H1  UNL     1       3.321   0.480  27.443  1.00  0.00     0.210 HD
ENDBRANCH  13  19
ENDBRANCH   1   9
BRANCH   4  21
HETATM   21  N3  UNL     1       1.472   7.557  27.568  1.00  0.00    -0.385 N
ATOM     22  H32 UNL     1       1.537   7.824  26.585  1.00  0.00     0.157 HD
ATOM     23  H31 UNL     1       1.803   8.206  28.282  1.00  0.00     0.157 HD
ENDBRANCH   4  21
BRANCH   6  24
HETATM   24  N4  UNL     1      -1.389   5.060  30.278  1.00  0.00    -0.363 N
HETATM   25  C12 UNL     1      -2.279   6.159  30.564  1.00  0.00     0.150 C
HETATM   26  C13 UNL     1      -3.613   5.617  31.085  1.00  0.00     0.187 C
HETATM   27  O2  UNL     1      -3.785   4.338  30.561  1.00  0.00    -0.388 OA
HETATM   28  C14 UNL     1      -2.941   3.474  31.286  1.00  0.00     0.187 C
HETATM   29  C15 UNL     1      -1.483   3.911  31.143  1.00  0.00     0.150 C
ENDBRANCH   6  24
TORSDOF 6
ENDMDL