MODEL 5
REMARK VINA RESULT: -6.023040364      4.587      6.601
REMARK  6 active torsions:
REMARK  status: ('A' for Active; 'I' for Inactive)
REMARK    1  A    between atoms: C2_2  and  C3_3
REMARK    2  A    between atoms: C5_5  and  C6_6
REMARK    3  A    between atoms: C7_9  and  N1_10
REMARK    4  A    between atoms: N3_16  and  C11_18
REMARK    5  A    between atoms: C14_24  and  N5_25
REMARK    6  A    between atoms: N5_25  and  O2_27
ROOT
HETATM    1  N1  UNL     1       1.589   5.153  31.282  1.00  0.00    -0.298 N
HETATM    2  C8  UNL     1       1.570   3.823  31.078  1.00  0.00     0.188 A
HETATM    3  N2  UNL     1       2.342   3.532  30.018  1.00  0.00    -0.346 N
ATOM      4  H2  UNL     1       2.509   2.600  29.638  1.00  0.00     0.167 HD
HETATM    5  C9  UNL     1       2.861   4.691  29.538  1.00  0.00     0.125 A
HETATM    6  C10 UNL     1       3.672   5.256  28.573  1.00  0.00     0.149 A
HETATM    7  N3  UNL     1       4.308   4.641  27.634  1.00  0.00    -0.341 N
ATOM      8  H3  UNL     1       4.883   5.162  26.971  1.00  0.00     0.163 HD
HETATM    9  N6  UNL     1       3.650   6.585  28.830  1.00  0.00    -0.282 N
ATOM     10  H6  UNL     1       4.157   7.284  28.286  1.00  0.00     0.188 HD
HETATM   11  N7  UNL     1       2.893   6.862  29.869  1.00  0.00    -0.282 N
ATOM     12  H7  UNL     1       2.721   7.791  30.254  1.00  0.00     0.188 HD
HETATM   13  C16 UNL     1       2.382   5.706  30.339  1.00  0.00     0.156 A
ENDROOT
BRANCH   7  14
HETATM   14  C11 UNL     1       4.195   3.223  27.536  1.00  0.00     0.334 C
HETATM   15  N4  UNL     1       5.434   2.513  27.517  1.00  0.00    -0.049 N
HETATM   16  C12 UNL     1       5.253   1.288  26.803  1.00  0.00     0.241 C
ATOM     17  H42 UNL     1       6.197   3.074  27.140  1.00  0.00     0.280 HD
ATOM     18  H41 UNL     1       5.814   2.366  28.452  1.00  0.00     0.280 HD
HETATM   19  C13 UNL     1       3.854   1.322  26.193  1.00  0.00     0.086 C
HETATM   20  C14 UNL     1       3.543   2.781  26.271  1.00  0.00     0.061 C
BRANCH  20  21
HETATM   21  N5  UNL     1       2.864   3.487  25.430  1.00  0.00    -0.272 N
ATOM     22  H5  UNL     1       2.915   4.505  25.478  1.00  0.00     0.193 HD
BRANCH  21  23
HETATM   23  O2  UNL     1       2.088   2.909  24.485  1.00  0.00    -0.285 OA
HETATM   24  C15 UNL     1       0.709   2.674  24.607  1.00  0.00     0.237 C
ENDBRANCH  21  23
ENDBRANCH  20  21
ENDBRANCH   7  14
BRANCH   1  25
HETATM   25  C7  UNL     1       0.885   5.892  32.332  1.00  0.00     0.238 C
HETATM   26  C3  UNL     1       0.276   4.900  33.299  1.00  0.00     0.059 C
HETATM   27  C4  UNL     1       0.919   5.195  34.592  1.00  0.00     0.047 C
HETATM   28  C5  UNL     1       1.597   6.522  34.361  1.00  0.00     0.153 C
HETATM   29  O1  UNL     1       1.692   6.745  33.021  1.00  0.00    -0.358 OA
BRANCH  26  30
HETATM   30  C2  UNL     1      -1.197   4.967  33.261  1.00  0.00    -0.028 C
HETATM   31  C1  UNL     1      -1.940   5.365  32.275  1.00  0.00     0.007 C
ENDBRANCH  26  30
BRANCH  28  32
HETATM   32  C6  UNL     1       0.921   7.626  35.122  1.00  0.00     0.254 C
HETATM   33  F1  UNL     1      -0.217   7.159  35.751  1.00  0.00    -0.253 F
ENDBRANCH  28  32
ENDBRANCH   1  25
TORSDOF 6
ENDMDL