MODEL 3
REMARK VINA RESULT: -6.653501535      0.920      1.098
REMARK  9 active torsions:
REMARK  status: ('A' for Active; 'I' for Inactive)
REMARK    1  A    between atoms: C2_2  and  C3_3
REMARK    2  A    between atoms: C5_5  and  C6_6
REMARK    3  A    between atoms: C6_6  and  C7_7
REMARK    4  A    between atoms: C7_7  and  C8_8
REMARK    5  A    between atoms: C8_8  and  O1_9
REMARK    6  A    between atoms: C8_8  and  C9_11
REMARK    7  A    between atoms: C9_11  and  C10_12
REMARK    8  A    between atoms: C10_12  and  C11_13
REMARK    9  A    between atoms: C11_13  and  O2_14
ROOT
HETATM    1  C6  UNL     1     -36.745  18.212  -4.719  1.00  0.00     0.041 C
ENDROOT
BRANCH   1   2
HETATM    2  C5  UNL     1     -37.120  18.266  -6.128  1.00  0.00    -0.057 A
HETATM    3  C4  UNL     1     -36.164  18.121  -7.116  1.00  0.00     0.019 A
HETATM    4  C3  UNL     1     -36.510  18.151  -8.450  1.00  0.00    -0.031 A
HETATM    5  C15 UNL     1     -37.838  18.329  -8.806  1.00  0.00    -0.052 A
HETATM    6  C14 UNL     1     -38.812  18.477  -7.834  1.00  0.00     0.008 A
HETATM    7  C16 UNL     1     -38.196  18.358 -10.260  1.00  0.00     0.049 C
HETATM    8  C13 UNL     1     -38.435  18.443  -6.487  1.00  0.00     0.007 A
BRANCH   4   9
HETATM    9  C2  UNL     1     -35.509  17.997  -9.513  1.00  0.00     0.002 C
HETATM   10  C1  UNL     1     -34.229  17.829  -9.304  1.00  0.00     0.012 C
ENDBRANCH   4   9
ENDBRANCH   1   2
BRANCH   1  11
HETATM   11  C7  UNL     1     -35.463  18.823  -4.323  1.00  0.00     0.036 C
BRANCH  11  12
HETATM   12  C8  UNL     1     -34.388  17.944  -3.820  1.00  0.00     0.118 C
BRANCH  12  13
HETATM   13  O1  UNL     1     -34.289  16.695  -4.368  1.00  0.00    -0.396 OA
ATOM     14  H1  UNL     1     -33.952  16.001  -3.814  1.00  0.00     0.210 HD
ENDBRANCH  12  13
BRANCH  12  15
HETATM   15  C9  UNL     1     -33.016  18.584  -3.835  1.00  0.00     0.034 C
BRANCH  15  16
HETATM   16  C10 UNL     1     -32.452  18.356  -5.231  1.00  0.00     0.029 C
BRANCH  16  17
HETATM   17  C11 UNL     1     -31.189  17.569  -5.213  1.00  0.00     0.167 C
BRANCH  17  18
HETATM   18  O2  UNL     1     -31.318  16.306  -4.713  1.00  0.00    -0.396 OA
HETATM   19  C12 UNL     1     -30.099  15.654  -4.737  1.00  0.00     0.201 C
ENDBRANCH  17  18
ENDBRANCH  16  17
ENDBRANCH  15  16
ENDBRANCH  12  15
ENDBRANCH  11  12
ENDBRANCH   1  11
TORSDOF 9
ENDMDL