MODEL 2
REMARK VINA RESULT: -6.175386868      1.391      3.535
REMARK  9 active torsions:
REMARK  status: ('A' for Active; 'I' for Inactive)
REMARK    1  A    between atoms: C2_2  and  C3_3
REMARK    2  A    between atoms: C3_3  and  C4_4
REMARK    3  A    between atoms: C4_4  and  C5_5
REMARK    4  A    between atoms: C5_5  and  C6_6
REMARK    5  A    between atoms: C10_10  and  O1_11
REMARK    6  A    between atoms: O1_11  and  C11_12
REMARK    7  A    between atoms: C14_15  and  C15_16
REMARK    8  A    between atoms: C15_16  and  C16_17
REMARK    9  A    between atoms: C16_17  and  O2_18
ROOT
HETATM    1  C6  UNL     1     -35.261  17.992  -6.131  1.00  0.00    -0.051 A
HETATM    2  C7  UNL     1     -35.121  17.798  -7.513  1.00  0.00     0.017 A
HETATM    3  C8  UNL     1     -33.942  17.947  -8.194  1.00  0.00    -0.028 A
HETATM    4  C9  UNL     1     -33.881  17.720  -9.663  1.00  0.00     0.051 C
HETATM    5  C10 UNL     1     -32.834  18.307  -7.470  1.00  0.00     0.075 A
HETATM    6  C13 UNL     1     -32.941  18.505  -6.115  1.00  0.00     0.045 A
HETATM    7  C14 UNL     1     -34.145  18.354  -5.427  1.00  0.00    -0.047 A
ENDROOT
BRANCH   1   8
HETATM    8  C5  UNL     1     -36.585  17.717  -5.525  1.00  0.00     0.039 C
BRANCH   8   9
HETATM    9  C4  UNL     1     -37.619  17.312  -6.541  1.00  0.00     0.005 C
BRANCH   9  10
HETATM   10  C3  UNL     1     -38.682  18.359  -6.647  1.00  0.00    -0.000 C
BRANCH  10  11
HETATM   11  C2  UNL     1     -38.570  19.180  -7.894  1.00  0.00    -0.005 C
HETATM   12  C1  UNL     1     -38.479  18.300  -9.111  1.00  0.00     0.005 C
ENDBRANCH  10  11
ENDBRANCH   9  10
ENDBRANCH   8   9
ENDBRANCH   1   8
BRANCH   7  13
HETATM   13  C15 UNL     1     -34.229  18.653  -3.987  1.00  0.00     0.065 C
BRANCH  13  14
HETATM   14  C16 UNL     1     -32.911  18.613  -3.262  1.00  0.00     0.168 C
BRANCH  14  15
HETATM   15  O2  UNL     1     -32.829  17.427  -2.500  1.00  0.00    -0.401 OA
ATOM     16  H2  UNL     1     -32.506  17.631  -1.630  1.00  0.00     0.209 HD
ENDBRANCH  14  15
ENDBRANCH  13  14
ENDBRANCH   7  13
BRANCH   5  17
HETATM   17  O1  UNL     1     -31.626  18.474  -8.073  1.00  0.00    -0.351 OA
BRANCH  17  18
HETATM   18  C11 UNL     1     -30.351  18.496  -7.558  1.00  0.00     0.171 C
HETATM   19  C12 UNL     1     -29.415  17.442  -8.021  1.00  0.00     0.034 C
ENDBRANCH  17  18
ENDBRANCH   5  17
TORSDOF 9
ENDMDL