MODEL 3
REMARK VINA RESULT: -6.550217744      6.557      9.577
REMARK  8 active torsions:
REMARK  status: ('A' for Active; 'I' for Inactive)
REMARK    1  A    between atoms: C2_2  and  C4_4
REMARK    2  A    between atoms: C4_4  and  C5_5
REMARK    3  A    between atoms: C5_5  and  C6_6
REMARK    4  A    between atoms: C5_5  and  C12_15
REMARK    5  A    between atoms: C6_6  and  C7_7
REMARK    6  A    between atoms: C10_10  and  C11_11
REMARK    7  A    between atoms: C11_11  and  O1_12
REMARK    8  A    between atoms: C12_15  and  C13_16
ROOT
HETATM    1  C5  UNL     1     -27.265  15.095  -5.453  1.00  0.00    -0.007 C
ENDROOT
BRANCH   1   2
HETATM    2  C4  UNL     1     -26.766  14.802  -4.041  1.00  0.00     0.009 C
BRANCH   2   3
HETATM    3  C2  UNL     1     -25.659  15.700  -3.587  1.00  0.00    -0.022 C
HETATM    4  C1  UNL     1     -25.872  17.029  -4.304  1.00  0.00     0.009 C
HETATM    5  C3  UNL     1     -24.291  15.226  -3.934  1.00  0.00     0.009 C
ENDBRANCH   2   3
ENDBRANCH   1   2
BRANCH   1   6
HETATM    6  C6  UNL     1     -28.745  15.163  -5.342  1.00  0.00     0.069 C
BRANCH   6   7
HETATM    7  C7  UNL     1     -29.354  16.464  -5.749  1.00  0.00     0.053 A
HETATM    8  C8  UNL     1     -28.895  17.495  -6.501  1.00  0.00     0.035 A
HETATM    9  C9  UNL     1     -29.878  18.463  -6.562  1.00  0.00     0.037 A
HETATM   10  C10 UNL     1     -30.913  17.931  -5.810  1.00  0.00     0.076 A
HETATM   11  O2  UNL     1     -30.575  16.765  -5.352  1.00  0.00    -0.317 OA
BRANCH  10  12
HETATM   12  C11 UNL     1     -32.216  18.623  -5.579  1.00  0.00     0.229 C
BRANCH  12  13
HETATM   13  O1  UNL     1     -32.069  19.666  -4.664  1.00  0.00    -0.394 OA
ATOM     14  H1  UNL     1     -32.318  19.386  -3.791  1.00  0.00     0.209 HD
ENDBRANCH  12  13
ENDBRANCH  10  12
ENDBRANCH   6   7
ENDBRANCH   1   6
BRANCH   1  15
HETATM   15  C12 UNL     1     -26.756  14.111  -6.412  1.00  0.00     0.013 C
BRANCH  15  16
HETATM   16  C13 UNL     1     -26.017  14.464  -7.628  1.00  0.00    -0.051 C
HETATM   17  C14 UNL     1     -27.049  14.950  -8.718  1.00  0.00     0.014 C
HETATM   18  C15 UNL     1     -25.052  15.618  -7.569  1.00  0.00     0.014 C
HETATM   19  C16 UNL     1     -25.305  13.312  -8.292  1.00  0.00     0.014 C
ENDBRANCH  15  16
ENDBRANCH   1  15
TORSDOF 8
ENDMDL