MODEL 1
REMARK VINA RESULT: -6.557849958      0.000      0.000
REMARK  8 active torsions:
REMARK  status: ('A' for Active; 'I' for Inactive)
REMARK    1  A    between atoms: C2_2  and  C3_3
REMARK    2  A    between atoms: C3_3  and  C4_4
REMARK    3  A    between atoms: C4_4  and  C5_5
REMARK    4  A    between atoms: C5_5  and  C6_6
REMARK    5  A    between atoms: C6_6  and  C7_7
REMARK    6  A    between atoms: C7_7  and  C8_9
REMARK    7  A    between atoms: C10_11  and  C11_12
REMARK    8  A    between atoms: C13_14  and  O2_15
ROOT
HETATM    1  C8  UNL     1     -34.544  18.455  -5.710  1.00  0.00     0.016 A
HETATM    2  C9  UNL     1     -33.165  18.175  -5.767  1.00  0.00     0.025 A
HETATM    3  C10 UNL     1     -32.433  17.762  -4.675  1.00  0.00    -0.024 A
HETATM    4  C13 UNL     1     -33.110  17.626  -3.483  1.00  0.00     0.072 A
HETATM    5  C14 UNL     1     -34.456  17.886  -3.372  1.00  0.00     0.044 A
HETATM    6  C15 UNL     1     -35.180  18.308  -4.510  1.00  0.00    -0.045 A
HETATM    7  C16 UNL     1     -36.608  18.573  -4.325  1.00  0.00     0.049 C
ENDROOT
BRANCH   1   8
HETATM    8  C7  UNL     1     -35.252  18.872  -6.888  1.00  0.00     0.160 C
HETATM    9  O1  UNL     1     -35.687  20.053  -6.971  1.00  0.00    -0.292 OA
BRANCH   8  10
HETATM   10  C6  UNL     1     -35.547  18.037  -8.084  1.00  0.00     0.084 C
BRANCH  10  11
HETATM   11  C5  UNL     1     -35.978  16.650  -7.672  1.00  0.00     0.008 C
BRANCH  11  12
HETATM   12  C4  UNL     1     -37.476  16.487  -7.684  1.00  0.00     0.004 C
BRANCH  12  13
HETATM   13  C3  UNL     1     -38.156  17.292  -8.732  1.00  0.00     0.026 C
BRANCH  13  14
HETATM   14  C2  UNL     1     -39.199  18.137  -8.072  1.00  0.00    -0.037 C
HETATM   15  C1  UNL     1     -39.141  18.522  -6.807  1.00  0.00     0.007 C
ENDBRANCH  13  14
ENDBRANCH  12  13
ENDBRANCH  11  12
ENDBRANCH  10  11
ENDBRANCH   8  10
ENDBRANCH   1   8
BRANCH   3  16
HETATM   16  C11 UNL     1     -30.978  17.479  -4.786  1.00  0.00     0.037 C
HETATM   17  C12 UNL     1     -30.454  17.736  -6.179  1.00  0.00     0.010 C
ENDBRANCH   3  16
BRANCH   4  18
HETATM   18  O2  UNL     1     -32.359  17.209  -2.389  1.00  0.00    -0.360 OA
ATOM     19  H2  UNL     1     -32.392  16.283  -2.182  1.00  0.00     0.217 HD
ENDBRANCH   4  18
TORSDOF 8
ENDMDL