MODEL 2
REMARK VINA RESULT: -6.589467998      1.016      1.060
REMARK  7 active torsions:
REMARK  status: ('A' for Active; 'I' for Inactive)
REMARK    1  A    between atoms: C2_2  and  C3_3
REMARK    2  A    between atoms: C3_3  and  C4_4
REMARK    3  A    between atoms: C4_4  and  C5_5
REMARK    4  A    between atoms: C10_11  and  C11_12
REMARK    5  A    between atoms: C11_12  and  C12_14
REMARK    6  A    between atoms: C12_14  and  C13_15
REMARK    7  A    between atoms: C13_15  and  C15_17
ROOT
HETATM    1  C5  UNL     1     -32.529  18.506  -6.603  1.00  0.00    -0.012 A
HETATM    2  C6  UNL     1     -31.755  17.890  -5.671  1.00  0.00     0.056 A
HETATM    3  C7  UNL     1     -30.315  17.575  -5.765  1.00  0.00     0.077 C
HETATM    4  O1  UNL     1     -32.470  17.567  -4.583  1.00  0.00    -0.319 OA
HETATM    5  C8  UNL     1     -33.702  17.941  -4.747  1.00  0.00     0.064 A
HETATM    6  C9  UNL     1     -34.832  17.766  -3.761  1.00  0.00     0.077 C
HETATM    7  C10 UNL     1     -33.813  18.538  -5.992  1.00  0.00     0.048 A
ENDROOT
BRANCH   7   8
HETATM    8  C11 UNL     1     -35.028  19.092  -6.554  1.00  0.00     0.163 C
HETATM    9  O2  UNL     1     -35.192  20.323  -6.504  1.00  0.00    -0.292 OA
BRANCH   8  10
HETATM   10  C12 UNL     1     -36.010  18.190  -7.160  1.00  0.00     0.088 C
BRANCH  10  11
HETATM   11  C13 UNL     1     -37.441  18.566  -6.885  1.00  0.00    -0.012 C
HETATM   12  C14 UNL     1     -37.983  18.065  -5.591  1.00  0.00     0.010 C
BRANCH  11  13
HETATM   13  C15 UNL     1     -38.354  18.296  -8.063  1.00  0.00     0.000 C
HETATM   14  C16 UNL     1     -37.683  18.834  -9.324  1.00  0.00     0.005 C
ENDBRANCH  11  13
ENDBRANCH  10  11
ENDBRANCH   8  10
ENDBRANCH   7   8
BRANCH   1  15
HETATM   15  C4  UNL     1     -32.289  19.065  -7.923  1.00  0.00     0.042 C
BRANCH  15  16
HETATM   16  C3  UNL     1     -32.072  18.198  -9.078  1.00  0.00     0.004 C
BRANCH  16  17
HETATM   17  C2  UNL     1     -33.146  17.267  -9.543  1.00  0.00    -0.004 C
HETATM   18  C1  UNL     1     -34.200  17.944 -10.392  1.00  0.00     0.005 C
ENDBRANCH  16  17
ENDBRANCH  15  16
ENDBRANCH   1  15
TORSDOF 7
ENDMDL