MODEL 3
REMARK VINA RESULT: -6.256544117      1.157      3.444
REMARK  9 active torsions:
REMARK  status: ('A' for Active; 'I' for Inactive)
REMARK    1  A    between atoms: C2_2  and  C3_3
REMARK    2  A    between atoms: C3_3  and  C4_4
REMARK    3  A    between atoms: C4_4  and  C5_5
REMARK    4  A    between atoms: C5_5  and  C6_6
REMARK    5  A    between atoms: C6_6  and  C7_7
REMARK    6  A    between atoms: C7_7  and  C8_8
REMARK    7  A    between atoms: C10_10  and  C11_11
REMARK    8  A    between atoms: C11_11  and  O1_12
REMARK    9  A    between atoms: C15_17  and  O2_18
ROOT
HETATM    1  C8  UNL     1     -35.494  17.843  -6.143  1.00  0.00    -0.024 A
HETATM    2  C9  UNL     1     -34.927  18.027  -4.868  1.00  0.00     0.019 A
HETATM    3  C10 UNL     1     -33.607  18.337  -4.669  1.00  0.00    -0.028 A
HETATM    4  C12 UNL     1     -32.761  18.489  -5.732  1.00  0.00    -0.051 A
HETATM    5  C13 UNL     1     -31.329  18.825  -5.557  1.00  0.00     0.049 C
HETATM    6  C14 UNL     1     -33.276  18.320  -6.985  1.00  0.00     0.044 A
HETATM    7  C15 UNL     1     -34.632  18.001  -7.188  1.00  0.00     0.075 A
ENDROOT
BRANCH   1   8
HETATM    8  C7  UNL     1     -36.922  17.470  -6.235  1.00  0.00     0.041 C
BRANCH   8   9
HETATM    9  C6  UNL     1     -37.921  18.524  -6.171  1.00  0.00     0.005 C
BRANCH   9  10
HETATM   10  C5  UNL     1     -38.700  19.027  -7.287  1.00  0.00     0.001 C
BRANCH  10  11
HETATM   11  C4  UNL     1     -38.839  18.245  -8.530  1.00  0.00     0.004 C
BRANCH  11  12
HETATM   12  C3  UNL     1     -38.049  18.875  -9.692  1.00  0.00     0.026 C
BRANCH  12  13
HETATM   13  C2  UNL     1     -37.777  17.761 -10.639  1.00  0.00    -0.037 C
HETATM   14  C1  UNL     1     -37.242  18.008 -11.821  1.00  0.00     0.007 C
ENDBRANCH  12  13
ENDBRANCH  11  12
ENDBRANCH  10  11
ENDBRANCH   9  10
ENDBRANCH   8   9
ENDBRANCH   1   8
BRANCH   7  15
HETATM   15  O2  UNL     1     -35.083  17.850  -8.485  1.00  0.00    -0.355 OA
HETATM   16  C16 UNL     1     -34.177  17.914  -9.560  1.00  0.00     0.210 C
ENDBRANCH   7  15
BRANCH   3  17
HETATM   17  C11 UNL     1     -33.129  18.505  -3.273  1.00  0.00     0.203 C
BRANCH  17  18
HETATM   18  O1  UNL     1     -32.677  17.317  -2.727  1.00  0.00    -0.396 OA
ATOM     19  H1  UNL     1     -32.536  17.382  -1.790  1.00  0.00     0.209 HD
ENDBRANCH  17  18
ENDBRANCH   3  17
TORSDOF 9
ENDMDL