MODEL 2
REMARK VINA RESULT: -7.488351285      1.672      1.987
REMARK  3 active torsions:
REMARK  status: ('A' for Active; 'I' for Inactive)
REMARK    1  A    between atoms: C2_7  and  C3_8
REMARK    2  A    between atoms: C3_8  and  N3_9
REMARK    3  A    between atoms: C12_22  and  O3_23
ROOT
HETATM    1  N1  UNL     1     -29.695  15.178  -4.797  1.00  0.00    -0.384 N
ATOM      2  H11 UNL     1     -28.799  14.783  -5.083  1.00  0.00     0.157 HD
ATOM      3  H12 UNL     1     -30.124  14.458  -4.216  1.00  0.00     0.157 HD
HETATM    4  C1  UNL     1     -30.201  16.257  -5.051  1.00  0.00     0.129 A
HETATM    5  N2  UNL     1     -31.444  16.805  -4.654  1.00  0.00    -0.329 N
ATOM      6  H2  UNL     1     -32.142  16.354  -4.062  1.00  0.00     0.168 HD
HETATM    7  C2  UNL     1     -31.543  18.105  -5.235  1.00  0.00     0.112 A
HETATM    8  N4  UNL     1     -30.501  18.386  -5.929  1.00  0.00    -0.340 N
ATOM      9  H4  UNL     1     -30.353  19.260  -6.434  1.00  0.00     0.167 HD
HETATM   10  C11 UNL     1     -29.582  17.298  -5.890  1.00  0.00     0.099 A
HETATM   11  C12 UNL     1     -28.405  17.241  -6.491  1.00  0.00     0.164 C
ENDROOT
BRANCH   7  12
HETATM   12  C3  UNL     1     -32.724  18.973  -5.026  1.00  0.00     0.348 C
BRANCH  12  13
HETATM   13  N3  UNL     1     -33.958  18.306  -5.420  1.00  0.00     0.098 N
HETATM   14  C4  UNL     1     -34.873  18.406  -4.332  1.00  0.00     0.275 C
HETATM   15  C5  UNL     1     -36.272  17.985  -4.627  1.00  0.00     0.065 C
HETATM   16  C6  UNL     1     -36.708  18.677  -5.918  1.00  0.00     0.153 C
HETATM   17  O1  UNL     1     -37.989  18.332  -6.284  1.00  0.00    -0.381 OA
HETATM   18  C9  UNL     1     -35.757  18.246  -6.981  1.00  0.00     0.178 C
HETATM   19  C7  UNL     1     -38.301  19.096  -7.410  1.00  0.00     0.194 C
HETATM   20  C8  UNL     1     -37.365  18.894  -8.541  1.00  0.00     0.194 C
HETATM   21  O2  UNL     1     -36.133  18.427  -8.258  1.00  0.00    -0.379 OA
HETATM   22  C10 UNL     1     -34.407  18.895  -6.645  1.00  0.00     0.307 C
ENDBRANCH  12  13
ENDBRANCH   7  12
BRANCH  11  23
HETATM   23  O3  UNL     1     -27.992  18.330  -7.243  1.00  0.00    -0.370 OA
ATOM     24  H3  UNL     1     -28.398  18.479  -8.089  1.00  0.00     0.216 HD
ENDBRANCH  11  23
TORSDOF 3
ENDMDL