MODEL 1
REMARK VINA RESULT: -7.020139932      0.000      0.000
REMARK  6 active torsions:
REMARK  status: ('A' for Active; 'I' for Inactive)
REMARK    1  A    between atoms: C2_2  and  C3_3
REMARK    2  A    between atoms: C3_3  and  C4_4
REMARK    3  A    between atoms: C10_10  and  O1_11
REMARK    4  A    between atoms: C10_10  and  C11_13
REMARK    5  A    between atoms: C11_13  and  C12_14
REMARK    6  A    between atoms: C12_14  and  C13_15
ROOT
HETATM    1  C3  UNL     1     -36.617  18.235  -6.893  1.00  0.00    -0.041 C
HETATM    2  C6  UNL     1     -37.497  18.330  -5.667  1.00  0.00     0.009 C
HETATM    3  C7  UNL     1     -36.897  18.846  -4.417  1.00  0.00     0.001 C
HETATM    4  C8  UNL     1     -35.713  18.120  -3.879  1.00  0.00     0.003 C
HETATM    5  C9  UNL     1     -34.419  18.849  -4.093  1.00  0.00     0.038 C
HETATM    6  C10 UNL     1     -33.565  18.155  -5.164  1.00  0.00     0.058 C
HETATM    7  C15 UNL     1     -34.086  18.361  -6.537  1.00  0.00     0.038 C
HETATM    8  C16 UNL     1     -35.351  19.056  -6.753  1.00  0.00     0.012 C
ENDROOT
BRANCH   6   9
HETATM    9  O1  UNL     1     -33.522  16.814  -4.774  1.00  0.00    -0.390 OA
ATOM     10  H1  UNL     1     -33.117  16.361  -5.504  1.00  0.00     0.210 HD
ENDBRANCH   6   9
BRANCH   6  11
HETATM   11  C11 UNL     1     -32.172  18.700  -4.940  1.00  0.00     0.045 C
BRANCH  11  12
HETATM   12  C12 UNL     1     -31.229  18.593  -6.080  1.00  0.00     0.081 C
BRANCH  12  13
HETATM   13  C13 UNL     1     -30.178  17.591  -5.696  1.00  0.00     0.123 C
HETATM   14  C14 UNL     1     -28.734  17.915  -5.706  1.00  0.00     0.091 C
HETATM   15  O2  UNL     1     -30.580  16.470  -5.369  1.00  0.00    -0.298 OA
ENDBRANCH  12  13
ENDBRANCH  11  12
ENDBRANCH   6  11
BRANCH   1  16
HETATM   16  C2  UNL     1     -36.370  16.845  -7.327  1.00  0.00     0.005 C
HETATM   17  C1  UNL     1     -37.484  15.983  -7.781  1.00  0.00     0.006 C
ENDBRANCH   1  16
BRANCH   1  18
HETATM   18  C4  UNL     1     -37.414  18.940  -7.965  1.00  0.00     0.005 C
HETATM   19  C5  UNL     1     -38.807  19.308  -7.690  1.00  0.00     0.006 C
ENDBRANCH   1  18
TORSDOF 6
ENDMDL