MODEL 2
REMARK VINA RESULT: -6.583075935      1.836      5.314
REMARK  7 active torsions:
REMARK  status: ('A' for Active; 'I' for Inactive)
REMARK    1  A    between atoms: C2_2  and  C3_3
REMARK    2  A    between atoms: C3_3  and  C4_4
REMARK    3  A    between atoms: C4_4  and  C5_5
REMARK    4  A    between atoms: C5_5  and  C6_6
REMARK    5  A    between atoms: C6_6  and  C7_8
REMARK    6  A    between atoms: C12_14  and  C13_15
REMARK    7  A    between atoms: C13_15  and  C14_16
ROOT
HETATM    1  C7  UNL     1     -35.762  18.427  -8.114  1.00  0.00     0.048 A
HETATM    2  C8  UNL     1     -34.626  18.021  -8.841  1.00  0.00     0.064 A
HETATM    3  C9  UNL     1     -33.235  17.845  -8.284  1.00  0.00     0.077 C
HETATM    4  O2  UNL     1     -35.033  17.838 -10.056  1.00  0.00    -0.319 OA
HETATM    5  C10 UNL     1     -36.295  18.075 -10.212  1.00  0.00     0.056 A
HETATM    6  C11 UNL     1     -37.088  17.964 -11.482  1.00  0.00     0.077 C
HETATM    7  C12 UNL     1     -36.821  18.466  -8.955  1.00  0.00    -0.012 A
ENDROOT
BRANCH   1   8
HETATM    8  C6  UNL     1     -35.656  18.817  -6.738  1.00  0.00     0.162 C
HETATM    9  O1  UNL     1     -35.206  20.020  -6.545  1.00  0.00    -0.292 OA
BRANCH   8  10
HETATM   10  C5  UNL     1     -35.964  18.079  -5.521  1.00  0.00     0.084 C
BRANCH  10  11
HETATM   11  C4  UNL     1     -35.365  18.773  -4.292  1.00  0.00     0.008 C
BRANCH  11  12
HETATM   12  C3  UNL     1     -34.504  17.792  -3.561  1.00  0.00     0.000 C
BRANCH  12  13
HETATM   13  C2  UNL     1     -33.112  18.280  -3.314  1.00  0.00    -0.005 C
HETATM   14  C1  UNL     1     -32.402  18.742  -4.554  1.00  0.00     0.005 C
ENDBRANCH  12  13
ENDBRANCH  11  12
ENDBRANCH  10  11
ENDBRANCH   8  10
ENDBRANCH   1   8
BRANCH   7  15
HETATM   15  C13 UNL     1     -38.254  18.758  -8.770  1.00  0.00     0.046 C
BRANCH  15  16
HETATM   16  C14 UNL     1     -39.065  17.787  -8.013  1.00  0.00    -0.018 C
HETATM   17  C15 UNL     1     -38.472  16.447  -7.755  1.00  0.00     0.010 C
HETATM   18  C16 UNL     1     -39.417  18.369  -6.621  1.00  0.00     0.010 C
ENDBRANCH  15  16
ENDBRANCH   7  15
TORSDOF 7
ENDMDL