MODEL 3
REMARK VINA RESULT: -8.104893994      3.223      9.398
REMARK  9 active torsions:
REMARK  status: ('A' for Active; 'I' for Inactive)
REMARK    1  A    between atoms: C2_2  and  N1_4
REMARK    2  A    between atoms: C4_5  and  N2_6
REMARK    3  A    between atoms: N2_6  and  N3_8
REMARK    4  A    between atoms: C5_11  and  C6_12
REMARK    5  A    between atoms: C6_12  and  C7_13
REMARK    6  A    between atoms: C6_12  and  N5_17
REMARK    7  A    between atoms: C7_13  and  C8_14
REMARK       I    between atoms: N5_17  and  C9_19
REMARK    8  A    between atoms: C9_19  and  C10_21
REMARK    9  A    between atoms: C11_24  and  N7_25
ROOT
HETATM    1  C6  UNL     1      45.377  47.033   8.934  1.00  0.00     0.167 C
ENDROOT
BRANCH   1   2
HETATM    2  C5  UNL     1      46.259  46.528  10.026  1.00  0.00     0.086 A
HETATM    3  C4  UNL     1      46.998  45.378  10.117  1.00  0.00     0.151 A
HETATM    4  N1  UNL     1      47.654  45.316  11.315  1.00  0.00    -0.278 N
HETATM    5  C14 UNL     1      47.305  46.433  11.975  1.00  0.00     0.329 A
HETATM    6  N9  UNL     1      46.482  47.158  11.219  1.00  0.00    -0.306 N
HETATM    7  O5  UNL     1      47.753  46.666  13.146  1.00  0.00    -0.246 OA
ATOM      8  H9  UNL     1      46.076  48.053  11.491  1.00  0.00     0.170 HD
BRANCH   3   9
HETATM    9  N2  UNL     1      47.138  44.387   9.101  1.00  0.00    -0.290 N
ATOM     10  H2  UNL     1      47.712  44.628   8.293  1.00  0.00     0.188 HD
BRANCH   9  11
HETATM   11  N3  UNL     1      46.566  43.130   9.112  1.00  0.00    -0.344 N
ATOM     12  H32 UNL     1      47.130  42.387   9.524  1.00  0.00     0.176 HD
ATOM     13  H31 UNL     1      45.644  42.889   8.748  1.00  0.00     0.176 HD
ENDBRANCH   9  11
ENDBRANCH   3   9
BRANCH   4  14
HETATM   14  C2  UNL     1      48.609  44.299  11.688  1.00  0.00     0.088 C
HETATM   15  C1  UNL     1      49.708  44.916  12.551  1.00  0.00     0.032 C
HETATM   16  C3  UNL     1      48.094  43.078  12.348  1.00  0.00     0.032 C
ENDBRANCH   4  14
ENDBRANCH   1   2
BRANCH   1  17
HETATM   17  C7  UNL     1      44.066  46.325   9.213  1.00  0.00     0.075 C
BRANCH  17  18
HETATM   18  C8  UNL     1      43.610  45.221   8.462  1.00  0.00     0.253 C
HETATM   19  N4  UNL     1      42.553  45.475   7.497  1.00  0.00    -0.058 NA
HETATM   20  O1  UNL     1      44.000  44.046   8.515  1.00  0.00    -0.272 OA
ENDBRANCH  17  18
ENDBRANCH   1  17
BRANCH   1  21
HETATM   21  N5  UNL     1      45.282  48.393   8.660  1.00  0.00    -0.341 N
HETATM   22  C9  UNL     1      44.882  48.858   7.352  1.00  0.00     0.286 C
HETATM   23  O2  UNL     1      44.626  47.964   6.482  1.00  0.00    -0.264 OA
ATOM     24  H5  UNL     1      45.497  49.070   9.391  1.00  0.00     0.164 HD
BRANCH  22  25
HETATM   25  C10 UNL     1      44.745  50.227   6.973  1.00  0.00     0.178 A
HETATM   26  N6  UNL     1      45.166  50.690   5.728  1.00  0.00    -0.318 N
HETATM   27  C11 UNL     1      44.956  51.997   5.618  1.00  0.00     0.191 A
ATOM     28  H6  UNL     1      45.578  50.106   5.000  1.00  0.00     0.169 HD
HETATM   29  C12 UNL     1      44.395  52.383   6.809  1.00  0.00     0.147 A
HETATM   30  N8  UNL     1      44.272  51.291   7.625  1.00  0.00    -0.339 N
HETATM   31  C13 UNL     1      43.725  51.339   8.975  1.00  0.00     0.157 C
BRANCH  27  32
HETATM   32  N7  UNL     1      45.237  52.852   4.507  1.00  0.00    -0.096 N
HETATM   33  O3  UNL     1      44.622  52.684   3.453  1.00  0.00    -0.530 OA
HETATM   34  O4  UNL     1      46.177  53.856   4.632  1.00  0.00    -0.530 OA
ENDBRANCH  27  32
ENDBRANCH  22  25
ENDBRANCH   1  21
TORSDOF 9
ENDMDL