MODEL 3
REMARK VINA RESULT: -9.068171820      2.569      4.059
REMARK  11 active torsions:
REMARK  status: ('A' for Active; 'I' for Inactive)
REMARK    1  A    between atoms: N1_1  and  C1_4
REMARK    2  A    between atoms: C1_4  and  N2_5
REMARK    3  A    between atoms: C1_4  and  C3_13
REMARK    4  A    between atoms: N2_5  and  N3_7
REMARK    5  A    between atoms: N3_7  and  C2_8
REMARK    6  A    between atoms: C2_8  and  O1_9
REMARK    7  A    between atoms: O1_9  and  N4_10
REMARK       I    between atoms: N7_20  and  C5_22
REMARK       I    between atoms: C5_22  and  N8_24
REMARK    8  A    between atoms: N8_24  and  C6_26
REMARK    9  A    between atoms: C7_27  and  N9_28
REMARK   10  A    between atoms: N9_28  and  C8_30
REMARK   11  A    between atoms: C8_30  and  C9_31
ROOT
HETATM    1  C3  UNL     1      43.632  51.820   8.027  1.00  0.00     0.148 A
HETATM    2  N5  UNL     1      43.154  52.616   8.999  1.00  0.00    -0.234 N
ATOM      3  H5  UNL     1      42.813  53.569   8.877  1.00  0.00     0.197 HD
HETATM    4  O4  UNL     1      43.200  51.959  10.123  1.00  0.00    -0.155 OA
HETATM    5  N6  UNL     1      43.696  50.755   9.914  1.00  0.00    -0.223 N
ATOM      6  H6  UNL     1      43.838  50.041  10.629  1.00  0.00     0.198 HD
HETATM    7  C4  UNL     1      43.985  50.618   8.598  1.00  0.00     0.164 A
HETATM    8  N7  UNL     1      44.479  49.627   7.959  1.00  0.00    -0.291 N
ATOM      9  H7  UNL     1      44.638  49.690   6.953  1.00  0.00     0.172 HD
HETATM   10  C5  UNL     1      44.804  48.436   8.664  1.00  0.00     0.326 C
HETATM   11  O5  UNL     1      43.918  47.528   8.819  1.00  0.00    -0.247 OA
HETATM   12  N8  UNL     1      46.082  48.200   9.214  1.00  0.00    -0.303 N
ATOM     13  H8  UNL     1      46.803  48.911   9.101  1.00  0.00     0.171 HD
ENDROOT
BRANCH   1  14
HETATM   14  C1  UNL     1      43.763  52.150   6.606  1.00  0.00     0.157 C
BRANCH  14  15
HETATM   15  N1  UNL     1      44.809  52.721   6.160  1.00  0.00    -0.382 N
ATOM     16  H12 UNL     1      45.721  52.558   6.589  1.00  0.00     0.157 HD
ATOM     17  H11 UNL     1      44.743  53.352   5.361  1.00  0.00     0.157 HD
ENDBRANCH  14  15
BRANCH  14  18
HETATM   18  N2  UNL     1      42.678  51.815   5.702  1.00  0.00    -0.216 N
ATOM     19  H2  UNL     1      42.198  50.923   5.812  1.00  0.00     0.203 HD
BRANCH  18  20
HETATM   20  N3  UNL     1      42.305  52.619   4.761  1.00  0.00    -0.310 NA
BRANCH  20  21
HETATM   21  C2  UNL     1      41.964  53.326   3.888  1.00  0.00     0.382 C
BRANCH  21  22
HETATM   22  O1  UNL     1      41.982  52.938   2.534  1.00  0.00    -0.157 OA
BRANCH  22  23
HETATM   23  N4  UNL     1      42.163  53.877   1.548  1.00  0.00     0.012 N
HETATM   24  O2  UNL     1      41.214  54.636   1.257  1.00  0.00    -0.511 OA
HETATM   25  O3  UNL     1      43.350  54.006   0.873  1.00  0.00    -0.511 OA
ENDBRANCH  22  23
ENDBRANCH  21  22
ENDBRANCH  20  21
ENDBRANCH  18  20
ENDBRANCH  14  18
ENDBRANCH   1  14
BRANCH  12  26
HETATM   26  C6  UNL     1      46.401  47.012   9.915  1.00  0.00     0.121 A
HETATM   27  C7  UNL     1      46.692  46.788  11.258  1.00  0.00     0.114 A
HETATM   28  C12 UNL     1      46.848  45.455  10.984  1.00  0.00     0.252 A
HETATM   29  O6  UNL     1      47.132  44.432  11.633  1.00  0.00    -0.281 OA
HETATM   30  C13 UNL     1      46.560  45.671   9.653  1.00  0.00     0.253 A
HETATM   31  O7  UNL     1      46.464  44.991   8.598  1.00  0.00    -0.281 OA
BRANCH  27  32
HETATM   32  N9  UNL     1      46.806  47.534  12.456  1.00  0.00    -0.384 N
ATOM     33  H9  UNL     1      46.072  48.204  12.690  1.00  0.00     0.159 HD
BRANCH  32  34
HETATM   34  C8  UNL     1      47.909  47.382  13.349  1.00  0.00     0.124 C
BRANCH  34  35
HETATM   35  C9  UNL     1      48.128  48.490  14.314  1.00  0.00     0.003 A
HETATM   36  C10 UNL     1      48.872  48.173  15.607  1.00  0.00     0.007 A
HETATM   37  C11 UNL     1      47.451  48.643  15.604  1.00  0.00     0.007 A
ENDBRANCH  34  35
ENDBRANCH  32  34
ENDBRANCH  27  32
ENDBRANCH  12  26
TORSDOF 11
ENDMDL