MODEL 5
REMARK VINA RESULT: -8.092450929      4.511      6.590
REMARK  9 active torsions:
REMARK  status: ('A' for Active; 'I' for Inactive)
REMARK    1  A    between atoms: C2_2  and  O1_3
REMARK    2  A    between atoms: C2_2  and  N1_5
REMARK    3  A    between atoms: N1_5  and  C4_7
REMARK    4  A    between atoms: C6_9  and  N2_10
REMARK    5  A    between atoms: N2_10  and  C7_12
REMARK    6  A    between atoms: C7_12  and  C8_13
REMARK    7  A    between atoms: C8_13  and  S1_14
REMARK    8  A    between atoms: C9_20  and  N4_21
REMARK    9  A    between atoms: N6_28  and  O5_29
ROOT
HETATM    1  C4  UNL     1      43.799  51.762   7.022  1.00  0.00     0.154 A
HETATM    2  C5  UNL     1      43.449  52.334   8.233  1.00  0.00     0.100 A
HETATM    3  C6  UNL     1      43.474  51.641   9.408  1.00  0.00     0.120 A
HETATM    4  N3  UNL     1      43.862  50.350   9.339  1.00  0.00    -0.174 N
ATOM      5  H3  UNL     1      43.893  49.801  10.197  1.00  0.00     0.186 HD
HETATM    6  C9  UNL     1      44.210  49.763   8.179  1.00  0.00     0.715 A
HETATM    7  N6  UNL     1      44.171  50.485   7.044  1.00  0.00    -0.035 N
ENDROOT
BRANCH   3   8
HETATM    8  N2  UNL     1      43.112  52.203  10.664  1.00  0.00    -0.375 N
ATOM      9  H2  UNL     1      43.435  51.720  11.503  1.00  0.00     0.161 HD
BRANCH   8  10
HETATM   10  C7  UNL     1      42.335  53.387  10.849  1.00  0.00     0.139 C
BRANCH  10  11
HETATM   11  C8  UNL     1      42.846  54.127  12.058  1.00  0.00     0.184 C
BRANCH  11  12
HETATM   12  S1  UNL     1      41.492  54.857  12.971  1.00  0.00     0.103 S
HETATM   13  O2  UNL     1      42.021  56.128  13.583  1.00  0.00    -0.595 OA
HETATM   14  O3  UNL     1      40.940  53.941  13.993  1.00  0.00    -0.595 OA
HETATM   15  O4  UNL     1      40.352  55.320  11.805  1.00  0.00    -0.595 OA
ENDBRANCH  11  12
ENDBRANCH  10  11
ENDBRANCH   8  10
ENDBRANCH   3   8
BRANCH   1  16
HETATM   16  N1  UNL     1      43.780  52.450   5.802  1.00  0.00    -0.343 N
HETATM   17  C3  UNL     1      42.536  52.655   5.112  1.00  0.00     0.154 C
BRANCH  16  18
HETATM   18  C2  UNL     1      44.995  52.960   5.228  1.00  0.00     0.216 C
HETATM   19  C1  UNL     1      45.108  52.619   3.757  1.00  0.00     0.063 C
BRANCH  18  20
HETATM   20  O1  UNL     1      46.131  52.376   5.839  1.00  0.00    -0.377 OA
ATOM     21  H1  UNL     1      45.998  52.483   6.773  1.00  0.00     0.212 HD
ENDBRANCH  18  20
ENDBRANCH  16  18
ENDBRANCH   1  16
BRANCH   6  22
HETATM   22  N4  UNL     1      44.604  48.403   8.185  1.00  0.00    -0.177 N
HETATM   23  C10 UNL     1      46.022  48.139   8.310  1.00  0.00     0.150 C
HETATM   24  C11 UNL     1      46.297  46.666   8.515  1.00  0.00     0.040 C
HETATM   25  C12 UNL     1      45.106  46.130   9.318  1.00  0.00     0.122 C
HETATM   26  N5  UNL     1      43.990  46.073   8.428  1.00  0.00    -0.385 N
HETATM   27  C13 UNL     1      43.585  47.400   8.061  1.00  0.00     0.196 C
ATOM     28  H5  UNL     1      43.546  45.214   8.101  1.00  0.00     0.160 HD
ENDBRANCH   6  22
BRANCH   7  29
HETATM   29  O5  UNL     1      44.536  49.834   5.886  1.00  0.00    -0.268 OA
ATOM     30  H5  UNL     1      44.167  48.987   5.666  1.00  0.00     0.246 HD
ENDBRANCH   7  29
TORSDOF 9
ENDMDL