MODEL 2
REMARK VINA RESULT: -8.195538291      2.980      8.194
REMARK  11 active torsions:
REMARK  status: ('A' for Active; 'I' for Inactive)
REMARK    1  A    between atoms: N1_1  and  C1_5
REMARK    2  A    between atoms: C1_5  and  C2_6
REMARK    3  A    between atoms: C2_6  and  C3_7
REMARK    4  A    between atoms: C3_7  and  O1_8
REMARK    5  A    between atoms: O1_8  and  N2_9
REMARK    6  A    between atoms: N2_9  and  C4_11
REMARK    7  A    between atoms: C4_11  and  C5_18
REMARK    8  A    between atoms: N3_12  and  N4_14
REMARK    9  A    between atoms: N4_14  and  O2_16
REMARK   10  A    between atoms: C9_25  and  S1_26
REMARK   11  A    between atoms: S1_26  and  N6_27
ROOT
HETATM    1  C5  UNL     1      43.416  52.129   8.079  1.00  0.00     0.055 A
HETATM    2  C6  UNL     1      44.428  52.353   7.191  1.00  0.00     0.042 A
HETATM    3  C7  UNL     1      44.102  52.514   5.890  1.00  0.00     0.067 A
HETATM    4  C8  UNL     1      44.973  52.751   4.806  1.00  0.00     0.260 A
HETATM    5  O3  UNL     1      46.215  52.843   4.948  1.00  0.00    -0.267 OA
HETATM    6  N5  UNL     1      44.479  52.884   3.591  1.00  0.00    -0.298 N
ATOM      7  H5  UNL     1      45.142  53.054   2.835  1.00  0.00     0.171 HD
HETATM    8  C9  UNL     1      43.181  52.814   3.262  1.00  0.00     0.227 A
HETATM    9  N7  UNL     1      42.327  52.589   4.269  1.00  0.00    -0.325 N
ATOM     10  H7  UNL     1      41.327  52.526   4.079  1.00  0.00     0.169 HD
HETATM   11  C10 UNL     1      42.786  52.443   5.551  1.00  0.00     0.092 A
HETATM   12  S2  UNL     1      42.027  52.152   7.065  1.00  0.00    -0.068 SA
ENDROOT
BRANCH   1  13
HETATM   13  C4  UNL     1      43.437  51.909   9.522  1.00  0.00     0.158 C
HETATM   14  N3  UNL     1      43.670  50.749   9.998  1.00  0.00    -0.263 N
ATOM     15  H3  UNL     1      43.686  50.635  11.011  1.00  0.00     0.190 HD
BRANCH  13  16
HETATM   16  N2  UNL     1      43.203  53.013  10.378  1.00  0.00    -0.248 N
ATOM     17  H2  UNL     1      43.950  53.354  10.984  1.00  0.00     0.196 HD
BRANCH  16  18
HETATM   18  O1  UNL     1      42.014  53.607  10.395  1.00  0.00    -0.279 OA
BRANCH  18  19
HETATM   19  C3  UNL     1      41.893  54.591  11.354  1.00  0.00     0.203 C
BRANCH  19  20
HETATM   20  C2  UNL     1      42.207  54.084  12.739  1.00  0.00     0.056 C
BRANCH  20  21
HETATM   21  C1  UNL     1      41.220  54.611  13.761  1.00  0.00     0.231 C
BRANCH  21  22
HETATM   22  N1  UNL     1      41.070  56.037  13.680  1.00  0.00    -0.079 N
ATOM     23  H13 UNL     1      40.841  56.438  14.590  1.00  0.00     0.274 HD
ATOM     24  H12 UNL     1      41.969  56.496  13.524  1.00  0.00     0.274 HD
ATOM     25  H11 UNL     1      40.387  56.309  12.973  1.00  0.00     0.274 HD
ENDBRANCH  21  22
ENDBRANCH  20  21
ENDBRANCH  19  20
ENDBRANCH  18  19
ENDBRANCH  16  18
ENDBRANCH  13  16
BRANCH  14  26
HETATM   26  N4  UNL     1      43.904  49.637   9.208  1.00  0.00    -0.208 N
ATOM     27  H4  UNL     1      44.133  49.797   8.227  1.00  0.00     0.215 HD
BRANCH  26  28
HETATM   28  O2  UNL     1      43.857  48.465   9.597  1.00  0.00    -0.274 OA
ATOM     29  H2  UNL     1      44.605  47.884   9.673  1.00  0.00     0.246 HD
ENDBRANCH  26  28
ENDBRANCH  14  26
ENDBRANCH   1  13
BRANCH   8  30
HETATM   30  S1  UNL     1      42.610  52.998   1.643  1.00  0.00     0.289 S
HETATM   31  O4  UNL     1      43.406  53.969   0.841  1.00  0.00    -0.198 OA
HETATM   32  O5  UNL     1      41.182  53.481   1.663  1.00  0.00    -0.198 OA
BRANCH  30  33
HETATM   33  N6  UNL     1      42.583  51.427   0.901  1.00  0.00    -0.322 N
ATOM     34  H62 UNL     1      42.921  51.213  -0.037  1.00  0.00     0.169 HD
ATOM     35  H61 UNL     1      42.175  50.772   1.568  1.00  0.00     0.169 HD
ENDBRANCH  30  33
ENDBRANCH   8  30
TORSDOF 11
ENDMDL