MODEL 5
REMARK VINA RESULT: -8.310734928      2.616      3.987
REMARK  9 active torsions:
REMARK  status: ('A' for Active; 'I' for Inactive)
REMARK    1  A    between atoms: O1_2  and  N1_3
REMARK    2  A    between atoms: C2_5  and  C3_6
REMARK    3  A    between atoms: C2_5  and  C6_15
REMARK    4  A    between atoms: C5_9  and  N2_10
REMARK    5  A    between atoms: C6_15  and  O2_16
REMARK    6  A    between atoms: C6_15  and  N4_18
REMARK    7  A    between atoms: N4_18  and  S2_20
REMARK    8  A    between atoms: S2_20  and  C7_23
REMARK    9  A    between atoms: C7_23  and  N5_24
ROOT
HETATM    1  C6  UNL     1      44.471  49.916   8.488  1.00  0.00     0.283 C
ENDROOT
BRANCH   1   2
HETATM    2  C2  UNL     1      43.779  51.275   8.365  1.00  0.00     0.108 C
HETATM    3  N1  UNL     1      43.228  51.717   9.397  1.00  0.00    -0.265 N
ATOM      4  H1  UNL     1      43.328  51.090  10.195  1.00  0.00     0.194 HD
BRANCH   3   5
HETATM    5  O1  UNL     1      42.540  52.819   9.697  1.00  0.00    -0.285 OA
HETATM    6  C1  UNL     1      42.479  53.339  11.020  1.00  0.00     0.237 C
ENDBRANCH   3   5
BRANCH   2   7
HETATM    7  C3  UNL     1      43.824  51.933   7.034  1.00  0.00     0.070 A
HETATM    8  C4  UNL     1      42.699  52.005   6.245  1.00  0.00     0.085 A
HETATM    9  S1  UNL     1      43.270  52.835   4.866  1.00  0.00    -0.064 SA
HETATM   10  C5  UNL     1      44.881  53.044   5.357  1.00  0.00     0.142 A
HETATM   11  N3  UNL     1      44.916  52.467   6.560  1.00  0.00    -0.335 N
ATOM     12  H3  UNL     1      45.781  52.444   7.100  1.00  0.00     0.168 HD
BRANCH  10  13
HETATM   13  N2  UNL     1      45.865  53.633   4.709  1.00  0.00    -0.380 N
ATOM     14  H22 UNL     1      46.865  53.581   4.903  1.00  0.00     0.158 HD
ATOM     15  H21 UNL     1      45.813  54.249   3.898  1.00  0.00     0.158 HD
ENDBRANCH  10  13
ENDBRANCH   2   7
ENDBRANCH   1   2
BRANCH   1  16
HETATM   16  O2  UNL     1      45.717  50.121   7.932  1.00  0.00    -0.370 OA
ATOM     17  H2  UNL     1      45.534  50.536   7.097  1.00  0.00     0.212 HD
ENDBRANCH   1  16
BRANCH   1  18
HETATM   18  N4  UNL     1      43.676  48.904   7.894  1.00  0.00    -0.282 N
ATOM     19  H4  UNL     1      42.992  49.124   7.172  1.00  0.00     0.175 HD
BRANCH  18  20
HETATM   20  S2  UNL     1      43.908  47.322   8.430  1.00  0.00     0.266 S
HETATM   21  O3  UNL     1      43.870  47.372   9.966  1.00  0.00    -0.200 OA
HETATM   22  O4  UNL     1      42.689  46.473   8.087  1.00  0.00    -0.200 OA
BRANCH  20  23
HETATM   23  C7  UNL     1      45.390  46.516   8.009  1.00  0.00     0.231 C
BRANCH  23  24
HETATM   24  N5  UNL     1      45.943  45.623   8.979  1.00  0.00    -0.273 N
HETATM   25  C8  UNL     1      46.960  46.051   9.795  1.00  0.00     0.107 A
HETATM   26  C9  UNL     1      47.522  45.264  10.772  1.00  0.00     0.092 A
HETATM   27  C10 UNL     1      47.064  43.980  10.970  1.00  0.00     0.250 A
HETATM   28  O5  UNL     1      47.543  43.220  11.849  1.00  0.00    -0.268 OA
HETATM   29  N6  UNL     1      46.071  43.576  10.165  1.00  0.00    -0.275 N
HETATM   30  C11 UNL     1      45.524  44.377   9.195  1.00  0.00     0.333 A
ATOM     31  H6  UNL     1      45.706  42.630  10.279  1.00  0.00     0.173 HD
HETATM   32  O6  UNL     1      44.596  43.923   8.475  1.00  0.00    -0.246 OA
ENDBRANCH  23  24
ENDBRANCH  20  23
ENDBRANCH  18  20
ENDBRANCH   1  18
TORSDOF 9
ENDMDL