MODEL 2
REMARK VINA RESULT: -7.525318790      1.303      1.774
REMARK  12 active torsions:
REMARK  status: ('A' for Active; 'I' for Inactive)
REMARK    1  A    between atoms: O1_2  and  C2_3
REMARK    2  A    between atoms: C2_3  and  C3_5
REMARK    3  A    between atoms: C4_6  and  C5_7
REMARK    4  A    between atoms: C6_12  and  C7_13
REMARK    5  A    between atoms: C7_13  and  C9_15
REMARK    6  A    between atoms: C9_15  and  N3_20
REMARK    7  A    between atoms: N2_16  and  O5_18
REMARK    8  A    between atoms: N3_20  and  C11_22
REMARK    9  A    between atoms: C11_22  and  C13_24
REMARK   10  A    between atoms: C13_24  and  O6_25
REMARK   11  A    between atoms: C13_24  and  C14_27
REMARK   12  A    between atoms: C14_27  and  O7_30
ROOT
HETATM    1  C9  UNL     1      44.205  52.063   6.231  1.00  0.00     0.107 C
HETATM    2  N2  UNL     1      45.032  53.060   6.366  1.00  0.00    -0.257 N
ATOM      3  H2  UNL     1      45.221  53.439   7.294  1.00  0.00     0.195 HD
ENDROOT
BRANCH   1   4
HETATM    4  C7  UNL     1      43.524  51.456   7.376  1.00  0.00     0.093 C
HETATM    5  C8  UNL     1      43.530  52.432   8.527  1.00  0.00     0.022 C
BRANCH   4   6
HETATM    6  C6  UNL     1      44.212  50.204   7.857  1.00  0.00     0.193 C
HETATM    7  N1  UNL     1      44.081  50.119   9.291  1.00  0.00    -0.361 N
HETATM    8  C4  UNL     1      44.288  48.696   9.571  1.00  0.00     0.140 C
ATOM      9  H1  UNL     1      43.890  50.871   9.952  1.00  0.00     0.162 HD
HETATM   10  C3  UNL     1      44.011  48.005   8.489  1.00  0.00     0.139 C
HETATM   11  N4  UNL     1      43.603  48.979   7.467  1.00  0.00    -0.361 N
ATOM     12  H4  UNL     1      43.012  48.812   6.653  1.00  0.00     0.162 HD
BRANCH   8  13
HETATM   13  C5  UNL     1      44.734  48.229  10.876  1.00  0.00     0.229 C
HETATM   14  O3  UNL     1      45.869  47.817  11.146  1.00  0.00    -0.643 OA
HETATM   15  O4  UNL     1      43.828  48.229  11.966  1.00  0.00    -0.643 OA
ENDBRANCH   8  13
BRANCH  10  16
HETATM   16  C2  UNL     1      44.058  46.573   8.241  1.00  0.00     0.311 C
HETATM   17  O2  UNL     1      43.087  45.911   7.907  1.00  0.00    -0.258 OA
BRANCH  16  18
HETATM   18  O1  UNL     1      45.253  45.856   8.374  1.00  0.00    -0.321 OA
HETATM   19  C1  UNL     1      45.327  44.642   9.089  1.00  0.00     0.213 C
ENDBRANCH  16  18
ENDBRANCH  10  16
ENDBRANCH   4   6
ENDBRANCH   1   4
BRANCH   1  20
HETATM   20  N3  UNL     1      44.021  51.615   4.879  1.00  0.00    -0.366 N
HETATM   21  C10 UNL     1      44.994  50.671   4.406  1.00  0.00     0.151 C
BRANCH  20  22
HETATM   22  C11 UNL     1      42.917  52.129   4.168  1.00  0.00     0.112 C
HETATM   23  C12 UNL     1      42.061  52.983   5.115  1.00  0.00     0.035 C
BRANCH  22  24
HETATM   24  C13 UNL     1      43.115  52.906   2.925  1.00  0.00     0.174 C
BRANCH  24  25
HETATM   25  O6  UNL     1      44.390  53.381   2.677  1.00  0.00    -0.391 OA
ATOM     26  H6  UNL     1      44.618  53.552   1.771  1.00  0.00     0.210 HD
ENDBRANCH  24  25
BRANCH  24  27
HETATM   27  C14 UNL     1      42.407  52.369   1.703  1.00  0.00     0.078 C
HETATM   28  C15 UNL     1      42.101  53.551   0.740  1.00  0.00     0.048 C
HETATM   29  C16 UNL     1      43.177  51.391   0.892  1.00  0.00     0.048 C
BRANCH  27  30
HETATM   30  O7  UNL     1      41.127  51.900   2.028  1.00  0.00    -0.388 OA
ATOM     31  H7  UNL     1      40.631  51.689   1.245  1.00  0.00     0.210 HD
ENDBRANCH  27  30
ENDBRANCH  24  27
ENDBRANCH  22  24
ENDBRANCH  20  22
ENDBRANCH   1  20
BRANCH   2  32
HETATM   32  O5  UNL     1      45.640  53.591   5.291  1.00  0.00    -0.288 OA
ATOM     33  H5  UNL     1      46.339  53.121   4.851  1.00  0.00     0.244 HD
ENDBRANCH   2  32
TORSDOF 12
ENDMDL