MODEL 4
REMARK VINA RESULT: -9.284632725      2.026      3.031
REMARK  9 active torsions:
REMARK  status: ('A' for Active; 'I' for Inactive)
REMARK       I    between atoms: C1_2  and  N1_3
REMARK    1  A    between atoms: C1_2  and  C9_17
REMARK    2  A    between atoms: N1_3  and  N2_5
REMARK    3  A    between atoms: C2_7  and  C3_8
REMARK    4  A    between atoms: C8_13  and  N3_14
REMARK       I    between atoms: C9_17  and  N4_19
REMARK    5  A    between atoms: N4_19  and  N5_21
REMARK    6  A    between atoms: C10_23  and  C11_24
REMARK    7  A    between atoms: C12_25  and  O5_26
REMARK    8  A    between atoms: N7_32  and  C14_33
REMARK    9  A    between atoms: C14_33  and  O7_34
ROOT
HETATM    1  C9  UNL     1      43.843  51.034   6.748  1.00  0.00     0.329 C
HETATM    2  O4  UNL     1      44.661  50.520   5.953  1.00  0.00    -0.261 OA
HETATM    3  N4  UNL     1      42.803  51.842   6.233  1.00  0.00    -0.262 N
ATOM      4  H4  UNL     1      42.135  52.262   6.878  1.00  0.00     0.190 HD
ENDROOT
BRANCH   1   5
HETATM    5  C1  UNL     1      43.950  50.814   8.163  1.00  0.00     0.329 C
HETATM    6  O1  UNL     1      44.183  51.770   8.931  1.00  0.00    -0.261 OA
HETATM    7  N1  UNL     1      43.793  49.516   8.696  1.00  0.00    -0.262 N
ATOM      8  H1  UNL     1      43.603  48.737   8.066  1.00  0.00     0.190 HD
BRANCH   7   9
HETATM    9  N2  UNL     1      43.889  49.286  10.012  1.00  0.00    -0.308 N
HETATM   10  C2  UNL     1      44.478  48.459  10.720  1.00  0.00     0.121 C
ATOM     11  H2  UNL     1      43.347  49.953  10.562  1.00  0.00     0.186 HD
BRANCH  10  12
HETATM   12  C3  UNL     1      45.349  47.345  10.383  1.00  0.00     0.014 A
HETATM   13  C4  UNL     1      45.270  46.742   9.131  1.00  0.00     0.015 A
HETATM   14  C5  UNL     1      46.120  45.708   8.742  1.00  0.00     0.001 A
HETATM   15  C6  UNL     1      47.058  45.293   9.651  1.00  0.00     0.002 A
HETATM   16  C7  UNL     1      47.137  45.879  10.877  1.00  0.00     0.037 A
HETATM   17  C8  UNL     1      46.293  46.923  11.298  1.00  0.00     0.114 A
BRANCH  17  18
HETATM   18  N3  UNL     1      46.485  47.438  12.605  1.00  0.00    -0.115 N
HETATM   19  O2  UNL     1      47.655  47.894  12.840  1.00  0.00    -0.532 OA
HETATM   20  O3  UNL     1      45.622  47.522  13.636  1.00  0.00    -0.532 OA
ENDBRANCH  17  18
ENDBRANCH  10  12
ENDBRANCH   7   9
ENDBRANCH   1   5
BRANCH   3  21
HETATM   21  N5  UNL     1      42.669  52.078   4.870  1.00  0.00    -0.307 N
HETATM   22  C10 UNL     1      42.064  53.110   4.410  1.00  0.00     0.141 C
ATOM     23  H5  UNL     1      43.066  51.407   4.212  1.00  0.00     0.186 HD
BRANCH  22  24
HETATM   24  C11 UNL     1      41.947  53.317   2.976  1.00  0.00     0.108 A
HETATM   25  C12 UNL     1      41.033  54.186   2.365  1.00  0.00     0.173 A
HETATM   26  N6  UNL     1      41.182  54.140   1.041  1.00  0.00    -0.287 N
HETATM   27  C13 UNL     1      42.170  53.262   0.816  1.00  0.00     0.331 A
ATOM     28  H6  UNL     1      40.654  54.665   0.343  1.00  0.00     0.172 HD
HETATM   29  O6  UNL     1      42.612  52.939  -0.323  1.00  0.00    -0.246 OA
HETATM   30  N7  UNL     1      42.640  52.758   1.972  1.00  0.00    -0.272 N
BRANCH  25  31
HETATM   31  O5  UNL     1      40.108  54.979   3.041  1.00  0.00    -0.344 OA
ATOM     32  H5  UNL     1      40.148  55.926   3.111  1.00  0.00     0.219 HD
ENDBRANCH  25  31
BRANCH  30  33
HETATM   33  C14 UNL     1      43.718  51.792   2.053  1.00  0.00     0.300 C
BRANCH  33  34
HETATM   34  O7  UNL     1      43.418  50.642   1.331  1.00  0.00    -0.382 OA
ATOM     35  H7  UNL     1      43.174  50.850   0.437  1.00  0.00     0.211 HD
ENDBRANCH  33  34
ENDBRANCH  30  33
ENDBRANCH  22  24
ENDBRANCH   3  21
TORSDOF 9
ENDMDL