MODEL 5
REMARK VINA RESULT: -8.352414513      2.021      2.447
REMARK  11 active torsions:
REMARK  status: ('A' for Active; 'I' for Inactive)
REMARK    1  A    between atoms: O1_2  and  C2_3
REMARK    2  A    between atoms: C2_3  and  C3_5
REMARK    3  A    between atoms: C3_5  and  C4_6
REMARK    4  A    between atoms: C3_5  and  C10_20
REMARK    5  A    between atoms: C4_6  and  N1_7
REMARK    6  A    between atoms: N1_7  and  C5_9
REMARK    7  A    between atoms: N3_17  and  O4_18
REMARK    8  A    between atoms: C10_20  and  C11_21
REMARK    9  A    between atoms: C11_21  and  C12_23
REMARK   10  A    between atoms: C13_24  and  O6_25
REMARK   11  A    between atoms: C14_29  and  N5_30
ROOT
HETATM    1  C3  UNL     1      44.970  51.620   6.264  1.00  0.00     0.131 C
ENDROOT
BRANCH   1   2
HETATM    2  C2  UNL     1      43.701  51.794   7.099  1.00  0.00     0.268 C
HETATM    3  O2  UNL     1      42.628  51.533   6.547  1.00  0.00    -0.264 OA
BRANCH   2   4
HETATM    4  O1  UNL     1      43.747  52.219   8.400  1.00  0.00    -0.326 OA
HETATM    5  C1  UNL     1      42.593  52.551   9.157  1.00  0.00     0.213 C
ENDBRANCH   2   4
ENDBRANCH   1   2
BRANCH   1   6
HETATM    6  C4  UNL     1      45.691  50.554   7.097  1.00  0.00     0.077 C
BRANCH   6   7
HETATM    7  N1  UNL     1      44.940  49.496   7.579  1.00  0.00    -0.353 N
ATOM      8  H1  UNL     1      44.021  49.381   7.152  1.00  0.00     0.166 HD
BRANCH   7   9
HETATM    9  C5  UNL     1      45.233  48.649   8.478  1.00  0.00     0.139 A
HETATM   10  C6  UNL     1      46.111  47.588   8.196  1.00  0.00     0.075 A
HETATM   11  C7  UNL     1      46.433  46.664   9.167  1.00  0.00     0.013 A
HETATM   12  C8  UNL     1      47.358  45.533   8.896  1.00  0.00     0.068 C
HETATM   13  N2  UNL     1      45.907  46.770  10.401  1.00  0.00    -0.311 N
HETATM   14  C9  UNL     1      45.062  47.788  10.682  1.00  0.00     0.352 A
ATOM     15  H2  UNL     1      46.145  46.088  11.120  1.00  0.00     0.170 HD
HETATM   16  O3  UNL     1      44.568  47.892  11.834  1.00  0.00    -0.244 OA
HETATM   17  N3  UNL     1      44.754  48.685   9.723  1.00  0.00    -0.155 N
BRANCH  17  18
HETATM   18  O4  UNL     1      43.892  49.681  10.089  1.00  0.00    -0.277 OA
ATOM     19  H4  UNL     1      43.434  49.627  10.920  1.00  0.00     0.245 HD
ENDBRANCH  17  18
ENDBRANCH   7   9
ENDBRANCH   6   7
ENDBRANCH   1   6
BRANCH   1  20
HETATM   20  C10 UNL     1      44.556  51.159   4.906  1.00  0.00     0.104 C
BRANCH  20  21
HETATM   21  C11 UNL     1      44.342  52.167   3.879  1.00  0.00     0.170 C
HETATM   22  O5  UNL     1      45.244  53.039   3.620  1.00  0.00    -0.292 OA
BRANCH  21  23
HETATM   23  C12 UNL     1      43.134  52.281   3.077  1.00  0.00     0.129 A
HETATM   24  C13 UNL     1      42.899  51.586   1.919  1.00  0.00     0.174 A
HETATM   25  N4  UNL     1      41.741  51.759   1.210  1.00  0.00    -0.170 N
HETATM   26  C14 UNL     1      40.801  52.618   1.633  1.00  0.00     0.680 A
ATOM     27  H4  UNL     1      41.592  51.230   0.351  1.00  0.00     0.186 HD
HETATM   28  N6  UNL     1      40.987  53.312   2.751  1.00  0.00    -0.155 N
HETATM   29  C15 UNL     1      42.127  53.151   3.460  1.00  0.00     0.277 A
ATOM     30  H6  UNL     1      40.272  53.965   3.072  1.00  0.00     0.187 HD
HETATM   31  O7  UNL     1      42.256  53.823   4.500  1.00  0.00    -0.266 OA
BRANCH  24  32
HETATM   32  O6  UNL     1      43.847  50.696   1.463  1.00  0.00    -0.345 OA
ATOM     33  H6  UNL     1      43.565  49.899   1.029  1.00  0.00     0.219 HD
ENDBRANCH  24  32
BRANCH  26  34
HETATM   34  N5  UNL     1      39.726  52.744   0.928  1.00  0.00    -0.234 N
ATOM     35  H52 UNL     1      39.747  52.707  -0.091  1.00  0.00     0.174 HD
ATOM     36  H51 UNL     1      38.842  52.883   1.416  1.00  0.00     0.174 HD
ENDBRANCH  26  34
ENDBRANCH  21  23
ENDBRANCH  20  21
ENDBRANCH   1  20
TORSDOF 11
ENDMDL