MODEL 4
REMARK VINA RESULT: -7.447848531      4.048      6.688
REMARK  6 active torsions:
REMARK  status: ('A' for Active; 'I' for Inactive)
REMARK    1  A    between atoms: C2_2  and  C3_4
REMARK    2  A    between atoms: C3_4  and  N1_5
REMARK    3  A    between atoms: C3_4  and  C4_9
REMARK       I    between atoms: C4_9  and  N2_11
REMARK       I    between atoms: N2_11  and  C5_13
REMARK       I    between atoms: C5_13  and  N3_14
REMARK       I    between atoms: C5_13  and  N4_18
REMARK       I    between atoms: N4_18  and  C6_20
REMARK    4  A    between atoms: C6_20  and  C7_22
REMARK    5  A    between atoms: N5_26  and  N6_27
REMARK       I    between atoms: N6_27  and  C10_28
REMARK    6  A    between atoms: C10_28  and  C11_30
ROOT
HETATM    1  C4  UNL     1      45.103  51.539   5.277  1.00  0.00     0.258 C
HETATM    2  O2  UNL     1      45.141  51.032   4.138  1.00  0.00    -0.271 OA
HETATM    3  N2  UNL     1      46.015  52.541   5.676  1.00  0.00    -0.315 N
ATOM      4  H2  UNL     1      45.935  52.947   6.609  1.00  0.00     0.166 HD
HETATM    5  C5  UNL     1      47.036  52.993   4.812  1.00  0.00     0.391 C
HETATM    6  N3  UNL     1      48.313  52.477   5.426  1.00  0.00    -0.040 N
ATOM      7  H31 UNL     1      49.050  52.803   4.802  1.00  0.00     0.279 HD
ATOM      8  H32 UNL     1      48.320  51.469   5.584  1.00  0.00     0.279 HD
ATOM      9  H33 UNL     1      48.444  52.748   6.400  1.00  0.00     0.279 HD
HETATM   10  N4  UNL     1      47.185  54.421   4.713  1.00  0.00    -0.316 N
ATOM     11  H4  UNL     1      46.372  54.981   4.970  1.00  0.00     0.166 HD
HETATM   12  C6  UNL     1      48.334  55.132   4.298  1.00  0.00     0.246 C
HETATM   13  O3  UNL     1      49.358  54.460   3.980  1.00  0.00    -0.271 OA
ENDROOT
BRANCH   1  14
HETATM   14  C3  UNL     1      44.014  51.029   6.211  1.00  0.00     0.343 C
BRANCH  14  15
HETATM   15  C2  UNL     1      44.264  51.342   7.615  1.00  0.00     0.162 C
HETATM   16  C1  UNL     1      43.340  52.196   8.475  1.00  0.00     0.093 C
HETATM   17  O1  UNL     1      45.259  50.916   8.168  1.00  0.00    -0.296 OA
ENDBRANCH  14  15
BRANCH  14  18
HETATM   18  N1  UNL     1      42.751  51.584   5.777  1.00  0.00    -0.060 N
ATOM     19  H13 UNL     1      42.002  51.377   6.437  1.00  0.00     0.275 HD
ATOM     20  H12 UNL     1      42.742  52.601   5.847  1.00  0.00     0.275 HD
ATOM     21  H11 UNL     1      42.521  51.269   4.835  1.00  0.00     0.275 HD
ENDBRANCH  14  18
ENDBRANCH   1  14
BRANCH  12  22
HETATM   22  C7  UNL     1      48.338  56.577   4.245  1.00  0.00     0.217 C
HETATM   23  C8  UNL     1      48.171  57.147   2.826  1.00  0.00     0.113 C
HETATM   24  S1  UNL     1      49.913  57.374   2.349  1.00  0.00    -0.144 SA
HETATM   25  C9  UNL     1      50.625  57.116   4.031  1.00  0.00     0.231 C
HETATM   26  N5  UNL     1      49.439  57.281   4.789  1.00  0.00    -0.236 N
BRANCH  26  27
HETATM   27  N6  UNL     1      49.292  58.314   5.552  1.00  0.00    -0.280 NA
HETATM   28  C10 UNL     1      49.138  59.392   6.346  1.00  0.00     0.368 C
HETATM   29  O4  UNL     1      48.226  60.293   6.317  1.00  0.00    -0.247 OA
BRANCH  28  30
HETATM   30  C11 UNL     1      50.086  59.695   7.494  1.00  0.00     0.153 A
HETATM   31  C12 UNL     1      51.399  59.278   7.600  1.00  0.00     0.042 A
HETATM   32  C13 UNL     1      51.930  59.749   8.768  1.00  0.00     0.003 A
HETATM   33  C14 UNL     1      50.849  60.470   9.353  1.00  0.00     0.203 A
HETATM   34  O5  UNL     1      49.804  60.395   8.550  1.00  0.00    -0.341 OA
ENDBRANCH  28  30
ENDBRANCH  26  27
ENDBRANCH  12  22
TORSDOF 6
ENDMDL