MODEL 1
REMARK VINA RESULT: -6.614181809      0.000      0.000
REMARK  8 active torsions:
REMARK  status: ('A' for Active; 'I' for Inactive)
REMARK    1  A    between atoms: C2_2  and  C3_3
REMARK    2  A    between atoms: C3_3  and  N1_4
REMARK    3  A    between atoms: C4_5  and  N2_6
REMARK    4  A    between atoms: N2_6  and  C5_8
REMARK    5  A    between atoms: C5_8  and  C6_9
REMARK    6  A    between atoms: C6_9  and  C7_10
REMARK    7  A    between atoms: C7_10  and  O1_11
REMARK    8  A    between atoms: C8_13  and  N3_14
ROOT
HETATM    1  N1  UNL     1      48.445  59.026   3.068  1.00  0.00    -0.281 N
HETATM    2  C4  UNL     1      49.516  58.305   3.562  1.00  0.00     0.150 A
HETATM    3  C8  UNL     1      50.252  58.961   4.496  1.00  0.00     0.214 A
HETATM    4  C9  UNL     1      49.969  60.268   4.944  1.00  0.00     0.286 A
HETATM    5  O4  UNL     1      50.676  60.834   5.811  1.00  0.00    -0.265 OA
HETATM    6  N4  UNL     1      48.931  60.891   4.423  1.00  0.00    -0.273 N
ATOM      7  H4  UNL     1      48.699  61.838   4.724  1.00  0.00     0.173 HD
HETATM    8  C10 UNL     1      48.179  60.276   3.495  1.00  0.00     0.331 A
HETATM    9  O5  UNL     1      47.221  60.968   3.069  1.00  0.00    -0.246 OA
ENDROOT
BRANCH   1  10
HETATM   10  C3  UNL     1      47.551  58.486   2.103  1.00  0.00     0.164 C
BRANCH  10  11
HETATM   11  C2  UNL     1      47.750  58.838   0.670  1.00  0.00     0.135 C
HETATM   12  C1  UNL     1      46.709  59.779   0.089  1.00  0.00     0.037 C
HETATM   13  C11 UNL     1      49.054  59.364   0.278  1.00  0.00     0.245 C
HETATM   14  O6  UNL     1      49.267  60.623   0.192  1.00  0.00    -0.272 OA
HETATM   15  N5  UNL     1      50.200  58.550  -0.043  1.00  0.00    -0.278 N
HETATM   16  C12 UNL     1      49.955  57.202  -0.383  1.00  0.00     0.329 C
ATOM     17  H5  UNL     1      51.146  58.931  -0.026  1.00  0.00     0.173 HD
HETATM   18  O7  UNL     1      50.906  56.436  -0.672  1.00  0.00    -0.247 OA
HETATM   19  N6  UNL     1      48.619  56.720  -0.395  1.00  0.00    -0.278 N
HETATM   20  C13 UNL     1      47.543  57.551  -0.080  1.00  0.00     0.245 C
ATOM     21  H6  UNL     1      48.442  55.746  -0.640  1.00  0.00     0.173 HD
HETATM   22  O8  UNL     1      46.386  57.245  -0.412  1.00  0.00    -0.272 OA
ENDBRANCH  10  11
ENDBRANCH   1  10
BRANCH   2  23
HETATM   23  N2  UNL     1      49.835  57.044   3.063  1.00  0.00    -0.353 N
ATOM     24  H2  UNL     1      50.553  57.095   2.339  1.00  0.00     0.166 HD
BRANCH  23  25
HETATM   25  C5  UNL     1      49.427  55.726   3.294  1.00  0.00     0.065 C
BRANCH  25  26
HETATM   26  C6  UNL     1      48.570  55.482   4.519  1.00  0.00     0.070 C
BRANCH  26  27
HETATM   27  C7  UNL     1      48.362  53.978   4.581  1.00  0.00     0.169 C
BRANCH  27  28
HETATM   28  O1  UNL     1      49.166  53.353   3.599  1.00  0.00    -0.401 OA
ATOM     29  H1  UNL     1      49.967  53.039   4.001  1.00  0.00     0.209 HD
ENDBRANCH  27  28
ENDBRANCH  26  27
ENDBRANCH  25  26
ENDBRANCH  23  25
ENDBRANCH   2  23
BRANCH   3  30
HETATM   30  N3  UNL     1      51.422  58.448   5.086  1.00  0.00    -0.106 N
HETATM   31  O2  UNL     1      51.360  57.464   5.829  1.00  0.00    -0.531 OA
HETATM   32  O3  UNL     1      52.634  58.987   4.787  1.00  0.00    -0.531 OA
ENDBRANCH   3  30
TORSDOF 8
ENDMDL