MODEL 5
REMARK VINA RESULT: -9.329288267      1.409      1.679
REMARK  6 active torsions:
REMARK  status: ('A' for Active; 'I' for Inactive)
REMARK    1  A    between atoms: C1_4  and  N2_5
REMARK    2  A    between atoms: C1_4  and  C7_14
REMARK    3  A    between atoms: N2_5  and  C2_6
REMARK    4  A    between atoms: C12_19  and  S1_20
REMARK    5  A    between atoms: S1_20  and  N5_23
REMARK    6  A    between atoms: N5_23  and  C13_25
ROOT
HETATM    1  C7  UNL     1     -11.198   0.131 -10.170  1.00  0.00     0.045 A
HETATM    2  C8  UNL     1     -11.009   1.193  -9.246  1.00  0.00     0.018 A
HETATM    3  C9  UNL     1     -11.388   2.492  -9.436  1.00  0.00     0.001 A
HETATM    4  C10 UNL     1     -11.999   2.811 -10.611  1.00  0.00     0.002 A
HETATM    5  C11 UNL     1     -12.225   1.856 -11.562  1.00  0.00     0.026 A
HETATM    6  C12 UNL     1     -11.826   0.536 -11.327  1.00  0.00     0.094 A
ENDROOT
BRANCH   6   7
HETATM    7  S1  UNL     1     -12.213  -0.606 -12.552  1.00  0.00     0.264 S
HETATM    8  O1  UNL     1     -13.109   0.097 -13.577  1.00  0.00    -0.200 OA
HETATM    9  O2  UNL     1     -12.949  -1.806 -12.046  1.00  0.00    -0.200 OA
BRANCH   7  10
HETATM   10  N5  UNL     1     -10.861  -1.250 -13.440  1.00  0.00    -0.280 N
ATOM     11  H5  UNL     1      -9.953  -1.168 -12.983  1.00  0.00     0.179 HD
BRANCH  10  12
HETATM   12  C13 UNL     1     -10.853  -1.859 -14.684  1.00  0.00     0.053 A
HETATM   13  C14 UNL     1     -11.205  -1.357 -15.874  1.00  0.00     0.031 A
HETATM   14  C15 UNL     1     -11.140  -2.067 -17.084  1.00  0.00     0.003 A
HETATM   15  C16 UNL     1     -10.692  -3.348 -17.089  1.00  0.00     0.012 A
HETATM   16  C17 UNL     1     -10.318  -3.907 -15.900  1.00  0.00    -0.024 A
HETATM   17  C18 UNL     1      -9.854  -5.220 -15.947  1.00  0.00     0.012 A
HETATM   18  C22 UNL     1     -10.385  -3.208 -14.720  1.00  0.00     0.001 A
HETATM   19  C19 UNL     1      -9.456  -5.830 -14.800  1.00  0.00     0.001 A
HETATM   20  C20 UNL     1      -9.520  -5.132 -13.612  1.00  0.00     0.001 A
HETATM   21  C21 UNL     1      -9.984  -3.813 -13.552  1.00  0.00     0.014 A
ENDBRANCH  10  12
ENDBRANCH   7  10
ENDBRANCH   6   7
BRANCH   1  22
HETATM   22  C1  UNL     1     -10.558  -1.109  -9.866  1.00  0.00     0.185 C
HETATM   23  N1  UNL     1     -11.059  -1.734  -8.764  1.00  0.00    -0.373 N
ATOM     24  H12 UNL     1     -10.602  -2.620  -8.547  1.00  0.00     0.158 HD
ATOM     25  H11 UNL     1     -11.883  -1.234  -8.430  1.00  0.00     0.158 HD
BRANCH  22  26
HETATM   26  N2  UNL     1      -9.489  -1.758 -10.300  1.00  0.00    -0.385 NA
BRANCH  26  27
HETATM   27  C2  UNL     1      -8.557  -2.362 -10.701  1.00  0.00     0.136 A
HETATM   28  C3  UNL     1      -8.230  -3.640 -10.220  1.00  0.00     0.064 A
HETATM   29  C4  UNL     1      -7.147  -4.327 -10.719  1.00  0.00     0.091 A
HETATM   30  N3  UNL     1      -6.381  -3.787 -11.678  1.00  0.00    -0.373 N
HETATM   31  C5  UNL     1      -6.632  -2.577 -12.182  1.00  0.00     0.117 A
ATOM     32  H3  UNL     1      -5.583  -4.315 -12.032  1.00  0.00     0.164 HD
HETATM   33  C6  UNL     1      -7.717  -1.866 -11.697  1.00  0.00     0.102 A
HETATM   34  N4  UNL     1      -7.980  -0.588 -12.259  1.00  0.00    -0.097 NA
ENDBRANCH  26  27
ENDBRANCH  22  26
ENDBRANCH   1  22
TORSDOF 6
ENDMDL