MODEL 4
REMARK VINA RESULT: -9.339243400      2.297      9.427
REMARK  5 active torsions:
REMARK  status: ('A' for Active; 'I' for Inactive)
REMARK    1  A    between atoms: N1_1  and  C1_4
REMARK    2  A    between atoms: C3_8  and  C4_9
REMARK    3  A    between atoms: C7_12  and  C8_13
REMARK    4  A    between atoms: N5_27  and  C17_28
REMARK    5  A    between atoms: C17_28  and  C18_29
ROOT
HETATM    1  C1  UNL     1     -11.423   1.985  -9.556  1.00  0.00     0.168 A
HETATM    2  N2  UNL     1     -10.152   1.540  -9.558  1.00  0.00    -0.346 N
ATOM      3  H2  UNL     1      -9.415   2.064  -9.085  1.00  0.00     0.167 HD
HETATM    4  C2  UNL     1      -9.879   0.401 -10.189  1.00  0.00     0.120 A
HETATM    5  C3  UNL     1     -10.842  -0.351 -10.847  1.00  0.00     0.063 A
HETATM    6  N5  UNL     1     -12.109   0.089 -10.844  1.00  0.00    -0.305 N
HETATM    7  C24 UNL     1     -12.386   1.257 -10.197  1.00  0.00     0.292 A
HETATM    8  O2  UNL     1     -13.580   1.725 -10.168  1.00  0.00    -0.264 OA
ENDROOT
BRANCH   5   9
HETATM    9  C4  UNL     1     -10.442  -1.520 -11.614  1.00  0.00    -0.008 A
HETATM   10  C5  UNL     1      -9.872  -1.425 -12.827  1.00  0.00     0.014 A
HETATM   11  C6  UNL     1      -9.529  -2.584 -13.507  1.00  0.00     0.014 A
HETATM   12  C7  UNL     1      -9.750  -3.842 -12.985  1.00  0.00    -0.009 A
HETATM   13  C15 UNL     1     -10.332  -3.927 -11.748  1.00  0.00     0.014 A
HETATM   14  C16 UNL     1     -10.680  -2.784 -11.058  1.00  0.00     0.014 A
BRANCH  12  15
HETATM   15  C8  UNL     1      -9.383  -5.059 -13.715  1.00  0.00     0.044 A
HETATM   16  C9  UNL     1      -8.834  -6.191 -13.150  1.00  0.00     0.045 A
HETATM   17  C10 UNL     1      -8.610  -7.146 -14.116  1.00  0.00     0.010 A
HETATM   18  C11 UNL     1      -8.089  -8.433 -14.094  1.00  0.00     0.021 A
HETATM   19  C14 UNL     1      -9.037  -6.570 -15.298  1.00  0.00     0.118 A
HETATM   20  C12 UNL     1      -8.014  -9.110 -15.281  1.00  0.00     0.075 A
HETATM   21  C13 UNL     1      -8.438  -8.540 -16.465  1.00  0.00     0.246 A
HETATM   22  O1  UNL     1      -8.359  -9.189 -17.564  1.00  0.00    -0.268 OA
HETATM   23  N3  UNL     1      -8.932  -7.296 -16.426  1.00  0.00    -0.309 N
ATOM     24  H3  UNL     1      -9.248  -6.875 -17.300  1.00  0.00     0.170 HD
HETATM   25  N4  UNL     1      -9.494  -5.318 -15.023  1.00  0.00    -0.341 N
ATOM     26  H4  UNL     1      -9.869  -4.670 -15.716  1.00  0.00     0.167 HD
ENDBRANCH  12  15
ENDBRANCH   5   9
BRANCH   6  27
HETATM   27  C17 UNL     1     -13.229  -0.594 -11.416  1.00  0.00     0.171 C
BRANCH  27  28
HETATM   28  C18 UNL     1     -13.286  -0.422 -12.888  1.00  0.00    -0.040 A
HETATM   29  C19 UNL     1     -13.124  -1.558 -13.709  1.00  0.00     0.009 A
HETATM   30  C20 UNL     1     -13.146  -1.482 -15.067  1.00  0.00     0.001 A
HETATM   31  C21 UNL     1     -13.329  -0.257 -15.687  1.00  0.00     0.000 A
HETATM   32  C22 UNL     1     -13.491   0.873 -14.929  1.00  0.00     0.001 A
HETATM   33  C23 UNL     1     -13.465   0.768 -13.537  1.00  0.00     0.009 A
ENDBRANCH  27  28
ENDBRANCH   6  27
BRANCH   1  34
HETATM   34  N1  UNL     1     -11.761   3.084  -8.963  1.00  0.00    -0.381 N
ATOM     35  H12 UNL     1     -11.718   3.127  -7.945  1.00  0.00     0.157 HD
ATOM     36  H11 UNL     1     -12.069   3.905  -9.484  1.00  0.00     0.157 HD
ENDBRANCH   1  34
TORSDOF 5
ENDMDL