MODEL 3
REMARK VINA RESULT: -10.228098826      1.219      1.778
REMARK  4 active torsions:
REMARK  status: ('A' for Active; 'I' for Inactive)
REMARK    1  A    between atoms: C2_5  and  C3_6
REMARK    2  A    between atoms: C7_10  and  N2_11
REMARK    3  A    between atoms: N2_11  and  S1_13
REMARK    4  A    between atoms: S1_13  and  C8_16
ROOT
HETATM    1  C3  UNL     1     -10.093  -4.075 -13.741  1.00  0.00     0.060 A
HETATM    2  C4  UNL     1      -9.646  -5.164 -14.453  1.00  0.00     0.032 A
HETATM    3  C5  UNL     1      -8.872  -6.107 -13.804  1.00  0.00     0.006 A
HETATM    4  C6  UNL     1      -8.581  -5.920 -12.480  1.00  0.00     0.049 A
HETATM    5  C7  UNL     1      -9.034  -4.814 -11.747  1.00  0.00     0.115 A
HETATM    6  N4  UNL     1      -9.772  -3.945 -12.428  1.00  0.00    -0.340 N
ATOM      7  H4  UNL     1     -10.121  -3.125 -11.932  1.00  0.00     0.167 HD
ENDROOT
BRANCH   5   8
HETATM    8  N2  UNL     1      -8.661  -4.726 -10.387  1.00  0.00    -0.266 N
ATOM      9  H2  UNL     1      -8.872  -5.535  -9.802  1.00  0.00     0.180 HD
BRANCH   8  10
HETATM   10  S1  UNL     1      -7.898  -3.411  -9.620  1.00  0.00     0.264 S
HETATM   11  O2  UNL     1      -6.666  -2.983 -10.391  1.00  0.00    -0.200 OA
HETATM   12  O3  UNL     1      -7.457  -3.774  -8.207  1.00  0.00    -0.200 OA
BRANCH  10  13
HETATM   13  C8  UNL     1      -8.946  -2.013  -9.558  1.00  0.00     0.080 A
HETATM   14  C9  UNL     1     -10.305  -2.175  -9.258  1.00  0.00     0.027 A
HETATM   15  C10 UNL     1     -11.172  -1.107  -9.213  1.00  0.00     0.032 A
HETATM   16  C11 UNL     1     -10.744   0.166  -9.461  1.00  0.00     0.042 A
HETATM   17  N3  UNL     1     -11.377   1.368  -9.481  1.00  0.00    -0.365 N
HETATM   18  C14 UNL     1      -9.421   0.360  -9.759  1.00  0.00    -0.007 A
HETATM   19  C12 UNL     1     -10.480   2.301  -9.782  1.00  0.00     0.089 A
ATOM     20  H3  UNL     1     -12.368   1.526  -9.297  1.00  0.00     0.165 HD
HETATM   21  C13 UNL     1      -9.236   1.721  -9.967  1.00  0.00     0.030 A
HETATM   22  C15 UNL     1      -8.545  -0.726  -9.803  1.00  0.00     0.039 A
ENDBRANCH  10  13
ENDBRANCH   8  10
ENDBRANCH   5   8
BRANCH   1  23
HETATM   23  C2  UNL     1     -10.929  -3.066 -14.383  1.00  0.00     0.062 A
HETATM   24  N1  UNL     1     -11.137  -3.133 -15.729  1.00  0.00    -0.320 N
HETATM   25  C1  UNL     1     -11.903  -2.232 -16.365  1.00  0.00     0.273 A
ATOM     26  H1  UNL     1     -10.701  -3.885 -16.264  1.00  0.00     0.169 HD
HETATM   27  O1  UNL     1     -12.064  -2.339 -17.609  1.00  0.00    -0.266 OA
HETATM   28  C20 UNL     1     -12.533  -1.183 -15.738  1.00  0.00     0.111 A
HETATM   29  C17 UNL     1     -12.342  -1.088 -14.378  1.00  0.00    -0.000 A
HETATM   30  N5  UNL     1     -13.339  -0.164 -16.135  1.00  0.00    -0.361 N
HETATM   31  C16 UNL     1     -11.543  -2.033 -13.734  1.00  0.00     0.045 A
HETATM   32  C18 UNL     1     -13.056   0.017 -13.974  1.00  0.00     0.031 A
HETATM   33  C19 UNL     1     -13.681   0.601 -15.060  1.00  0.00     0.089 A
ATOM     34  H5  UNL     1     -13.642   0.004 -17.094  1.00  0.00     0.165 HD
ENDBRANCH   1  23
TORSDOF 4
ENDMDL