MODEL 3
REMARK VINA RESULT: -9.025105172      2.119      3.669
REMARK  7 active torsions:
REMARK  status: ('A' for Active; 'I' for Inactive)
REMARK       I    between atoms: N2_3  and  C2_5
REMARK       I    between atoms: C2_5  and  N3_6
REMARK       I    between atoms: C2_5  and  N7_26
REMARK    1  A    between atoms: N3_6  and  C3_7
REMARK    2  A    between atoms: C6_10  and  N4_11
REMARK    3  A    between atoms: N4_11  and  C7_13
REMARK    4  A    between atoms: C7_13  and  N5_15
REMARK    5  A    between atoms: N5_15  and  C8_17
REMARK    6  A    between atoms: N7_26  and  C15_28
REMARK    7  A    between atoms: C15_28  and  C16_29
ROOT
HETATM    1  N1  UNL     1     -16.253  -1.483 -15.596  1.00  0.00    -0.172 NA
HETATM    2  C1  UNL     1     -15.454  -0.694 -15.375  1.00  0.00     0.185 C
HETATM    3  N2  UNL     1     -14.460   0.242 -15.080  1.00  0.00    -0.253 N
ATOM      4  H2  UNL     1     -14.562   1.216 -15.362  1.00  0.00     0.182 HD
HETATM    5  C2  UNL     1     -13.277  -0.203 -14.361  1.00  0.00     0.264 C
HETATM    6  N3  UNL     1     -12.620  -1.013 -14.903  1.00  0.00    -0.371 NA
HETATM    7  N7  UNL     1     -13.045   0.387 -13.111  1.00  0.00    -0.344 N
ATOM      8  H7  UNL     1     -12.283   1.062 -13.052  1.00  0.00     0.164 HD
ENDROOT
BRANCH   6   9
HETATM    9  C3  UNL     1     -11.824  -1.925 -15.435  1.00  0.00     0.111 A
HETATM   10  C4  UNL     1     -11.674  -2.063 -16.821  1.00  0.00     0.047 A
HETATM   11  C5  UNL     1     -10.887  -2.980 -17.362  1.00  0.00     0.033 A
HETATM   12  C6  UNL     1     -10.120  -3.908 -16.585  1.00  0.00     0.034 A
HETATM   13  C13 UNL     1     -10.269  -3.776 -15.268  1.00  0.00     0.033 A
HETATM   14  C14 UNL     1     -11.092  -2.810 -14.672  1.00  0.00     0.047 A
BRANCH  12  15
HETATM   15  N4  UNL     1      -9.316  -4.745 -17.341  1.00  0.00    -0.333 N
ATOM     16  H4  UNL     1      -9.784  -5.068 -18.188  1.00  0.00     0.168 HD
BRANCH  15  17
HETATM   17  C7  UNL     1      -8.025  -5.254 -17.227  1.00  0.00     0.177 C
HETATM   18  S1  UNL     1      -6.843  -4.226 -16.923  1.00  0.00    -0.040 SA
BRANCH  17  19
HETATM   19  N5  UNL     1      -7.767  -6.690 -17.447  1.00  0.00    -0.319 N
ATOM     20  H5  UNL     1      -7.183  -7.098 -18.177  1.00  0.00     0.169 HD
BRANCH  19  21
HETATM   21  C8  UNL     1      -8.425  -7.329 -16.535  1.00  0.00     0.106 A
HETATM   22  C9  UNL     1      -9.089  -7.926 -15.674  1.00  0.00     0.048 A
HETATM   23  C10 UNL     1      -9.605  -9.087 -15.267  1.00  0.00     0.005 A
HETATM   24  C11 UNL     1      -9.347 -10.182 -16.115  1.00  0.00     0.017 A
HETATM   25  C12 UNL     1      -8.590  -9.786 -17.210  1.00  0.00     0.089 A
HETATM   26  N6  UNL     1      -8.147  -8.650 -17.509  1.00  0.00    -0.352 N
ATOM     27  H6  UNL     1      -7.605  -8.534 -18.365  1.00  0.00     0.166 HD
ENDBRANCH  19  21
ENDBRANCH  17  19
ENDBRANCH  15  17
ENDBRANCH  12  15
ENDBRANCH   6   9
BRANCH   7  28
HETATM   28  C15 UNL     1     -13.782   0.129 -11.902  1.00  0.00     0.180 C
BRANCH  28  29
HETATM   29  C16 UNL     1     -12.823  -0.097 -10.789  1.00  0.00     0.026 A
HETATM   30  C17 UNL     1     -12.460  -1.401 -10.533  1.00  0.00     0.027 A
HETATM   31  C18 UNL     1     -11.507  -1.710  -9.563  1.00  0.00     0.003 A
HETATM   32  C19 UNL     1     -10.934  -0.665  -8.870  1.00  0.00     0.017 A
HETATM   33  C20 UNL     1     -11.314   0.595  -9.151  1.00  0.00     0.088 A
HETATM   34  N8  UNL     1     -12.241   0.846 -10.095  1.00  0.00    -0.368 N
ATOM     35  H8  UNL     1     -12.501   1.815 -10.276  1.00  0.00     0.165 HD
ENDBRANCH  28  29
ENDBRANCH   7  28
TORSDOF 7
ENDMDL