MODEL 5
REMARK VINA RESULT: -10.965243183      1.438      2.169
REMARK  4 active torsions:
REMARK  status: ('A' for Active; 'I' for Inactive)
REMARK    1  A    between atoms: C5_6  and  N2_7
REMARK    2  A    between atoms: C7_12  and  C8_13
REMARK    3  A    between atoms: C11_16  and  N4_17
REMARK    4  A    between atoms: C15_25  and  C16_26
ROOT
HETATM    1  C1  UNL     1     -13.966   1.435 -16.413  1.00  0.00     0.231 C
HETATM    2  N1  UNL     1     -13.308   0.530 -16.201  1.00  0.00    -0.411 NA
HETATM    3  C2  UNL     1     -12.530  -0.565 -15.936  1.00  0.00     0.179 A
HETATM    4  C3  UNL     1     -11.823  -0.748 -14.754  1.00  0.00     0.081 A
HETATM    5  C4  UNL     1     -11.181  -1.939 -14.869  1.00  0.00     0.041 A
HETATM    6  C5  UNL     1     -10.324  -2.620 -13.971  1.00  0.00     0.075 A
HETATM    7  C12 UNL     1      -9.848  -3.827 -14.427  1.00  0.00     0.019 A
HETATM    8  C13 UNL     1      -9.003  -4.607 -13.667  1.00  0.00     0.017 A
HETATM    9  C14 UNL     1      -8.520  -5.822 -14.121  1.00  0.00     0.013 A
HETATM   10  C15 UNL     1      -8.865  -6.300 -15.353  1.00  0.00    -0.024 A
HETATM   11  C22 UNL     1      -9.710  -5.529 -16.123  1.00  0.00     0.042 A
HETATM   12  C23 UNL     1     -10.202  -4.317 -15.692  1.00  0.00     0.047 A
HETATM   13  N6  UNL     1     -11.013  -3.632 -16.494  1.00  0.00    -0.341 N
ATOM     14  H6  UNL     1     -11.259  -4.005 -17.411  1.00  0.00     0.167 HD
HETATM   15  C24 UNL     1     -11.499  -2.462 -16.099  1.00  0.00     0.120 A
HETATM   16  N7  UNL     1     -12.326  -1.617 -16.750  1.00  0.00    -0.317 N
ATOM     17  H7  UNL     1     -12.722  -1.750 -17.681  1.00  0.00     0.170 HD
ENDROOT
BRANCH   6  18
HETATM   18  N2  UNL     1     -10.086  -2.106 -12.909  1.00  0.00    -0.190 N
HETATM   19  C6  UNL     1     -10.379  -1.848 -11.627  1.00  0.00     0.684 A
HETATM   20  N3  UNL     1      -9.895  -2.697 -10.668  1.00  0.00    -0.192 N
HETATM   21  N5  UNL     1     -11.118  -0.812 -11.160  1.00  0.00    -0.177 N
HETATM   22  C7  UNL     1     -10.096  -2.573  -9.370  1.00  0.00     0.052 A
ATOM     23  H3  UNL     1      -9.334  -3.489 -10.981  1.00  0.00     0.184 HD
HETATM   24  C10 UNL     1     -10.853  -1.506  -8.924  1.00  0.00     0.078 A
HETATM   25  C11 UNL     1     -11.357  -0.633  -9.843  1.00  0.00     0.116 A
ATOM     26  H5  UNL     1     -11.507  -0.145 -11.826  1.00  0.00     0.185 HD
ATOM     27  H2  UNL     1      -9.208  -1.611 -13.066  1.00  0.00     0.184 HD
BRANCH  22  28
HETATM   28  C8  UNL     1      -9.541  -3.525  -8.427  1.00  0.00     0.020 C
HETATM   29  C9  UNL     1      -8.301  -3.931  -8.541  1.00  0.00     0.013 C
ENDBRANCH  22  28
BRANCH  25  30
HETATM   30  N4  UNL     1     -12.068   0.369  -9.429  1.00  0.00    -0.385 N
ATOM     31  H42 UNL     1     -12.875   0.692  -9.961  1.00  0.00     0.157 HD
ATOM     32  H41 UNL     1     -11.805   0.830  -8.558  1.00  0.00     0.157 HD
ENDBRANCH  25  30
ENDBRANCH   6  18
BRANCH  10  33
HETATM   33  C16 UNL     1      -8.340  -7.584 -15.803  1.00  0.00    -0.026 A
HETATM   34  C17 UNL     1      -7.951  -8.510 -14.865  1.00  0.00     0.012 A
HETATM   35  C18 UNL     1      -7.445  -9.747 -15.282  1.00  0.00     0.001 A
HETATM   36  C19 UNL     1      -7.329 -10.054 -16.622  1.00  0.00     0.000 A
HETATM   37  C20 UNL     1      -7.719  -9.125 -17.562  1.00  0.00     0.001 A
HETATM   38  C21 UNL     1      -8.224  -7.892 -17.140  1.00  0.00     0.012 A
ENDBRANCH  10  33
TORSDOF 4
ENDMDL