MODEL 5
REMARK VINA RESULT: -8.921658573      3.882      5.355
REMARK  4 active torsions:
REMARK  status: ('A' for Active; 'I' for Inactive)
REMARK    1  A    between atoms: C6_11  and  S1_12
REMARK    2  A    between atoms: S1_12  and  N3_15
REMARK    3  A    between atoms: N3_15  and  C7_17
REMARK    4  A    between atoms: C12_22  and  C13_23
ROOT
HETATM    1  C7  UNL     1     -11.933  -0.315 -12.554  1.00  0.00     0.056 A
HETATM    2  C8  UNL     1     -13.055   0.408 -12.945  1.00  0.00     0.031 A
HETATM    3  C9  UNL     1     -13.822   0.076 -14.060  1.00  0.00     0.002 A
HETATM    4  C10 UNL     1     -13.467  -1.010 -14.818  1.00  0.00     0.001 A
HETATM    5  C11 UNL     1     -12.361  -1.744 -14.455  1.00  0.00     0.017 A
HETATM    6  C12 UNL     1     -11.597  -1.405 -13.333  1.00  0.00     0.035 A
ENDROOT
BRANCH   1   7
HETATM    7  N3  UNL     1     -11.183   0.103 -11.451  1.00  0.00    -0.280 N
ATOM      8  H3  UNL     1     -10.489   0.831 -11.616  1.00  0.00     0.179 HD
BRANCH   7   9
HETATM    9  S1  UNL     1     -11.318  -0.495  -9.830  1.00  0.00     0.264 S
HETATM   10  O2  UNL     1     -11.223   0.707  -8.881  1.00  0.00    -0.200 OA
HETATM   11  O3  UNL     1     -12.680  -1.110  -9.712  1.00  0.00    -0.200 OA
BRANCH   9  12
HETATM   12  C6  UNL     1     -10.020  -1.553  -9.384  1.00  0.00     0.098 A
HETATM   13  C5  UNL     1     -10.237  -2.837  -8.900  1.00  0.00     0.026 A
HETATM   14  C4  UNL     1      -9.145  -3.600  -8.574  1.00  0.00     0.004 A
HETATM   15  C3  UNL     1      -7.856  -3.156  -8.705  1.00  0.00     0.032 A
HETATM   16  C2  UNL     1      -7.630  -1.885  -9.185  1.00  0.00     0.065 A
HETATM   17  N2  UNL     1      -6.505  -1.169  -9.426  1.00  0.00    -0.297 N
HETATM   18  C20 UNL     1      -8.712  -1.085  -9.525  1.00  0.00     0.085 A
HETATM   19  N1  UNL     1      -6.854   0.004  -9.888  1.00  0.00    -0.265 N
ATOM     20  H2  UNL     1      -5.549  -1.491  -9.274  1.00  0.00     0.187 HD
HETATM   21  C1  UNL     1      -8.198   0.108  -9.968  1.00  0.00     0.274 A
ATOM     22  H1  UNL     1      -6.200   0.741 -10.152  1.00  0.00     0.190 HD
HETATM   23  O1  UNL     1      -8.845   1.118 -10.375  1.00  0.00    -0.266 OA
ENDBRANCH   9  12
ENDBRANCH   7   9
ENDBRANCH   1   7
BRANCH   6  24
HETATM   24  C13 UNL     1     -10.471  -2.270 -12.994  1.00  0.00     0.118 A
HETATM   25  N4  UNL     1      -9.167  -2.045 -13.021  1.00  0.00    -0.340 N
HETATM   26  C14 UNL     1      -8.493  -3.123 -12.599  1.00  0.00     0.060 A
ATOM     27  H4  UNL     1      -8.735  -1.171 -13.322  1.00  0.00     0.167 HD
HETATM   28  C15 UNL     1      -7.151  -3.427 -12.432  1.00  0.00     0.032 A
HETATM   29  C19 UNL     1      -9.417  -4.089 -12.287  1.00  0.00     0.060 A
HETATM   30  C16 UNL     1      -6.723  -4.657 -11.965  1.00  0.00     0.002 A
HETATM   31  C17 UNL     1      -7.656  -5.625 -11.653  1.00  0.00     0.002 A
HETATM   32  C18 UNL     1      -8.995  -5.333 -11.816  1.00  0.00     0.032 A
HETATM   33  N5  UNL     1     -10.612  -3.540 -12.537  1.00  0.00    -0.340 N
ATOM     34  H5  UNL     1     -11.506  -4.013 -12.402  1.00  0.00     0.167 HD
ENDBRANCH   6  24
TORSDOF 4
ENDMDL