MODEL 2
REMARK VINA RESULT: -9.416603138      2.460      2.919
REMARK  7 active torsions:
REMARK  status: ('A' for Active; 'I' for Inactive)
REMARK    1  A    between atoms: C6_8  and  N2_9
REMARK    2  A    between atoms: N2_9  and  C7_11
REMARK    3  A    between atoms: C8_14  and  N4_15
REMARK    4  A    between atoms: N4_15  and  C9_16
REMARK    5  A    between atoms: C9_16  and  C10_17
REMARK    6  A    between atoms: C14_24  and  N6_25
REMARK    7  A    between atoms: N6_25  and  C15_27
ROOT
HETATM    1  C7  UNL     1     -10.455  -3.290 -11.763  1.00  0.00     0.700 A
HETATM    2  N3  UNL     1     -10.897  -2.605 -12.829  1.00  0.00    -0.148 N
ATOM      3  H3  UNL     1     -11.380  -1.720 -12.671  1.00  0.00     0.188 HD
HETATM    4  C8  UNL     1     -10.730  -3.036 -14.118  1.00  0.00     0.287 A
HETATM    5  N5  UNL     1     -10.072  -4.233 -14.253  1.00  0.00    -0.148 N
ATOM      6  H5  UNL     1      -9.924  -4.596 -15.194  1.00  0.00     0.188 HD
HETATM    7  C14 UNL     1      -9.617  -4.946 -13.224  1.00  0.00     0.700 A
HETATM    8  N7  UNL     1      -9.827  -4.442 -11.991  1.00  0.00    -0.022 N
ATOM      9  H7  UNL     1      -9.488  -4.973 -11.188  1.00  0.00     0.203 HD
ENDROOT
BRANCH   1  10
HETATM   10  N2  UNL     1     -10.670  -2.785 -10.595  1.00  0.00    -0.191 N
ATOM     11  H2  UNL     1     -10.717  -3.421  -9.799  1.00  0.00     0.184 HD
BRANCH  10  12
HETATM   12  C6  UNL     1     -10.843  -1.410 -10.352  1.00  0.00     0.050 A
HETATM   13  C5  UNL     1      -9.827  -0.478 -10.346  1.00  0.00     0.043 A
HETATM   14  C4  UNL     1     -10.062   0.876 -10.097  1.00  0.00    -0.006 A
HETATM   15  C3  UNL     1      -9.237   1.983 -10.037  1.00  0.00     0.100 A
HETATM   16  C23 UNL     1     -11.337   1.323  -9.846  1.00  0.00    -0.002 A
HETATM   17  N1  UNL     1     -10.007   3.048  -9.758  1.00  0.00    -0.368 N
HETATM   18  C2  UNL     1     -11.295   2.698  -9.632  1.00  0.00     0.016 A
ATOM     19  H1  UNL     1      -9.656   4.001  -9.655  1.00  0.00     0.165 HD
HETATM   20  C1  UNL     1     -12.470   3.551  -9.330  1.00  0.00     0.069 C
HETATM   21  C22 UNL     1     -12.364   0.401  -9.848  1.00  0.00     0.016 A
HETATM   22  C21 UNL     1     -12.115  -0.942 -10.097  1.00  0.00     0.031 A
ENDBRANCH  10  12
ENDBRANCH   1  10
BRANCH   4  23
HETATM   23  N4  UNL     1     -11.148  -2.380 -15.024  1.00  0.00    -0.380 NA
BRANCH  23  24
HETATM   24  C9  UNL     1     -11.611  -1.638 -16.030  1.00  0.00     0.223 C
BRANCH  24  25
HETATM   25  C10 UNL     1     -12.930  -0.953 -15.780  1.00  0.00     0.103 A
HETATM   26  C11 UNL     1     -13.175   0.387 -15.884  1.00  0.00     0.041 A
HETATM   27  C12 UNL     1     -14.519   0.566 -15.565  1.00  0.00     0.027 A
HETATM   28  C13 UNL     1     -15.008  -0.693 -15.285  1.00  0.00     0.142 A
HETATM   29  O1  UNL     1     -14.023  -1.562 -15.427  1.00  0.00    -0.320 OA
ENDBRANCH  24  25
ENDBRANCH  23  24
ENDBRANCH   4  23
BRANCH   7  30
HETATM   30  N6  UNL     1      -9.004  -6.060 -13.338  1.00  0.00    -0.191 N
ATOM     31  H6  UNL     1      -8.967  -6.657 -12.511  1.00  0.00     0.184 HD
BRANCH  30  32
HETATM   32  C15 UNL     1      -8.379  -6.536 -14.494  1.00  0.00     0.049 A
HETATM   33  C16 UNL     1      -7.076  -6.184 -14.773  1.00  0.00     0.030 A
HETATM   34  C17 UNL     1      -6.422  -6.637 -15.912  1.00  0.00     0.002 A
HETATM   35  C18 UNL     1      -7.081  -7.455 -16.785  1.00  0.00     0.000 A
HETATM   36  C19 UNL     1      -8.392  -7.830 -16.537  1.00  0.00     0.002 A
HETATM   37  C20 UNL     1      -9.028  -7.360 -15.386  1.00  0.00     0.030 A
ENDBRANCH  30  32
ENDBRANCH   7  30
TORSDOF 7
ENDMDL