MODEL 4
REMARK VINA RESULT: -10.973817262      0.902      1.150
REMARK  4 active torsions:
REMARK  status: ('A' for Active; 'I' for Inactive)
REMARK       I    between atoms: C1_4  and  N3_6
REMARK    1  A    between atoms: N3_6  and  N4_8
REMARK    2  A    between atoms: C2_10  and  C3_11
REMARK    3  A    between atoms: C5_13  and  C6_14
REMARK    4  A    between atoms: C8_17  and  C9_18
ROOT
HETATM    1  C3  UNL     1     -10.815  -2.913 -13.817  1.00  0.00     0.008 A
HETATM    2  C4  UNL     1     -10.228  -4.055 -14.318  1.00  0.00     0.000 A
HETATM    3  C5  UNL     1     -10.166  -4.344 -15.648  1.00  0.00     0.014 A
HETATM    4  C7  UNL     1      -9.543  -5.501 -16.131  1.00  0.00     0.027 A
HETATM    5  C8  UNL     1      -8.953  -6.396 -15.275  1.00  0.00    -0.024 A
HETATM    6  C15 UNL     1      -8.994  -6.111 -13.940  1.00  0.00     0.024 A
HETATM    7  C16 UNL     1      -9.605  -4.976 -13.462  1.00  0.00    -0.021 A
HETATM    8  C17 UNL     1      -9.550  -4.767 -12.109  1.00  0.00     0.042 A
HETATM    9  C18 UNL     1     -10.120  -3.624 -11.595  1.00  0.00     0.047 A
HETATM   10  N5  UNL     1     -10.166  -3.202 -10.311  1.00  0.00    -0.354 N
ATOM     11  H5  UNL     1      -9.780  -3.700  -9.509  1.00  0.00     0.166 HD
HETATM   12  C19 UNL     1     -10.799  -2.031 -10.265  1.00  0.00     0.060 A
HETATM   13  C20 UNL     1     -11.096  -1.194  -9.216  1.00  0.00     0.033 A
HETATM   14  C21 UNL     1     -11.762  -0.026  -9.484  1.00  0.00     0.019 A
HETATM   15  C22 UNL     1     -12.119   0.282 -10.789  1.00  0.00     0.088 A
HETATM   16  N6  UNL     1     -11.800  -0.573 -11.747  1.00  0.00    -0.363 N
ATOM     17  H6  UNL     1     -12.071  -0.330 -12.700  1.00  0.00     0.165 HD
HETATM   18  C23 UNL     1     -11.162  -1.716 -11.573  1.00  0.00     0.072 A
HETATM   19  C24 UNL     1     -10.742  -2.711 -12.428  1.00  0.00     0.032 A
ENDROOT
BRANCH   1  20
HETATM   20  C2  UNL     1     -11.744  -2.152 -14.596  1.00  0.00     0.120 C
HETATM   21  N4  UNL     1     -13.020  -2.131 -14.596  1.00  0.00    -0.309 N
ATOM     22  H4  UNL     1     -13.480  -2.757 -13.935  1.00  0.00     0.186 HD
BRANCH  21  23
HETATM   23  N3  UNL     1     -13.839  -1.368 -15.377  1.00  0.00    -0.274 N
HETATM   24  C1  UNL     1     -13.727   0.053 -15.337  1.00  0.00     0.200 C
HETATM   25  N1  UNL     1     -13.983   0.727 -14.270  1.00  0.00    -0.372 N
HETATM   26  N2  UNL     1     -13.317   0.796 -16.497  1.00  0.00    -0.062 NA
ATOM     27  H12 UNL     1     -13.902   1.742 -14.242  1.00  0.00     0.158 HD
ATOM     28  H11 UNL     1     -14.274   0.199 -13.447  1.00  0.00     0.158 HD
ATOM     29  H3  UNL     1     -14.528  -1.811 -15.985  1.00  0.00     0.189 HD
ENDBRANCH  21  23
ENDBRANCH   1  20
BRANCH   3  30
HETATM   30  C6  UNL     1     -10.463  -3.376 -16.668  1.00  0.00     0.271 C
HETATM   31  O1  UNL     1      -9.921  -3.568 -17.826  1.00  0.00    -0.301 OA
ENDBRANCH   3  30
BRANCH   5  32
HETATM   32  C9  UNL     1      -8.322  -7.604 -15.795  1.00  0.00    -0.026 A
HETATM   33  C10 UNL     1      -8.260  -7.828 -17.162  1.00  0.00     0.012 A
HETATM   34  C11 UNL     1      -7.675  -8.953 -17.696  1.00  0.00     0.001 A
HETATM   35  C12 UNL     1      -7.137  -9.883 -16.850  1.00  0.00     0.000 A
HETATM   36  C13 UNL     1      -7.178  -9.698 -15.479  1.00  0.00     0.001 A
HETATM   37  C14 UNL     1      -7.775  -8.552 -14.963  1.00  0.00     0.012 A
ENDBRANCH   5  32
TORSDOF 4
ENDMDL