MODEL 3
REMARK VINA RESULT: -9.868334671      0.996      1.849
REMARK  5 active torsions:
REMARK  status: ('A' for Active; 'I' for Inactive)
REMARK    1  A    between atoms: C7_7  and  N1_8
REMARK    2  A    between atoms: N1_8  and  S1_10
REMARK    3  A    between atoms: S1_10  and  C8_13
REMARK    4  A    between atoms: C12_17  and  C13_18
REMARK    5  A    between atoms: C17_24  and  N3_25
ROOT
HETATM    1  C13 UNL     1     -10.916  -2.959 -14.424  1.00  0.00     0.043 A
HETATM    2  C14 UNL     1     -10.814  -2.889 -15.778  1.00  0.00     0.033 A
HETATM    3  C15 UNL     1     -11.487  -1.902 -16.494  1.00  0.00     0.035 A
HETATM    4  C16 UNL     1     -12.266  -0.986 -15.824  1.00  0.00     0.079 A
HETATM    5  N2  UNL     1     -12.953   0.002 -16.421  1.00  0.00    -0.190 N
ATOM      6  H2  UNL     1     -12.897   0.082 -17.436  1.00  0.00     0.184 HD
HETATM    7  C17 UNL     1     -13.708   0.886 -15.759  1.00  0.00     0.678 A
HETATM    8  N4  UNL     1     -13.795   0.796 -14.411  1.00  0.00    -0.175 N
ATOM      9  H4  UNL     1     -14.367   1.465 -13.896  1.00  0.00     0.186 HD
HETATM   10  C18 UNL     1     -13.137  -0.162 -13.747  1.00  0.00     0.144 A
HETATM   11  N5  UNL     1     -13.240  -0.220 -12.467  1.00  0.00    -0.383 N
ATOM     12  H51 UNL     1     -12.739  -0.950 -11.961  1.00  0.00     0.157 HD
ATOM     13  H52 UNL     1     -13.815   0.453 -11.961  1.00  0.00     0.157 HD
HETATM   14  C19 UNL     1     -12.358  -1.075 -14.434  1.00  0.00     0.105 A
HETATM   15  N6  UNL     1     -11.684  -2.050 -13.804  1.00  0.00    -0.351 N
ATOM     16  H6  UNL     1     -11.761  -2.104 -12.788  1.00  0.00     0.166 HD
ENDROOT
BRANCH   1  17
HETATM   17  C12 UNL     1     -10.218  -3.990 -13.637  1.00  0.00    -0.008 A
HETATM   18  C11 UNL     1     -10.206  -3.875 -12.261  1.00  0.00     0.014 A
HETATM   19  C10 UNL     1      -9.583  -4.784 -11.458  1.00  0.00     0.002 A
HETATM   20  C9  UNL     1      -8.939  -5.865 -12.071  1.00  0.00     0.025 A
HETATM   21  C8  UNL     1      -8.920  -6.025 -13.429  1.00  0.00     0.080 A
HETATM   22  C20 UNL     1      -9.581  -5.051 -14.188  1.00  0.00     0.039 A
BRANCH  21  23
HETATM   23  S1  UNL     1      -8.121  -7.371 -14.183  1.00  0.00     0.263 S
HETATM   24  O1  UNL     1      -7.553  -8.318 -13.131  1.00  0.00    -0.200 OA
HETATM   25  O2  UNL     1      -9.105  -8.230 -14.959  1.00  0.00    -0.200 OA
BRANCH  23  26
HETATM   26  N1  UNL     1      -6.866  -6.924 -15.255  1.00  0.00    -0.280 N
ATOM     27  H1  UNL     1      -6.115  -7.598 -15.406  1.00  0.00     0.179 HD
BRANCH  26  28
HETATM   28  C7  UNL     1      -6.784  -5.698 -15.946  1.00  0.00     0.048 A
HETATM   29  C2  UNL     1      -6.208  -4.576 -15.349  1.00  0.00    -0.035 A
HETATM   30  C1  UNL     1      -5.677  -4.669 -13.943  1.00  0.00     0.050 C
HETATM   31  C3  UNL     1      -6.120  -3.384 -16.030  1.00  0.00     0.009 A
HETATM   32  C4  UNL     1      -6.586  -3.244 -17.310  1.00  0.00     0.001 A
HETATM   33  C5  UNL     1      -7.154  -4.327 -17.918  1.00  0.00     0.002 A
HETATM   34  C6  UNL     1      -7.247  -5.542 -17.230  1.00  0.00     0.030 A
ENDBRANCH  26  28
ENDBRANCH  23  26
ENDBRANCH  21  23
ENDBRANCH   1  17
BRANCH   7  35
HETATM   35  N3  UNL     1     -14.366   1.835 -16.342  1.00  0.00    -0.234 N
ATOM     36  H32 UNL     1     -15.373   1.881 -16.183  1.00  0.00     0.174 HD
ATOM     37  H31 UNL     1     -13.929   2.529 -16.947  1.00  0.00     0.174 HD
ENDBRANCH   7  35
TORSDOF 5
ENDMDL