MODEL 5
REMARK VINA RESULT: -10.017986822      1.577      2.538
REMARK  5 active torsions:
REMARK  status: ('A' for Active; 'I' for Inactive)
REMARK    1  A    between atoms: C5_5  and  N1_6
REMARK    2  A    between atoms: N1_6  and  S1_8
REMARK    3  A    between atoms: S1_8  and  C6_11
REMARK    4  A    between atoms: C10_15  and  C11_16
REMARK    5  A    between atoms: C16_24  and  N3_25
ROOT
HETATM    1  C6  UNL     1      -8.502  -6.620 -16.459  1.00  0.00     0.080 A
HETATM    2  C7  UNL     1      -7.987  -6.380 -17.715  1.00  0.00     0.025 A
HETATM    3  C8  UNL     1      -8.268  -5.160 -18.294  1.00  0.00     0.002 A
HETATM    4  C9  UNL     1      -9.036  -4.226 -17.627  1.00  0.00     0.012 A
HETATM    5  C10 UNL     1      -9.556  -4.455 -16.373  1.00  0.00    -0.024 A
HETATM    6  C19 UNL     1      -9.278  -5.672 -15.791  1.00  0.00     0.037 A
ENDROOT
BRANCH   5   7
HETATM    7  C11 UNL     1     -10.374  -3.434 -15.683  1.00  0.00    -0.024 A
HETATM    8  C12 UNL     1     -10.454  -3.401 -14.308  1.00  0.00     0.014 A
HETATM    9  C13 UNL     1     -11.214  -2.456 -13.662  1.00  0.00     0.033 A
HETATM   10  C14 UNL     1     -11.922  -1.507 -14.365  1.00  0.00     0.062 A
HETATM   11  N2  UNL     1     -12.677  -0.568 -13.742  1.00  0.00    -0.318 N
HETATM   12  C17 UNL     1     -11.857  -1.520 -15.747  1.00  0.00     0.061 A
HETATM   13  C15 UNL     1     -13.366   0.353 -14.430  1.00  0.00     0.289 A
ATOM     14  H2  UNL     1     -12.721  -0.563 -12.723  1.00  0.00     0.169 HD
HETATM   15  O3  UNL     1     -14.060   1.216 -13.838  1.00  0.00    -0.264 OA
HETATM   16  C16 UNL     1     -13.282   0.315 -15.801  1.00  0.00     0.169 A
HETATM   17  N4  UNL     1     -12.540  -0.605 -16.446  1.00  0.00    -0.336 N
ATOM     18  H4  UNL     1     -12.498  -0.603 -17.465  1.00  0.00     0.168 HD
HETATM   19  C18 UNL     1     -11.079  -2.489 -16.388  1.00  0.00     0.044 A
BRANCH  16  20
HETATM   20  N3  UNL     1     -13.913   1.167 -16.544  1.00  0.00    -0.381 N
ATOM     21  H32 UNL     1     -13.400   2.011 -16.802  1.00  0.00     0.157 HD
ATOM     22  H31 UNL     1     -14.871   1.002 -16.852  1.00  0.00     0.157 HD
ENDBRANCH  16  20
ENDBRANCH   5   7
BRANCH   1  23
HETATM   23  S1  UNL     1      -8.159  -8.149 -15.714  1.00  0.00     0.263 S
HETATM   24  O1  UNL     1      -7.117  -8.869 -16.534  1.00  0.00    -0.200 OA
HETATM   25  O2  UNL     1      -9.366  -9.046 -15.681  1.00  0.00    -0.200 OA
BRANCH  23  26
HETATM   26  N1  UNL     1      -7.594  -8.006 -14.092  1.00  0.00    -0.281 N
ATOM     27  H1  UNL     1      -7.145  -8.820 -13.673  1.00  0.00     0.179 HD
BRANCH  26  28
HETATM   28  C5  UNL     1      -7.709  -6.848 -13.310  1.00  0.00     0.042 A
HETATM   29  C4  UNL     1      -6.797  -5.826 -13.277  1.00  0.00     0.030 A
HETATM   30  C3  UNL     1      -6.963  -4.716 -12.491  1.00  0.00     0.009 A
HETATM   31  C2  UNL     1      -8.078  -4.584 -11.686  1.00  0.00    -0.062 A
HETATM   32  C1  UNL     1      -8.239  -3.374 -10.842  1.00  0.00     0.048 C
HETATM   33  C21 UNL     1      -9.013  -5.607 -11.704  1.00  0.00     0.009 A
HETATM   34  C20 UNL     1      -8.828  -6.716 -12.502  1.00  0.00     0.030 A
ENDBRANCH  26  28
ENDBRANCH  23  26
ENDBRANCH   1  23
TORSDOF 5
ENDMDL