MODEL 1
REMARK VINA RESULT: -10.895242657      0.000      0.000
REMARK  8 active torsions:
REMARK  status: ('A' for Active; 'I' for Inactive)
REMARK    1  A    between atoms: N1_1  and  N2_4
REMARK       I    between atoms: N2_4  and  C1_6
REMARK       I    between atoms: C1_6  and  N3_8
REMARK    2  A    between atoms: N3_8  and  C2_10
REMARK    3  A    between atoms: C5_13  and  C6_14
REMARK       I    between atoms: C6_14  and  N4_16
REMARK    4  A    between atoms: N4_16  and  C7_18
REMARK    5  A    between atoms: C9_20  and  C10_21
REMARK       I    between atoms: C10_21  and  N5_23
REMARK    6  A    between atoms: N5_23  and  C11_25
REMARK    7  A    between atoms: C20_37  and  S1_38
REMARK    8  A    between atoms: S1_38  and  C21_39
ROOT
HETATM    1  C2  UNL     1      -8.938 -25.785 -14.765  1.00  0.00     0.053 A
HETATM    2  C3  UNL     1      -8.634 -26.205 -13.489  1.00  0.00     0.032 A
HETATM    3  C4  UNL     1      -8.593 -25.295 -12.443  1.00  0.00     0.019 A
HETATM    4  C5  UNL     1      -8.851 -23.966 -12.632  1.00  0.00     0.033 A
HETATM    5  C19 UNL     1      -9.154 -23.579 -13.923  1.00  0.00     0.038 A
HETATM    6  C20 UNL     1      -9.210 -24.422 -14.998  1.00  0.00     0.033 A
ENDROOT
BRANCH   4   7
HETATM    7  C6  UNL     1      -8.810 -22.968 -11.537  1.00  0.00     0.256 C
HETATM    8  O2  UNL     1      -9.531 -23.223 -10.563  1.00  0.00    -0.267 OA
HETATM    9  N4  UNL     1      -8.017 -21.820 -11.597  1.00  0.00    -0.318 N
ATOM     10  H4  UNL     1      -7.472 -21.724 -12.454  1.00  0.00     0.169 HD
BRANCH   9  11
HETATM   11  C7  UNL     1      -7.848 -20.788 -10.684  1.00  0.00     0.104 A
HETATM   12  C8  UNL     1      -8.609 -19.653 -10.665  1.00  0.00     0.053 A
HETATM   13  C9  UNL     1      -8.341 -18.691  -9.698  1.00  0.00     0.050 A
HETATM   14  C17 UNL     1      -7.354 -18.829  -8.769  1.00  0.00     0.108 A
HETATM   15  N6  UNL     1      -6.618 -19.938  -8.793  1.00  0.00    -0.331 N
HETATM   16  C18 UNL     1      -6.850 -20.885  -9.713  1.00  0.00     0.272 A
ATOM     17  H6  UNL     1      -5.873 -20.068  -8.109  1.00  0.00     0.168 HD
HETATM   18  O4  UNL     1      -6.101 -21.897  -9.656  1.00  0.00    -0.266 OA
BRANCH  13  19
HETATM   19  C10 UNL     1      -9.176 -17.448  -9.690  1.00  0.00     0.257 C
HETATM   20  O3  UNL     1      -8.564 -16.431  -9.321  1.00  0.00    -0.267 OA
HETATM   21  N5  UNL     1     -10.503 -17.530 -10.078  1.00  0.00    -0.323 N
ATOM     22  H5  UNL     1     -10.853 -18.446 -10.358  1.00  0.00     0.169 HD
BRANCH  21  23
HETATM   23  C11 UNL     1     -11.409 -16.450 -10.117  1.00  0.00     0.035 A
HETATM   24  C12 UNL     1     -12.160 -16.219  -8.942  1.00  0.00     0.029 A
HETATM   25  C13 UNL     1     -13.052 -15.209  -8.863  1.00  0.00     0.002 A
HETATM   26  C14 UNL     1     -13.245 -14.370  -9.954  1.00  0.00     0.000 A
HETATM   27  C15 UNL     1     -12.535 -14.570 -11.097  1.00  0.00     0.002 A
HETATM   28  C16 UNL     1     -11.615 -15.609 -11.183  1.00  0.00     0.029 A
ENDBRANCH  21  23
ENDBRANCH  13  19
ENDBRANCH   9  11
ENDBRANCH   4   7
BRANCH   6  29
HETATM   29  S1  UNL     1      -9.609 -23.805 -16.623  1.00  0.00    -0.086 SA
BRANCH  29  30
HETATM   30  C21 UNL     1      -8.263 -22.782 -17.198  1.00  0.00     0.029 A
HETATM   31  C22 UNL     1      -7.053 -23.296 -17.612  1.00  0.00     0.021 A
HETATM   32  C23 UNL     1      -6.026 -22.495 -18.053  1.00  0.00     0.001 A
HETATM   33  C24 UNL     1      -6.169 -21.127 -18.098  1.00  0.00     0.002 A
HETATM   34  C25 UNL     1      -7.370 -20.590 -17.690  1.00  0.00     0.028 A
HETATM   35  C26 UNL     1      -8.405 -21.412 -17.244  1.00  0.00     0.063 A
HETATM   36  N7  UNL     1      -9.632 -20.836 -16.829  1.00  0.00    -0.101 NA
ENDBRANCH  29  30
ENDBRANCH   6  29
BRANCH   1  37
HETATM   37  N3  UNL     1      -9.009 -26.612 -15.908  1.00  0.00    -0.306 N
HETATM   38  C1  UNL     1      -7.963 -27.332 -16.523  1.00  0.00     0.339 C
HETATM   39  N2  UNL     1      -8.249 -28.117 -17.683  1.00  0.00    -0.258 N
HETATM   40  O1  UNL     1      -6.778 -27.346 -16.135  1.00  0.00    -0.245 OA
ATOM     41  H2  UNL     1      -9.198 -28.153 -18.057  1.00  0.00     0.191 HD
ATOM     42  H3  UNL     1      -9.929 -26.700 -16.341  1.00  0.00     0.171 HD
BRANCH  39  43
HETATM   43  N1  UNL     1      -7.232 -28.827 -18.296  1.00  0.00    -0.341 N
ATOM     44  H12 UNL     1      -6.274 -28.706 -17.970  1.00  0.00     0.177 HD
ATOM     45  H11 UNL     1      -7.452 -29.461 -19.065  1.00  0.00     0.177 HD
ENDBRANCH  39  43
ENDBRANCH   1  37
TORSDOF 8
ENDMDL