MODEL 5
REMARK VINA RESULT: -10.705247713      0.918      1.225
REMARK  8 active torsions:
REMARK  status: ('A' for Active; 'I' for Inactive)
REMARK    1  A    between atoms: C1_4  and  C2_6
REMARK    2  A    between atoms: C4_10  and  C5_11
REMARK    3  A    between atoms: C8_14  and  N4_15
REMARK       I    between atoms: N4_15  and  C9_17
REMARK    4  A    between atoms: C9_17  and  C10_19
REMARK    5  A    between atoms: C14_24  and  C15_25
REMARK       I    between atoms: C15_25  and  N6_27
REMARK    6  A    between atoms: N6_27  and  C16_29
REMARK    7  A    between atoms: C19_32  and  N7_33
REMARK    8  A    between atoms: C20_38  and  C21_39
ROOT
HETATM    1  C10 UNL     1      -9.190 -23.470 -12.385  1.00  0.00     0.033 A
HETATM    2  C11 UNL     1      -9.367 -24.009 -11.130  1.00  0.00     0.019 A
HETATM    3  C12 UNL     1      -9.731 -23.212 -10.064  1.00  0.00     0.028 A
HETATM    4  C13 UNL     1      -9.933 -21.856 -10.197  1.00  0.00     0.062 A
HETATM    5  N5  UNL     1     -10.309 -21.030  -9.106  1.00  0.00    -0.101 NA
HETATM    6  C14 UNL     1      -9.756 -21.307 -11.466  1.00  0.00     0.057 A
HETATM    7  C26 UNL     1      -9.392 -22.107 -12.526  1.00  0.00     0.036 A
ENDROOT
BRANCH   1   8
HETATM    8  C9  UNL     1      -8.787 -24.308 -13.547  1.00  0.00     0.256 C
HETATM    9  N4  UNL     1      -7.648 -25.124 -13.492  1.00  0.00    -0.323 N
ATOM     10  H4  UNL     1      -7.094 -25.121 -12.635  1.00  0.00     0.169 HD
HETATM   11  O1  UNL     1      -9.519 -24.226 -14.541  1.00  0.00    -0.267 OA
BRANCH   9  12
HETATM   12  C8  UNL     1      -7.225 -25.948 -14.556  1.00  0.00     0.035 A
HETATM   13  C7  UNL     1      -6.445 -25.360 -15.562  1.00  0.00     0.030 A
HETATM   14  C6  UNL     1      -5.962 -26.070 -16.625  1.00  0.00     0.016 A
HETATM   15  C5  UNL     1      -6.227 -27.407 -16.747  1.00  0.00    -0.001 A
HETATM   16  C28 UNL     1      -6.985 -28.028 -15.790  1.00  0.00     0.016 A
HETATM   17  C27 UNL     1      -7.476 -27.287 -14.701  1.00  0.00     0.030 A
BRANCH  15  18
HETATM   18  C4  UNL     1      -5.683 -28.131 -17.906  1.00  0.00     0.103 A
HETATM   19  C3  UNL     1      -4.418 -28.013 -18.441  1.00  0.00     0.128 A
HETATM   20  N3  UNL     1      -4.364 -28.856 -19.482  1.00  0.00    -0.341 N
HETATM   21  C2  UNL     1      -5.559 -29.492 -19.604  1.00  0.00     0.189 A
ATOM     22  H3  UNL     1      -3.554 -28.998 -20.086  1.00  0.00     0.167 HD
HETATM   23  O3  UNL     1      -6.304 -29.023 -18.641  1.00  0.00    -0.288 OA
BRANCH  21  24
HETATM   24  C1  UNL     1      -5.910 -30.492 -20.615  1.00  0.00     0.161 C
HETATM   25  N1  UNL     1      -6.209 -31.686 -20.256  1.00  0.00    -0.384 N
ATOM     26  H12 UNL     1      -6.454 -32.382 -20.960  1.00  0.00     0.157 HD
ATOM     27  H11 UNL     1      -6.197 -31.922 -19.264  1.00  0.00     0.157 HD
HETATM   28  N2  UNL     1      -5.927 -30.165 -21.988  1.00  0.00    -0.079 NA
ENDBRANCH  21  24
ENDBRANCH  15  18
ENDBRANCH   9  12
ENDBRANCH   1   8
BRANCH   6  29
HETATM   29  C15 UNL     1      -9.960 -19.864 -11.655  1.00  0.00     0.258 C
HETATM   30  O2  UNL     1      -8.920 -19.207 -11.954  1.00  0.00    -0.267 OA
HETATM   31  N6  UNL     1     -11.183 -19.243 -11.524  1.00  0.00    -0.321 N
ATOM     32  H6  UNL     1     -11.971 -19.848 -11.293  1.00  0.00     0.169 HD
BRANCH  31  33
HETATM   33  C16 UNL     1     -11.473 -17.875 -11.672  1.00  0.00     0.063 A
HETATM   34  C17 UNL     1     -10.858 -17.004 -10.770  1.00  0.00     0.036 A
HETATM   35  C18 UNL     1     -11.229 -15.680 -10.740  1.00  0.00     0.050 A
HETATM   36  C19 UNL     1     -12.200 -15.236 -11.599  1.00  0.00     0.099 A
HETATM   37  N8  UNL     1     -12.785 -16.064 -12.461  1.00  0.00    -0.340 N
HETATM   38  C20 UNL     1     -12.449 -17.386 -12.529  1.00  0.00     0.072 A
ATOM     39  H8  UNL     1     -13.504 -15.702 -13.088  1.00  0.00     0.167 HD
BRANCH  36  40
HETATM   40  N7  UNL     1     -12.575 -13.983 -11.592  1.00  0.00    -0.385 N
ATOM     41  H72 UNL     1     -12.565 -13.470 -12.474  1.00  0.00     0.157 HD
ATOM     42  H71 UNL     1     -12.871 -13.532 -10.726  1.00  0.00     0.157 HD
ENDBRANCH  36  40
BRANCH  38  43
HETATM   43  C21 UNL     1     -13.119 -18.247 -13.472  1.00  0.00     0.008 A
HETATM   44  C22 UNL     1     -14.421 -18.655 -13.143  1.00  0.00     0.016 A
HETATM   45  C23 UNL     1     -15.177 -19.396 -14.026  1.00  0.00     0.018 A
HETATM   46  C24 UNL     1     -14.673 -19.756 -15.253  1.00  0.00     0.087 A
HETATM   47  N9  UNL     1     -13.442 -19.377 -15.577  1.00  0.00    -0.374 N
HETATM   48  C25 UNL     1     -12.687 -18.640 -14.707  1.00  0.00     0.101 A
ATOM     49  H9  UNL     1     -13.056 -19.639 -16.484  1.00  0.00     0.164 HD
ENDBRANCH  38  43
ENDBRANCH  31  33
ENDBRANCH   6  29
TORSDOF 8
ENDMDL