MODEL 2
REMARK VINA RESULT: -10.088485653      1.637      2.121
REMARK  8 active torsions:
REMARK  status: ('A' for Active; 'I' for Inactive)
REMARK    1  A    between atoms: N1_1  and  C1_4
REMARK    2  A    between atoms: C3_9  and  C4_10
REMARK       I    between atoms: C4_10  and  N3_12
REMARK    3  A    between atoms: N3_12  and  C5_14
REMARK    4  A    between atoms: C8_17  and  N4_18
REMARK       I    between atoms: N4_18  and  C9_20
REMARK       I    between atoms: C9_20  and  N5_22
REMARK    5  A    between atoms: N5_22  and  C10_24
REMARK    6  A    between atoms: C13_27  and  N6_28
REMARK       I    between atoms: N6_28  and  C14_30
REMARK    7  A    between atoms: C14_30  and  C15_32
REMARK    8  A    between atoms: C18_35  and  N7_36
ROOT
HETATM    1  N4  UNL     1      -7.674 -28.128 -16.838  1.00  0.00    -0.309 N
ATOM      2  H4  UNL     1      -8.061 -28.861 -16.244  1.00  0.00     0.170 HD
HETATM    3  C9  UNL     1      -8.023 -26.815 -16.525  1.00  0.00     0.325 C
HETATM    4  O3  UNL     1      -7.568 -25.896 -17.245  1.00  0.00    -0.247 OA
HETATM    5  N5  UNL     1      -8.870 -26.498 -15.425  1.00  0.00    -0.309 N
ATOM      6  H5  UNL     1      -9.216 -27.268 -14.854  1.00  0.00     0.170 HD
ENDROOT
BRANCH   1   7
HETATM    7  C8  UNL     1      -6.841 -28.538 -17.890  1.00  0.00     0.036 A
HETATM    8  C7  UNL     1      -7.234 -29.255 -18.994  1.00  0.00     0.032 A
HETATM    9  C6  UNL     1      -6.329 -29.641 -19.988  1.00  0.00     0.032 A
HETATM   10  C5  UNL     1      -4.994 -29.323 -19.921  1.00  0.00     0.035 A
HETATM   11  C25 UNL     1      -4.589 -28.612 -18.831  1.00  0.00     0.032 A
HETATM   12  C24 UNL     1      -5.466 -28.223 -17.840  1.00  0.00     0.032 A
BRANCH  10  13
HETATM   13  N3  UNL     1      -4.126 -29.763 -20.930  1.00  0.00    -0.323 N
HETATM   14  C4  UNL     1      -3.598 -31.056 -20.972  1.00  0.00     0.262 C
HETATM   15  O2  UNL     1      -3.939 -31.860 -20.028  1.00  0.00    -0.267 OA
ATOM     16  H3  UNL     1      -3.867 -29.108 -21.668  1.00  0.00     0.169 HD
BRANCH  14  17
HETATM   17  C3  UNL     1      -2.709 -31.614 -21.954  1.00  0.00     0.101 A
HETATM   18  C1  UNL     1      -2.996 -32.354 -23.060  1.00  0.00     0.137 A
HETATM   19  N2  UNL     1      -1.785 -32.679 -23.619  1.00  0.00    -0.245 N
HETATM   20  O1  UNL     1      -0.844 -32.178 -22.913  1.00  0.00    -0.247 OA
ATOM     21  H2  UNL     1      -1.656 -33.234 -24.465  1.00  0.00     0.196 HD
HETATM   22  C2  UNL     1      -1.315 -31.527 -21.902  1.00  0.00     0.188 A
BRANCH  18  23
HETATM   23  N1  UNL     1      -4.075 -32.730 -23.609  1.00  0.00    -0.383 N
ATOM     24  H12 UNL     1      -4.328 -32.993 -24.561  1.00  0.00     0.157 HD
ATOM     25  H11 UNL     1      -4.924 -32.839 -23.055  1.00  0.00     0.157 HD
ENDBRANCH  18  23
ENDBRANCH  14  17
ENDBRANCH  10  13
ENDBRANCH   1   7
BRANCH   5  26
HETATM   26  C10 UNL     1      -9.261 -25.191 -15.071  1.00  0.00     0.036 A
HETATM   27  C11 UNL     1      -9.241 -24.837 -13.706  1.00  0.00     0.032 A
HETATM   28  C12 UNL     1      -9.628 -23.603 -13.260  1.00  0.00     0.032 A
HETATM   29  C13 UNL     1     -10.070 -22.611 -14.140  1.00  0.00     0.035 A
HETATM   30  C22 UNL     1     -10.094 -22.943 -15.464  1.00  0.00     0.032 A
HETATM   31  C23 UNL     1      -9.694 -24.218 -15.917  1.00  0.00     0.032 A
BRANCH  29  32
HETATM   32  N6  UNL     1     -10.443 -21.350 -13.597  1.00  0.00    -0.323 N
HETATM   33  C14 UNL     1     -11.611 -20.638 -13.812  1.00  0.00     0.256 C
HETATM   34  O4  UNL     1     -12.531 -21.043 -14.543  1.00  0.00    -0.267 OA
ATOM     35  H6  UNL     1      -9.764 -20.915 -12.971  1.00  0.00     0.169 HD
BRANCH  33  36
HETATM   36  C15 UNL     1     -11.821 -19.336 -13.167  1.00  0.00     0.032 A
HETATM   37  C16 UNL     1     -11.010 -18.938 -12.108  1.00  0.00     0.019 A
HETATM   38  C17 UNL     1     -11.164 -17.734 -11.459  1.00  0.00     0.030 A
HETATM   39  C18 UNL     1     -12.163 -16.846 -11.852  1.00  0.00     0.034 A
HETATM   40  C20 UNL     1     -12.966 -17.238 -12.900  1.00  0.00     0.030 A
HETATM   41  C21 UNL     1     -12.809 -18.457 -13.555  1.00  0.00     0.019 A
BRANCH  39  42
HETATM   42  N7  UNL     1     -12.349 -15.596 -11.203  1.00  0.00    -0.333 N
HETATM   43  C19 UNL     1     -12.892 -15.419 -10.062  1.00  0.00     0.201 C
HETATM   44  N8  UNL     1     -13.370 -16.528  -9.330  1.00  0.00    -0.066 NA
HETATM   45  N9  UNL     1     -13.016 -14.111  -9.533  1.00  0.00    -0.066 NA
ATOM     46  H7  UNL     1     -12.020 -14.765 -11.694  1.00  0.00     0.168 HD
ENDBRANCH  39  42
ENDBRANCH  33  36
ENDBRANCH  29  32
ENDBRANCH   5  26
TORSDOF 8
ENDMDL