MODEL 3
REMARK VINA RESULT: -10.837280402      0.638      1.199
REMARK  8 active torsions:
REMARK  status: ('A' for Active; 'I' for Inactive)
REMARK       I    between atoms: C1_4  and  N3_6
REMARK    1  A    between atoms: N3_6  and  C2_8
REMARK    2  A    between atoms: C5_11  and  C6_12
REMARK    3  A    between atoms: C9_16  and  C10_17
REMARK    4  A    between atoms: C13_20  and  C14_21
REMARK    5  A    between atoms: C14_21  and  N5_23
REMARK    6  A    between atoms: N5_23  and  O1_25
REMARK    7  A    between atoms: N6_32  and  C20_34
REMARK    8  A    between atoms: C20_34  and  C21_35
ROOT
HETATM    1  C6  UNL     1      -7.733 -26.378 -16.724  1.00  0.00     0.045 A
HETATM    2  C7  UNL     1      -8.290 -25.250 -17.298  1.00  0.00     0.050 A
HETATM    3  C8  UNL     1      -8.976 -24.316 -16.523  1.00  0.00     0.021 A
HETATM    4  S1  UNL     1      -9.771 -22.849 -16.875  1.00  0.00    -0.089 SA
HETATM    5  C9  UNL     1     -10.294 -22.435 -15.306  1.00  0.00     0.017 A
HETATM    6  C17 UNL     1      -9.821 -23.476 -14.546  1.00  0.00     0.036 A
HETATM    7  C18 UNL     1      -9.140 -24.448 -15.175  1.00  0.00     0.026 A
HETATM    8  C19 UNL     1      -8.568 -25.599 -14.605  1.00  0.00     0.117 A
HETATM    9  N6  UNL     1      -8.602 -25.912 -13.393  1.00  0.00    -0.351 N
ATOM     10  H6  UNL     1      -8.107 -26.795 -13.266  1.00  0.00     0.166 HD
HETATM   11  N8  UNL     1      -7.906 -26.485 -15.411  1.00  0.00    -0.341 N
ATOM     12  H8  UNL     1      -7.507 -27.309 -14.960  1.00  0.00     0.167 HD
ENDROOT
BRANCH   1  13
HETATM   13  C5  UNL     1      -7.009 -27.372 -17.529  1.00  0.00    -0.009 A
HETATM   14  C4  UNL     1      -5.653 -27.307 -17.647  1.00  0.00     0.016 A
HETATM   15  C3  UNL     1      -4.957 -28.241 -18.406  1.00  0.00     0.030 A
HETATM   16  C2  UNL     1      -5.614 -29.259 -19.059  1.00  0.00     0.034 A
HETATM   17  C28 UNL     1      -6.985 -29.319 -18.935  1.00  0.00     0.030 A
HETATM   18  C27 UNL     1      -7.672 -28.379 -18.173  1.00  0.00     0.016 A
BRANCH  16  19
HETATM   19  N3  UNL     1      -4.893 -30.210 -19.832  1.00  0.00    -0.331 N
HETATM   20  C1  UNL     1      -5.355 -31.527 -19.926  1.00  0.00     0.186 C
HETATM   21  N1  UNL     1      -5.926 -31.931 -21.002  1.00  0.00    -0.373 N
HETATM   22  N2  UNL     1      -5.191 -32.413 -18.832  1.00  0.00    -0.064 NA
ATOM     23  H12 UNL     1      -6.263 -32.891 -21.071  1.00  0.00     0.158 HD
ATOM     24  H11 UNL     1      -6.044 -31.294 -21.790  1.00  0.00     0.158 HD
ATOM     25  H3  UNL     1      -4.039 -29.932 -20.317  1.00  0.00     0.168 HD
ENDBRANCH  16  19
ENDBRANCH   1  13
BRANCH   9  26
HETATM   26  C20 UNL     1      -9.071 -25.483 -12.175  1.00  0.00     0.101 C
BRANCH  26  27
HETATM   27  C21 UNL     1      -8.367 -24.273 -11.632  1.00  0.00    -0.021 A
HETATM   28  C22 UNL     1      -7.011 -24.100 -11.729  1.00  0.00     0.014 A
HETATM   29  C23 UNL     1      -6.390 -22.966 -11.214  1.00  0.00     0.027 A
HETATM   30  C24 UNL     1      -7.142 -21.998 -10.597  1.00  0.00     0.046 A
HETATM   31  N7  UNL     1      -6.501 -20.823 -10.063  1.00  0.00    -0.102 NA
HETATM   32  C25 UNL     1      -8.497 -22.160 -10.494  1.00  0.00     0.027 A
HETATM   33  C26 UNL     1      -9.103 -23.295 -11.010  1.00  0.00     0.014 A
ENDBRANCH  26  27
ENDBRANCH   9  26
BRANCH   5  34
HETATM   34  C10 UNL     1     -11.064 -21.257 -14.852  1.00  0.00    -0.019 A
HETATM   35  C11 UNL     1     -11.260 -21.131 -13.517  1.00  0.00     0.014 A
HETATM   36  C12 UNL     1     -11.980 -20.042 -13.016  1.00  0.00     0.016 A
HETATM   37  C13 UNL     1     -12.507 -19.078 -13.838  1.00  0.00     0.007 A
HETATM   38  C15 UNL     1     -12.259 -19.283 -15.207  1.00  0.00     0.016 A
HETATM   39  C16 UNL     1     -11.562 -20.332 -15.719  1.00  0.00     0.014 A
BRANCH  37  40
HETATM   40  C14 UNL     1     -13.263 -17.921 -13.407  1.00  0.00     0.146 C
HETATM   41  N4  UNL     1     -13.622 -16.969 -14.435  1.00  0.00    -0.080 NA
BRANCH  40  42
HETATM   42  N5  UNL     1     -13.642 -17.649 -12.251  1.00  0.00    -0.255 N
ATOM     43  H5  UNL     1     -12.927 -17.256 -11.638  1.00  0.00     0.195 HD
BRANCH  42  44
HETATM   44  O1  UNL     1     -14.831 -17.795 -11.707  1.00  0.00    -0.288 OA
ATOM     45  H1  UNL     1     -15.683 -17.839 -12.125  1.00  0.00     0.244 HD
ENDBRANCH  42  44
ENDBRANCH  40  42
ENDBRANCH  37  40
ENDBRANCH   5  34
TORSDOF 8
ENDMDL