MODEL 4
REMARK VINA RESULT: -9.573182058      6.146     15.156
REMARK  10 active torsions:
REMARK  status: ('A' for Active; 'I' for Inactive)
REMARK    1  A    between atoms: N1_1  and  C1_4
REMARK    2  A    between atoms: C2_7  and  N3_8
REMARK    3  A    between atoms: C3_13  and  N5_14
REMARK    4  A    between atoms: N5_14  and  C4_16
REMARK    5  A    between atoms: C7_19  and  C8_20
REMARK       I    between atoms: C8_20  and  N6_22
REMARK    6  A    between atoms: N6_22  and  C9_24
REMARK    7  A    between atoms: C12_27  and  O2_28
REMARK    8  A    between atoms: O2_28  and  C13_29
REMARK    9  A    between atoms: C16_32  and  N7_33
REMARK       I    between atoms: N7_33  and  C17_35
REMARK   10  A    between atoms: C17_35  and  C18_37
ROOT
HETATM    1  C8  UNL     1      -9.322 -22.237 -13.405  1.00  0.00     0.256 C
HETATM    2  O1  UNL     1      -9.761 -21.487 -14.303  1.00  0.00    -0.267 OA
HETATM    3  N6  UNL     1      -8.963 -21.839 -12.106  1.00  0.00    -0.323 N
ATOM      4  H6  UNL     1      -8.611 -22.543 -11.457  1.00  0.00     0.169 HD
ENDROOT
BRANCH   1   5
HETATM    5  C7  UNL     1      -9.185 -23.652 -13.785  1.00  0.00     0.032 A
HETATM    6  C6  UNL     1      -9.418 -24.000 -15.088  1.00  0.00     0.019 A
HETATM    7  C5  UNL     1      -9.278 -25.336 -15.440  1.00  0.00     0.031 A
HETATM    8  C4  UNL     1      -8.915 -26.273 -14.497  1.00  0.00     0.049 A
HETATM    9  C27 UNL     1      -8.675 -25.938 -13.177  1.00  0.00     0.031 A
HETATM   10  C26 UNL     1      -8.817 -24.612 -12.837  1.00  0.00     0.019 A
BRANCH   8  11
HETATM   11  N5  UNL     1      -8.779 -27.636 -14.896  1.00  0.00    -0.191 N
ATOM     12  H5  UNL     1      -9.197 -28.364 -14.316  1.00  0.00     0.184 HD
BRANCH  11  13
HETATM   13  C3  UNL     1      -8.146 -27.977 -15.965  1.00  0.00     0.711 A
HETATM   14  N4  UNL     1      -6.866 -27.641 -16.125  1.00  0.00    -0.021 N
HETATM   15  C2  UNL     1      -6.141 -27.958 -17.205  1.00  0.00     0.705 A
ATOM     16  H4  UNL     1      -6.413 -27.111 -15.381  1.00  0.00     0.203 HD
HETATM   17  N2  UNL     1      -6.752 -28.657 -18.176  1.00  0.00    -0.022 N
HETATM   18  C1  UNL     1      -8.042 -29.027 -18.074  1.00  0.00     0.705 A
ATOM     19  H2  UNL     1      -6.225 -28.913 -19.011  1.00  0.00     0.203 HD
HETATM   20  N8  UNL     1      -8.731 -28.677 -16.954  1.00  0.00    -0.021 N
ATOM     21  H8  UNL     1      -9.709 -28.951 -16.864  1.00  0.00     0.203 HD
BRANCH  15  22
HETATM   22  N3  UNL     1      -4.925 -27.609 -17.299  1.00  0.00    -0.234 N
ATOM     23  H32 UNL     1      -4.572 -26.797 -16.792  1.00  0.00     0.174 HD
ATOM     24  H31 UNL     1      -4.263 -28.123 -17.880  1.00  0.00     0.174 HD
ENDBRANCH  15  22
BRANCH  18  25
HETATM   25  N1  UNL     1      -8.595 -29.700 -19.032  1.00  0.00    -0.234 N
ATOM     26  H12 UNL     1      -8.498 -30.712 -19.103  1.00  0.00     0.174 HD
ATOM     27  H11 UNL     1      -9.144 -29.214 -19.741  1.00  0.00     0.174 HD
ENDBRANCH  18  25
ENDBRANCH  11  13
ENDBRANCH   8  11
ENDBRANCH   1   5
BRANCH   3  28
HETATM   28  C9  UNL     1      -9.072 -20.503 -11.665  1.00  0.00     0.035 A
HETATM   29  C10 UNL     1     -10.228 -19.799 -11.480  1.00  0.00     0.032 A
HETATM   30  C11 UNL     1     -10.234 -18.461 -11.058  1.00  0.00     0.039 A
HETATM   31  C12 UNL     1      -9.071 -17.791 -10.808  1.00  0.00     0.076 A
HETATM   32  C24 UNL     1      -7.888 -18.478 -10.985  1.00  0.00     0.039 A
HETATM   33  C25 UNL     1      -7.893 -19.776 -11.396  1.00  0.00     0.032 A
BRANCH  31  34
HETATM   34  O2  UNL     1      -9.051 -16.451 -10.384  1.00  0.00    -0.311 OA
BRANCH  34  35
HETATM   35  C13 UNL     1     -10.318 -15.870 -10.181  1.00  0.00     0.076 A
HETATM   36  C14 UNL     1     -11.066 -15.419 -11.225  1.00  0.00     0.039 A
HETATM   37  C15 UNL     1     -12.317 -14.848 -10.995  1.00  0.00     0.032 A
HETATM   38  C16 UNL     1     -12.808 -14.734  -9.712  1.00  0.00     0.035 A
HETATM   39  C22 UNL     1     -12.025 -15.201  -8.665  1.00  0.00     0.032 A
HETATM   40  C23 UNL     1     -10.804 -15.756  -8.900  1.00  0.00     0.039 A
BRANCH  38  41
HETATM   41  N7  UNL     1     -14.063 -14.190  -9.381  1.00  0.00    -0.321 N
HETATM   42  C17 UNL     1     -14.508 -12.868  -9.515  1.00  0.00     0.279 C
HETATM   43  O3  UNL     1     -13.771 -11.978  -9.982  1.00  0.00    -0.265 OA
ATOM     44  H7  UNL     1     -14.740 -14.846  -8.991  1.00  0.00     0.169 HD
BRANCH  42  45
HETATM   45  C18 UNL     1     -15.893 -12.517  -9.087  1.00  0.00     0.142 A
HETATM   46  C19 UNL     1     -16.343 -12.536  -7.791  1.00  0.00     0.045 A
HETATM   47  C20 UNL     1     -17.680 -12.144  -7.857  1.00  0.00     0.027 A
HETATM   48  C21 UNL     1     -17.952 -11.915  -9.184  1.00  0.00     0.143 A
HETATM   49  O4  UNL     1     -16.861 -12.151  -9.869  1.00  0.00    -0.317 OA
ENDBRANCH  42  45
ENDBRANCH  38  41
ENDBRANCH  34  35
ENDBRANCH  31  34
ENDBRANCH   3  28
TORSDOF 10
ENDMDL