MODEL 5
REMARK VINA RESULT: -10.419177503      2.988      5.337
REMARK  9 active torsions:
REMARK  status: ('A' for Active; 'I' for Inactive)
REMARK    1  A    between atoms: N1_1  and  C1_4
REMARK    2  A    between atoms: C4_7  and  C5_8
REMARK    3  A    between atoms: C6_9  and  C7_10
REMARK    4  A    between atoms: C7_10  and  N2_11
REMARK    5  A    between atoms: N2_11  and  C8_13
REMARK    6  A    between atoms: C11_16  and  C12_17
REMARK    7  A    between atoms: C16_21  and  C17_22
REMARK    8  A    between atoms: C27_38  and  C28_39
REMARK    9  A    between atoms: C28_39  and  O1_40
ROOT
HETATM    1  C7  UNL     1     -11.385 -19.611 -14.339  1.00  0.00     0.177 C
ENDROOT
BRANCH   1   2
HETATM    2  C6  UNL     1     -12.800 -19.329 -14.003  1.00  0.00     0.044 A
HETATM    3  C5  UNL     1     -13.106 -18.794 -12.788  1.00  0.00     0.060 A
HETATM    4  C29 UNL     1     -14.435 -18.546 -12.507  1.00  0.00     0.114 A
HETATM    5  N6  UNL     1     -15.381 -18.839 -13.438  1.00  0.00    -0.330 N
HETATM    6  N7  UNL     1     -14.748 -18.040 -11.366  1.00  0.00    -0.385 N
HETATM    7  C27 UNL     1     -15.062 -19.365 -14.630  1.00  0.00     0.107 A
ATOM      8  H6  UNL     1     -16.361 -18.655 -13.225  1.00  0.00     0.168 HD
HETATM    9  N5  UNL     1     -13.765 -19.603 -14.894  1.00  0.00    -0.345 N
ATOM     10  H5  UNL     1     -13.508 -20.002 -15.795  1.00  0.00     0.167 HD
ATOM     11  H72 UNL     1     -14.038 -17.820 -10.667  1.00  0.00     0.157 HD
ATOM     12  H71 UNL     1     -15.730 -17.857 -11.157  1.00  0.00     0.157 HD
BRANCH   3  13
HETATM   13  C4  UNL     1     -12.018 -18.514 -11.861  1.00  0.00     0.064 A
HETATM   14  C3  UNL     1     -11.508 -17.251 -11.633  1.00  0.00     0.036 A
HETATM   15  C2  UNL     1     -10.464 -17.044 -10.732  1.00  0.00     0.051 A
HETATM   16  C1  UNL     1      -9.934 -18.124 -10.056  1.00  0.00     0.113 A
HETATM   17  N9  UNL     1     -10.464 -19.334 -10.312  1.00  0.00    -0.285 N
HETATM   18  N8  UNL     1     -11.458 -19.525 -11.172  1.00  0.00    -0.298 N
ATOM     19  H9  UNL     1     -10.085 -20.143  -9.821  1.00  0.00     0.188 HD
ATOM     20  H8  UNL     1     -11.808 -20.472 -11.315  1.00  0.00     0.187 HD
BRANCH  16  21
HETATM   21  N1  UNL     1      -8.960 -17.972  -9.207  1.00  0.00    -0.384 N
ATOM     22  H12 UNL     1      -8.555 -17.055  -9.016  1.00  0.00     0.157 HD
ATOM     23  H11 UNL     1      -8.570 -18.770  -8.704  1.00  0.00     0.157 HD
ENDBRANCH  16  21
ENDBRANCH   3  13
BRANCH   7  24
HETATM   24  C28 UNL     1     -16.137 -19.673 -15.626  1.00  0.00     0.240 C
BRANCH  24  25
HETATM   25  O1  UNL     1     -16.492 -20.993 -15.513  1.00  0.00    -0.393 OA
ATOM     26  H1  UNL     1     -16.784 -21.311 -16.359  1.00  0.00     0.209 HD
ENDBRANCH  24  25
ENDBRANCH   7  24
ENDBRANCH   1   2
BRANCH   1  27
HETATM   27  N2  UNL     1     -11.248 -20.494 -15.454  1.00  0.00    -0.384 N
ATOM     28  H2  UNL     1     -11.612 -20.224 -16.368  1.00  0.00     0.160 HD
BRANCH  27  29
HETATM   29  C8  UNL     1     -10.605 -21.745 -15.287  1.00  0.00     0.028 A
HETATM   30  C9  UNL     1     -10.204 -22.531 -16.356  1.00  0.00     0.030 A
HETATM   31  C10 UNL     1      -9.578 -23.749 -16.162  1.00  0.00     0.014 A
HETATM   32  C11 UNL     1      -9.337 -24.213 -14.889  1.00  0.00    -0.026 A
HETATM   33  C25 UNL     1      -9.724 -23.453 -13.820  1.00  0.00     0.014 A
HETATM   34  C26 UNL     1     -10.346 -22.241 -14.034  1.00  0.00     0.030 A
BRANCH  32  35
HETATM   35  C12 UNL     1      -8.676 -25.499 -14.744  1.00  0.00    -0.025 A
HETATM   36  C13 UNL     1      -8.617 -26.138 -13.524  1.00  0.00     0.012 A
HETATM   37  C14 UNL     1      -7.981 -27.360 -13.418  1.00  0.00     0.002 A
HETATM   38  C15 UNL     1      -7.411 -27.927 -14.541  1.00  0.00     0.015 A
HETATM   39  C16 UNL     1      -7.453 -27.312 -15.773  1.00  0.00     0.009 A
HETATM   40  C24 UNL     1      -8.092 -26.100 -15.847  1.00  0.00     0.027 A
BRANCH  39  41
HETATM   41  C17 UNL     1      -6.852 -27.903 -16.965  1.00  0.00     0.116 A
HETATM   42  N3  UNL     1      -7.433 -28.811 -17.768  1.00  0.00    -0.340 N
HETATM   43  C18 UNL     1      -6.606 -29.144 -18.774  1.00  0.00     0.060 A
ATOM     44  H3  UNL     1      -8.369 -29.193 -17.632  1.00  0.00     0.167 HD
HETATM   45  C19 UNL     1      -6.692 -30.004 -19.854  1.00  0.00     0.032 A
HETATM   46  C23 UNL     1      -5.447 -28.403 -18.588  1.00  0.00     0.060 A
HETATM   47  C20 UNL     1      -5.661 -30.153 -20.755  1.00  0.00     0.002 A
HETATM   48  C21 UNL     1      -4.488 -29.415 -20.581  1.00  0.00     0.002 A
HETATM   49  C22 UNL     1      -4.426 -28.565 -19.500  1.00  0.00     0.032 A
HETATM   50  N4  UNL     1      -5.631 -27.662 -17.481  1.00  0.00    -0.340 N
ATOM     51  H4  UNL     1      -4.947 -27.013 -17.089  1.00  0.00     0.167 HD
ENDBRANCH  39  41
ENDBRANCH  32  35
ENDBRANCH  27  29
ENDBRANCH   1  27
TORSDOF 9
ENDMDL