MODEL 5
REMARK VINA RESULT: -10.915543210      0.435      1.305
REMARK  10 active torsions:
REMARK  status: ('A' for Active; 'I' for Inactive)
REMARK    1  A    between atoms: N1_1  and  C1_4
REMARK    2  A    between atoms: C3_6  and  C4_7
REMARK    3  A    between atoms: C8_11  and  C9_12
REMARK    4  A    between atoms: C11_14  and  C12_15
REMARK    5  A    between atoms: C16_19  and  O1_20
REMARK    6  A    between atoms: O1_20  and  C17_21
REMARK    7  A    between atoms: C21_25  and  N2_26
REMARK    8  A    between atoms: N2_26  and  S1_28
REMARK    9  A    between atoms: S1_28  and  N3_29
REMARK   10  A    between atoms: C25_42  and  N6_43
ROOT
HETATM    1  C9  UNL     1     -10.105 -23.037 -15.228  1.00  0.00     0.111 A
HETATM    2  C10 UNL     1     -10.690 -22.033 -14.486  1.00  0.00     0.072 A
HETATM    3  C11 UNL     1     -11.268 -21.128 -15.352  1.00  0.00     0.068 A
HETATM    4  N4  UNL     1     -11.009 -21.621 -16.578  1.00  0.00    -0.260 N
ATOM      5  H4  UNL     1     -11.300 -21.188 -17.454  1.00  0.00     0.195 HD
HETATM    6  O4  UNL     1     -10.338 -22.721 -16.486  1.00  0.00    -0.237 OA
ENDROOT
BRANCH   3   7
HETATM    7  C12 UNL     1     -12.002 -19.904 -15.022  1.00  0.00    -0.005 A
HETATM    8  C13 UNL     1     -12.609 -19.144 -15.994  1.00  0.00     0.014 A
HETATM    9  C14 UNL     1     -13.304 -17.990 -15.704  1.00  0.00     0.004 A
HETATM   10  C15 UNL     1     -13.397 -17.573 -14.369  1.00  0.00     0.037 A
HETATM   11  C16 UNL     1     -12.798 -18.319 -13.385  1.00  0.00     0.076 A
HETATM   12  C23 UNL     1     -12.112 -19.465 -13.707  1.00  0.00     0.051 A
BRANCH  11  13
HETATM   13  O1  UNL     1     -12.886 -17.915 -12.080  1.00  0.00    -0.311 OA
BRANCH  13  14
HETATM   14  C17 UNL     1     -11.944 -17.192 -11.393  1.00  0.00     0.078 A
HETATM   15  C18 UNL     1     -11.949 -15.818 -11.512  1.00  0.00     0.037 A
HETATM   16  C19 UNL     1     -11.013 -15.065 -10.832  1.00  0.00     0.005 A
HETATM   17  C20 UNL     1     -10.091 -15.705 -10.046  1.00  0.00     0.030 A
HETATM   18  C21 UNL     1     -10.046 -17.098  -9.893  1.00  0.00     0.046 A
HETATM   19  C22 UNL     1     -11.011 -17.798 -10.600  1.00  0.00     0.067 A
BRANCH  18  20
HETATM   20  N2  UNL     1      -9.085 -17.726  -9.077  1.00  0.00    -0.268 N
ATOM     21  H2  UNL     1      -9.291 -17.798  -8.081  1.00  0.00     0.180 HD
BRANCH  20  22
HETATM   22  S1  UNL     1      -7.592 -18.380  -9.623  1.00  0.00     0.317 S
HETATM   23  O2  UNL     1      -6.403 -17.858  -8.885  1.00  0.00    -0.183 OA
HETATM   24  O3  UNL     1      -7.400 -17.978 -11.076  1.00  0.00    -0.183 OA
BRANCH  22  25
HETATM   25  N3  UNL     1      -7.627 -20.119  -9.603  1.00  0.00    -0.311 N
ATOM     26  H32 UNL     1      -6.891 -20.695  -9.193  1.00  0.00     0.170 HD
ATOM     27  H31 UNL     1      -8.471 -20.474 -10.053  1.00  0.00     0.170 HD
ENDBRANCH  22  25
ENDBRANCH  20  22
ENDBRANCH  18  20
ENDBRANCH  13  14
ENDBRANCH  11  13
ENDBRANCH   3   7
BRANCH   1  28
HETATM   28  C8  UNL     1      -9.378 -24.209 -14.775  1.00  0.00     0.001 A
HETATM   29  C7  UNL     1      -9.158 -24.465 -13.442  1.00  0.00     0.014 A
HETATM   30  C6  UNL     1      -8.460 -25.593 -13.031  1.00  0.00     0.002 A
HETATM   31  C5  UNL     1      -7.971 -26.485 -13.982  1.00  0.00     0.014 A
HETATM   32  C4  UNL     1      -8.173 -26.260 -15.319  1.00  0.00    -0.008 A
HETATM   33  C24 UNL     1      -8.869 -25.132 -15.686  1.00  0.00     0.028 A
BRANCH  32  34
HETATM   34  C3  UNL     1      -7.666 -27.188 -16.326  1.00  0.00     0.063 A
HETATM   35  C2  UNL     1      -8.456 -28.147 -16.917  1.00  0.00     0.079 A
HETATM   36  C1  UNL     1      -7.932 -29.021 -17.882  1.00  0.00     0.116 A
HETATM   37  N7  UNL     1      -6.642 -28.903 -18.218  1.00  0.00    -0.177 N
HETATM   38  C25 UNL     1      -5.850 -27.975 -17.656  1.00  0.00     0.677 A
ATOM     39  H7  UNL     1      -6.251 -29.534 -18.919  1.00  0.00     0.185 HD
HETATM   40  N5  UNL     1      -6.373 -27.139 -16.725  1.00  0.00    -0.191 N
ATOM     41  H5  UNL     1      -5.762 -26.438 -16.305  1.00  0.00     0.184 HD
BRANCH  36  42
HETATM   42  N1  UNL     1      -8.686 -29.890 -18.404  1.00  0.00    -0.385 N
ATOM     43  H12 UNL     1      -9.625 -30.075 -18.053  1.00  0.00     0.157 HD
ATOM     44  H11 UNL     1      -8.349 -30.427 -19.204  1.00  0.00     0.157 HD
ENDBRANCH  36  42
BRANCH  38  45
HETATM   45  N6  UNL     1      -4.616 -27.912 -18.024  1.00  0.00    -0.234 N
ATOM     46  H62 UNL     1      -4.218 -26.999 -18.243  1.00  0.00     0.174 HD
ATOM     47  H61 UNL     1      -4.027 -28.742 -18.104  1.00  0.00     0.174 HD
ENDBRANCH  38  45
ENDBRANCH  32  34
ENDBRANCH   1  28
TORSDOF 10
ENDMDL