MODEL 3
REMARK VINA RESULT: -10.409769592      0.923      1.555
REMARK  10 active torsions:
REMARK  status: ('A' for Active; 'I' for Inactive)
REMARK    1  A    between atoms: C2_2  and  N1_3
REMARK    2  A    between atoms: C2_2  and  C3_7
REMARK    3  A    between atoms: C2_2  and  C4_12
REMARK    4  A    between atoms: C3_7  and  N2_8
REMARK    5  A    between atoms: C7_15  and  C8_16
REMARK    6  A    between atoms: C10_18  and  N3_19
REMARK    7  A    between atoms: N3_19  and  N4_20
REMARK    8  A    between atoms: N3_19  and  C11_23
REMARK    9  A    between atoms: C11_23  and  C12_24
REMARK   10  A    between atoms: C15_27  and  C16_28
ROOT
HETATM    1  C8  UNL     1     -10.037 -22.760 -14.667  1.00  0.00     0.046 A
HETATM    2  C9  UNL     1      -9.466 -23.338 -13.569  1.00  0.00     0.064 A
HETATM    3  C10 UNL     1      -8.461 -24.256 -13.656  1.00  0.00     0.083 A
HETATM    4  C25 UNL     1      -8.022 -24.600 -14.926  1.00  0.00     0.109 A
HETATM    5  N7  UNL     1      -7.070 -25.459 -15.288  1.00  0.00    -0.303 N
ATOM      6  H7  UNL     1      -6.488 -26.025 -14.670  1.00  0.00     0.171 HD
HETATM    7  C26 UNL     1      -7.030 -25.429 -16.640  1.00  0.00     0.326 A
HETATM    8  O1  UNL     1      -6.250 -26.115 -17.326  1.00  0.00    -0.247 OA
HETATM    9  N8  UNL     1      -7.944 -24.568 -17.115  1.00  0.00    -0.292 N
ATOM     10  H8  UNL     1      -8.121 -24.360 -18.097  1.00  0.00     0.172 HD
HETATM   11  C27 UNL     1      -8.589 -24.025 -16.050  1.00  0.00     0.139 A
HETATM   12  N9  UNL     1      -9.561 -23.140 -15.891  1.00  0.00    -0.340 N
ATOM     13  H9  UNL     1      -9.975 -22.722 -16.723  1.00  0.00     0.167 HD
ENDROOT
BRANCH   3  14
HETATM   14  N3  UNL     1      -7.832 -24.889 -12.530  1.00  0.00    -0.292 N
BRANCH  14  15
HETATM   15  N4  UNL     1      -7.824 -26.269 -12.556  1.00  0.00    -0.342 N
ATOM     16  H42 UNL     1      -7.015 -26.880 -12.666  1.00  0.00     0.177 HD
ATOM     17  H41 UNL     1      -8.737 -26.713 -12.467  1.00  0.00     0.177 HD
ENDBRANCH  14  15
BRANCH  14  18
HETATM   18  C11 UNL     1      -7.282 -24.048 -11.539  1.00  0.00     0.187 C
BRANCH  18  19
HETATM   19  C12 UNL     1      -8.031 -22.881 -11.063  1.00  0.00    -0.038 A
HETATM   20  C13 UNL     1      -7.574 -21.605 -11.455  1.00  0.00     0.010 A
HETATM   21  C14 UNL     1      -8.210 -20.448 -11.125  1.00  0.00     0.016 A
HETATM   22  C15 UNL     1      -9.374 -20.513 -10.364  1.00  0.00     0.008 A
HETATM   23  C23 UNL     1      -9.830 -21.748  -9.971  1.00  0.00     0.016 A
HETATM   24  C24 UNL     1      -9.172 -22.921 -10.312  1.00  0.00     0.010 A
BRANCH  22  25
HETATM   25  C16 UNL     1     -10.089 -19.282 -10.033  1.00  0.00     0.116 A
HETATM   26  N5  UNL     1     -11.407 -19.225  -9.770  1.00  0.00    -0.340 N
HETATM   27  C17 UNL     1     -11.781 -17.983  -9.466  1.00  0.00     0.060 A
ATOM     28  H5  UNL     1     -12.038 -20.027  -9.801  1.00  0.00     0.167 HD
HETATM   29  C18 UNL     1     -13.009 -17.460  -9.133  1.00  0.00     0.032 A
HETATM   30  C22 UNL     1     -10.639 -17.208  -9.539  1.00  0.00     0.060 A
HETATM   31  C19 UNL     1     -13.107 -16.113  -8.853  1.00  0.00     0.002 A
HETATM   32  C20 UNL     1     -11.965 -15.326  -8.918  1.00  0.00     0.002 A
HETATM   33  C21 UNL     1     -10.741 -15.869  -9.258  1.00  0.00     0.032 A
HETATM   34  N6  UNL     1      -9.635 -18.040  -9.887  1.00  0.00    -0.340 N
ATOM     35  H6  UNL     1      -8.664 -17.757 -10.020  1.00  0.00     0.167 HD
ENDBRANCH  22  25
ENDBRANCH  18  19
ENDBRANCH  14  18
ENDBRANCH   3  14
BRANCH   1  36
HETATM   36  C7  UNL     1     -11.111 -21.782 -14.588  1.00  0.00    -0.009 A
HETATM   37  C6  UNL     1     -11.779 -21.396 -15.755  1.00  0.00     0.014 A
HETATM   38  C5  UNL     1     -12.816 -20.490 -15.757  1.00  0.00     0.011 A
HETATM   39  C4  UNL     1     -13.241 -19.925 -14.579  1.00  0.00    -0.021 A
HETATM   40  C29 UNL     1     -12.596 -20.293 -13.428  1.00  0.00     0.011 A
HETATM   41  C28 UNL     1     -11.538 -21.214 -13.422  1.00  0.00     0.014 A
BRANCH  39  42
HETATM   42  C2  UNL     1     -14.371 -18.968 -14.595  1.00  0.00     0.170 C
HETATM   43  C1  UNL     1     -13.912 -17.608 -15.138  1.00  0.00     0.053 C
BRANCH  42  44
HETATM   44  N1  UNL     1     -14.863 -18.708 -13.227  1.00  0.00    -0.065 N
ATOM     45  H13 UNL     1     -15.751 -19.165 -13.019  1.00  0.00     0.275 HD
ATOM     46  H12 UNL     1     -14.315 -19.169 -12.502  1.00  0.00     0.275 HD
ATOM     47  H11 UNL     1     -14.894 -17.692 -13.132  1.00  0.00     0.275 HD
ENDBRANCH  42  44
BRANCH  42  48
HETATM   48  C3  UNL     1     -15.549 -19.439 -15.377  1.00  0.00     0.272 C
BRANCH  48  49
HETATM   49  N2  UNL     1     -16.111 -20.585 -14.647  1.00  0.00    -0.077 N
ATOM     50  H23 UNL     1     -15.901 -21.483 -15.085  1.00  0.00     0.274 HD
ATOM     51  H22 UNL     1     -15.644 -20.764 -13.757  1.00  0.00     0.274 HD
ATOM     52  H21 UNL     1     -17.110 -20.410 -14.548  1.00  0.00     0.274 HD
ENDBRANCH  48  49
ENDBRANCH  42  48
ENDBRANCH  39  42
ENDBRANCH   1  36
TORSDOF 10
ENDMDL