MODEL 4
REMARK VINA RESULT: -9.864886757      3.460      9.240
REMARK  10 active torsions:
REMARK  status: ('A' for Active; 'I' for Inactive)
REMARK    1  A    between atoms: N1_1  and  C1_4
REMARK    2  A    between atoms: C1_4  and  C2_6
REMARK    3  A    between atoms: C5_9  and  C6_10
REMARK    4  A    between atoms: C9_13  and  O1_14
REMARK    5  A    between atoms: O1_14  and  C10_15
REMARK    6  A    between atoms: C13_18  and  N3_19
REMARK    7  A    between atoms: N3_19  and  C14_21
REMARK    8  A    between atoms: C15_25  and  N5_26
REMARK    9  A    between atoms: N5_26  and  C16_28
REMARK   10  A    between atoms: C18_30  and  C19_31
ROOT
HETATM    1  C10 UNL     1      -8.253 -20.998  -9.185  1.00  0.00     0.148 A
HETATM    2  C11 UNL     1      -7.138 -20.214  -8.986  1.00  0.00     0.059 A
HETATM    3  C12 UNL     1      -7.218 -18.833  -9.158  1.00  0.00     0.036 A
HETATM    4  C13 UNL     1      -8.407 -18.235  -9.526  1.00  0.00     0.064 A
HETATM    5  C21 UNL     1      -9.495 -19.062  -9.714  1.00  0.00     0.120 A
HETATM    6  N10 UNL     1      -9.398 -20.395  -9.543  1.00  0.00    -0.344 N
ATOM      7  H10 UNL     1     -10.228 -20.968  -9.693  1.00  0.00     0.167 HD
ENDROOT
BRANCH   4   8
HETATM    8  N3  UNL     1      -8.555 -16.847  -9.714  1.00  0.00    -0.190 N
ATOM      9  H3  UNL     1      -7.735 -16.247  -9.800  1.00  0.00     0.184 HD
BRANCH   8  10
HETATM   10  C14 UNL     1      -9.765 -16.334  -9.778  1.00  0.00     0.691 A
HETATM   11  N4  UNL     1     -10.282 -15.786  -8.680  1.00  0.00    -0.157 N
HETATM   12  S1  UNL     1     -11.799 -15.268  -9.188  1.00  0.00     0.039 SA
ATOM     13  H4  UNL     1      -9.861 -15.701  -7.755  1.00  0.00     0.193 HD
HETATM   14  C15 UNL     1     -11.707 -15.781 -10.811  1.00  0.00     0.182 A
HETATM   15  N9  UNL     1     -10.492 -16.333 -10.873  1.00  0.00    -0.168 N
ATOM     16  H9  UNL     1     -10.142 -16.740 -11.740  1.00  0.00     0.186 HD
BRANCH  14  17
HETATM   17  N5  UNL     1     -12.593 -15.674 -11.782  1.00  0.00    -0.321 N
ATOM     18  H5  UNL     1     -13.001 -14.776 -12.043  1.00  0.00     0.169 HD
BRANCH  17  19
HETATM   19  C16 UNL     1     -12.945 -16.879 -12.446  1.00  0.00     0.107 A
HETATM   20  C17 UNL     1     -13.048 -17.030 -13.834  1.00  0.00     0.064 A
HETATM   21  C18 UNL     1     -13.407 -18.326 -14.123  1.00  0.00     0.024 A
HETATM   22  C20 UNL     1     -13.525 -18.971 -12.915  1.00  0.00     0.104 A
HETATM   23  N8  UNL     1     -13.241 -18.076 -11.925  1.00  0.00    -0.351 N
ATOM     24  H8  UNL     1     -13.252 -18.289 -10.927  1.00  0.00     0.166 HD
BRANCH  21  25
HETATM   25  C19 UNL     1     -13.610 -18.855 -15.458  1.00  0.00     0.121 C
HETATM   26  N6  UNL     1     -13.660 -18.088 -16.492  1.00  0.00    -0.387 N
ATOM     27  H62 UNL     1     -13.556 -17.081 -16.373  1.00  0.00     0.157 HD
ATOM     28  H61 UNL     1     -13.802 -18.461 -17.431  1.00  0.00     0.157 HD
HETATM   29  N7  UNL     1     -13.754 -20.251 -15.625  1.00  0.00    -0.082 NA
ENDBRANCH  21  25
ENDBRANCH  17  19
ENDBRANCH  14  17
ENDBRANCH   8  10
ENDBRANCH   4   8
BRANCH   1  30
HETATM   30  O1  UNL     1      -8.140 -22.378  -9.005  1.00  0.00    -0.294 OA
BRANCH  30  31
HETATM   31  C9  UNL     1      -8.170 -23.167 -10.148  1.00  0.00     0.077 A
HETATM   32  C8  UNL     1      -6.986 -23.556 -10.735  1.00  0.00     0.038 A
HETATM   33  C7  UNL     1      -6.996 -24.346 -11.878  1.00  0.00     0.015 A
HETATM   34  C6  UNL     1      -8.184 -24.764 -12.463  1.00  0.00    -0.026 A
HETATM   35  C23 UNL     1      -9.353 -24.357 -11.854  1.00  0.00     0.015 A
HETATM   36  C22 UNL     1      -9.356 -23.565 -10.704  1.00  0.00     0.038 A
BRANCH  34  37
HETATM   37  C5  UNL     1      -8.198 -25.590 -13.664  1.00  0.00    -0.026 A
HETATM   38  C4  UNL     1      -8.872 -25.231 -14.810  1.00  0.00     0.013 A
HETATM   39  C3  UNL     1      -8.898 -26.003 -15.965  1.00  0.00     0.015 A
HETATM   40  C2  UNL     1      -8.212 -27.194 -15.963  1.00  0.00     0.004 A
HETATM   41  C25 UNL     1      -7.515 -27.598 -14.819  1.00  0.00     0.015 A
HETATM   42  C24 UNL     1      -7.524 -26.791 -13.704  1.00  0.00     0.013 A
BRANCH  40  43
HETATM   43  C1  UNL     1      -8.208 -28.033 -17.138  1.00  0.00     0.120 C
HETATM   44  N2  UNL     1      -9.060 -29.191 -17.149  1.00  0.00    -0.082 NA
BRANCH  43  45
HETATM   45  N1  UNL     1      -7.493 -27.795 -18.151  1.00  0.00    -0.387 N
ATOM     46  H12 UNL     1      -6.677 -27.184 -18.123  1.00  0.00     0.157 HD
ATOM     47  H11 UNL     1      -7.739 -28.231 -19.040  1.00  0.00     0.157 HD
ENDBRANCH  43  45
ENDBRANCH  40  43
ENDBRANCH  34  37
ENDBRANCH  30  31
ENDBRANCH   1  30
TORSDOF 10
ENDMDL