MODEL 4
REMARK VINA RESULT: -9.765549717      0.855      2.580
REMARK  9 active torsions:
REMARK  status: ('A' for Active; 'I' for Inactive)
REMARK    1  A    between atoms: C2_3  and  C3_4
REMARK    2  A    between atoms: C4_7  and  C5_8
REMARK    3  A    between atoms: C11_16  and  N4_17
REMARK    4  A    between atoms: N5_19  and  C12_21
REMARK    5  A    between atoms: C15_24  and  C16_25
REMARK    6  A    between atoms: C19_28  and  O1_29
REMARK    7  A    between atoms: C24_37  and  C25_38
REMARK    8  A    between atoms: C25_38  and  C26_39
REMARK    9  A    between atoms: C26_39  and  N8_40
ROOT
HETATM    1  C3  UNL     1      -6.635 -22.830 -14.272  1.00  0.00     0.108 A
HETATM    2  N2  UNL     1      -7.063 -22.334 -13.085  1.00  0.00    -0.337 N
ATOM      3  H2  UNL     1      -7.229 -21.344 -12.910  1.00  0.00     0.167 HD
HETATM    4  C4  UNL     1      -7.244 -23.290 -12.171  1.00  0.00     0.117 A
HETATM    5  N3  UNL     1      -6.924 -24.438 -12.779  1.00  0.00    -0.325 N
ATOM      6  H3  UNL     1      -6.955 -25.361 -12.347  1.00  0.00     0.169 HD
HETATM    7  C11 UNL     1      -6.548 -24.182 -14.072  1.00  0.00     0.151 A
ENDROOT
BRANCH   7   8
HETATM    8  N4  UNL     1      -6.202 -25.186 -15.031  1.00  0.00    -0.283 N
HETATM    9  N5  UNL     1      -7.106 -25.853 -15.618  1.00  0.00    -0.299 N
ATOM     10  H5  UNL     1      -8.076 -25.643 -15.383  1.00  0.00     0.187 HD
ATOM     11  H4  UNL     1      -5.220 -25.367 -15.243  1.00  0.00     0.188 HD
BRANCH   9  12
HETATM   12  C12 UNL     1      -6.867 -26.867 -16.578  1.00  0.00     0.050 A
HETATM   13  C13 UNL     1      -5.576 -27.029 -17.068  1.00  0.00     0.032 A
HETATM   14  C14 UNL     1      -5.280 -27.998 -18.011  1.00  0.00     0.016 A
HETATM   15  C15 UNL     1      -6.242 -28.848 -18.509  1.00  0.00     0.000 A
HETATM   16  C22 UNL     1      -7.533 -28.689 -18.021  1.00  0.00     0.059 A
HETATM   17  N7  UNL     1      -8.551 -29.549 -18.508  1.00  0.00    -0.101 NA
HETATM   18  C23 UNL     1      -7.827 -27.718 -17.077  1.00  0.00     0.058 A
BRANCH  15  19
HETATM   19  C16 UNL     1      -5.946 -29.861 -19.510  1.00  0.00     0.000 A
HETATM   20  C17 UNL     1      -5.983 -29.599 -20.874  1.00  0.00     0.017 A
HETATM   21  C18 UNL     1      -5.682 -30.581 -21.798  1.00  0.00     0.037 A
HETATM   22  C19 UNL     1      -5.334 -31.855 -21.402  1.00  0.00     0.067 A
HETATM   23  C20 UNL     1      -5.295 -32.124 -20.064  1.00  0.00     0.064 A
HETATM   24  C21 UNL     1      -5.601 -31.127 -19.135  1.00  0.00     0.060 A
HETATM   25  N6  UNL     1      -5.547 -31.480 -17.772  1.00  0.00    -0.101 NA
BRANCH  22  26
HETATM   26  O1  UNL     1      -5.040 -32.807 -22.378  1.00  0.00    -0.361 OA
ATOM     27  H1  UNL     1      -4.192 -32.780 -22.805  1.00  0.00     0.217 HD
ENDBRANCH  22  26
ENDBRANCH  15  19
ENDBRANCH   9  12
ENDBRANCH   7   8
BRANCH   1  28
HETATM   28  C2  UNL     1      -6.438 -22.092 -15.511  1.00  0.00     0.089 A
HETATM   29  N1  UNL     1      -7.450 -22.207 -16.445  1.00  0.00    -0.185 N
HETATM   30  C1  UNL     1      -8.630 -22.958 -16.074  1.00  0.00     0.175 C
HETATM   31  C28 UNL     1      -7.306 -21.664 -17.651  1.00  0.00     0.678 A
HETATM   32  N9  UNL     1      -6.146 -20.998 -17.944  1.00  0.00    -0.201 N
HETATM   33  N10 UNL     1      -8.217 -21.722 -18.546  1.00  0.00    -0.234 N
HETATM   34  C27 UNL     1      -5.155 -20.870 -17.065  1.00  0.00     0.115 A
ATOM     35  H9  UNL     1      -6.038 -20.585 -18.870  1.00  0.00     0.183 HD
HETATM   36  C24 UNL     1      -5.291 -21.436 -15.781  1.00  0.00    -0.011 A
ATOM     37 2H10 UNL     1      -9.082 -22.218 -18.328  1.00  0.00     0.174 HD
ATOM     38 1H10 UNL     1      -8.107 -21.306 -19.471  1.00  0.00     0.174 HD
BRANCH  36  39
HETATM   39  C25 UNL     1      -4.246 -21.178 -14.781  1.00  0.00     0.069 C
BRANCH  39  40
HETATM   40  C26 UNL     1      -3.167 -20.352 -15.523  1.00  0.00     0.234 C
BRANCH  40  41
HETATM   41  N8  UNL     1      -1.932 -20.370 -14.797  1.00  0.00    -0.079 N
ATOM     42  H83 UNL     1      -1.710 -19.456 -14.404  1.00  0.00     0.274 HD
ATOM     43  H82 UNL     1      -2.012 -20.895 -13.926  1.00  0.00     0.274 HD
ATOM     44  H81 UNL     1      -1.177 -20.724 -15.384  1.00  0.00     0.274 HD
ENDBRANCH  40  41
ENDBRANCH  39  40
ENDBRANCH  36  39
ENDBRANCH   1  28
BRANCH   4  45
HETATM   45  C5  UNL     1      -7.692 -23.117 -10.795  1.00  0.00     0.008 A
HETATM   46  C6  UNL     1      -9.025 -23.014 -10.455  1.00  0.00     0.015 A
HETATM   47  C7  UNL     1      -9.423 -22.850  -9.129  1.00  0.00     0.001 A
HETATM   48  C8  UNL     1      -8.493 -22.786  -8.116  1.00  0.00     0.000 A
HETATM   49  C9  UNL     1      -7.161 -22.886  -8.445  1.00  0.00     0.001 A
HETATM   50  C10 UNL     1      -6.787 -23.048  -9.761  1.00  0.00     0.015 A
ENDBRANCH   4  45
TORSDOF 9
ENDMDL