MODEL 4
REMARK VINA RESULT: -6.925943203      1.443      5.138
REMARK  6 active torsions:
REMARK  status: ('A' for Active; 'I' for Inactive)
REMARK    1  A    between atoms: C1_4  and  C2_5
REMARK    2  A    between atoms: C1_4  and  N4_18
REMARK    3  A    between atoms: C2_5  and  C3_6
REMARK    4  A    between atoms: C3_6  and  C4_12
REMARK    5  A    between atoms: N2_7  and  N3_9
REMARK    6  A    between atoms: N4_18  and  C10_20
ROOT
HETATM    1  C2  UNL     1      26.830  -5.492  29.790  1.00  0.00     0.134 C
ENDROOT
BRANCH   1   2
HETATM    2  C1  UNL     1      25.856  -4.593  30.471  1.00  0.00     0.076 C
HETATM    3  N1  UNL     1      24.659  -4.526  30.042  1.00  0.00    -0.389 N
ATOM      4  H12 UNL     1      24.367  -5.078  29.236  1.00  0.00     0.157 HD
ATOM      5  H11 UNL     1      23.992  -3.910  30.509  1.00  0.00     0.157 HD
BRANCH   2   6
HETATM    6  N4  UNL     1      26.259  -3.829  31.585  1.00  0.00    -0.375 N
ATOM      7  H4  UNL     1      26.020  -4.219  32.497  1.00  0.00     0.161 HD
BRANCH   6   8
HETATM    8  C10 UNL     1      26.954  -2.585  31.609  1.00  0.00     0.082 C
HETATM    9  C11 UNL     1      28.457  -2.868  31.824  1.00  0.00     0.025 C
HETATM   10  C12 UNL     1      28.664  -3.439  33.189  1.00  0.00     0.002 C
HETATM   11  C13 UNL     1      28.201  -2.460  34.220  1.00  0.00     0.000 C
HETATM   12  C14 UNL     1      26.763  -2.022  34.040  1.00  0.00     0.002 C
HETATM   13  C15 UNL     1      26.488  -1.587  32.622  1.00  0.00     0.025 C
ENDBRANCH   6   8
ENDBRANCH   2   6
ENDBRANCH   1   2
BRANCH   1  14
HETATM   14  C3  UNL     1      27.179  -6.683  30.652  1.00  0.00     0.038 C
HETATM   15  N2  UNL     1      26.296  -7.535  30.798  1.00  0.00    -0.310 N
ATOM     16  H2  UNL     1      25.452  -7.271  30.289  1.00  0.00     0.186 HD
BRANCH  15  17
HETATM   17  N3  UNL     1      26.118  -8.716  31.436  1.00  0.00    -0.345 N
ATOM     18  H32 UNL     1      25.630  -9.362  30.814  1.00  0.00     0.176 HD
ATOM     19  H31 UNL     1      26.329  -9.137  32.341  1.00  0.00     0.176 HD
ENDBRANCH  15  17
BRANCH  14  20
HETATM   20  C4  UNL     1      28.494  -6.730  31.218  1.00  0.00    -0.037 C
HETATM   21  C5  UNL     1      28.822  -7.316  32.368  1.00  0.00    -0.018 C
HETATM   22  C6  UNL     1      30.276  -7.226  32.748  1.00  0.00     0.028 C
HETATM   23  C7  UNL     1      31.040  -7.811  31.577  1.00  0.00     0.004 C
HETATM   24  C8  UNL     1      30.841  -6.906  30.395  1.00  0.00     0.005 C
HETATM   25  C9  UNL     1      29.619  -6.055  30.455  1.00  0.00     0.040 C
ENDBRANCH  14  20
ENDBRANCH   1  14
TORSDOF 6
ENDMDL