MODEL 3
REMARK VINA RESULT: -6.887246321      3.475      5.445
REMARK  4 active torsions:
REMARK  status: ('A' for Active; 'I' for Inactive)
REMARK    1  A    between atoms: C2_2  and  C3_3
REMARK    2  A    between atoms: C5_5  and  C6_6
REMARK    3  A    between atoms: C6_6  and  C7_7
REMARK    4  A    between atoms: C9_16  and  C10_17
ROOT
HETATM    1  C7  UNL     1      26.660  -3.758  30.707  1.00  0.00     0.056 A
HETATM    2  N1  UNL     1      26.750  -3.699  32.079  1.00  0.00    -0.194 N
ATOM      3  H1  UNL     1      27.095  -4.453  32.673  1.00  0.00     0.184 HD
HETATM    4  C8  UNL     1      26.323  -2.517  32.522  1.00  0.00     0.676 A
HETATM    5  N2  UNL     1      26.285  -2.155  33.754  1.00  0.00    -0.234 N
ATOM      6  H21 UNL     1      25.959  -1.250  34.093  1.00  0.00     0.174 HD
ATOM      7  H22 UNL     1      26.567  -2.707  34.563  1.00  0.00     0.174 HD
HETATM    8  N3  UNL     1      25.953  -1.794  31.462  1.00  0.00    -0.193 N
ATOM      9  H3  UNL     1      25.584  -0.843  31.486  1.00  0.00     0.184 HD
HETATM   10  C9  UNL     1      26.155  -2.550  30.335  1.00  0.00     0.057 A
ENDROOT
BRANCH   1  11
HETATM   11  C6  UNL     1      27.111  -4.944  29.945  1.00  0.00     0.127 C
BRANCH  11  12
HETATM   12  C5  UNL     1      27.852  -5.951  30.730  1.00  0.00     0.084 A
HETATM   13  C4  UNL     1      29.258  -6.097  30.642  1.00  0.00     0.062 A
HETATM   14  C3  UNL     1      29.662  -7.108  31.487  1.00  0.00     0.034 A
HETATM   15  N4  UNL     1      28.516  -7.537  32.048  1.00  0.00    -0.265 N
HETATM   16  O1  UNL     1      27.510  -6.848  31.587  1.00  0.00    -0.242 OA
ATOM     17  H4  UNL     1      28.445  -8.291  32.733  1.00  0.00     0.194 HD
BRANCH  14  18
HETATM   18  C2  UNL     1      31.069  -7.535  31.666  1.00  0.00     0.054 C
HETATM   19  C1  UNL     1      31.977  -7.156  30.525  1.00  0.00     0.011 C
ENDBRANCH  14  18
ENDBRANCH  11  12
ENDBRANCH   1  11
BRANCH  10  20
HETATM   20  C10 UNL     1      25.834  -2.095  28.979  1.00  0.00    -0.006 C
HETATM   21  C11 UNL     1      24.604  -2.844  28.483  1.00  0.00     0.021 C
HETATM   22  C12 UNL     1      26.964  -2.073  28.000  1.00  0.00     0.021 C
HETATM   23  C13 UNL     1      25.353  -0.622  29.059  1.00  0.00     0.021 C
ENDBRANCH  10  20
TORSDOF 4
ENDMDL