MODEL 3
REMARK VINA RESULT: -5.738598589      4.543      7.109
REMARK  7 active torsions:
REMARK  status: ('A' for Active; 'I' for Inactive)
REMARK    1  A    between atoms: C3_3  and  C4_4
REMARK    2  A    between atoms: C4_4  and  C5_5
REMARK    3  A    between atoms: C6_6  and  C7_7
REMARK    4  A    between atoms: C7_7  and  C8_8
REMARK    5  A    between atoms: C8_8  and  C9_9
REMARK    6  A    between atoms: C12_15  and  O1_16
REMARK    7  A    between atoms: C14_19  and  O2_21
ROOT
HETATM    1  C5  UNL     1      29.349  -6.898  30.062  1.00  0.00     0.065 C
HETATM    2  C6  UNL     1      30.731  -7.339  30.353  1.00  0.00     0.002 C
HETATM    3  C11 UNL     1      30.908  -7.652  31.693  1.00  0.00     0.021 C
HETATM    4  C12 UNL     1      29.746  -7.496  32.591  1.00  0.00     0.144 C
HETATM    5  C13 UNL     1      29.419  -6.000  32.423  1.00  0.00     0.074 C
HETATM    6  C14 UNL     1      28.851  -5.850  30.990  1.00  0.00     0.065 C
HETATM    7  C15 UNL     1      27.350  -6.083  31.252  1.00  0.00     0.046 C
ENDROOT
BRANCH   2   8
HETATM    8  C7  UNL     1      31.876  -7.472  29.528  1.00  0.00    -0.064 C
BRANCH   8   9
HETATM    9  C8  UNL     1      32.888  -7.589  28.800  1.00  0.00    -0.049 C
BRANCH   9  10
HETATM   10  C9  UNL     1      33.852  -7.748  27.936  1.00  0.00     0.053 C
HETATM   11  C10 UNL     1      33.802  -7.356  26.449  1.00  0.00     0.078 C
HETATM   12  N1  UNL     1      35.005  -8.338  28.302  1.00  0.00    -0.396 N
ATOM     13  H12 UNL     1      35.039  -8.597  29.287  1.00  0.00     0.156 HD
ATOM     14  H11 UNL     1      35.760  -8.461  27.627  1.00  0.00     0.156 HD
ENDBRANCH   9  10
ENDBRANCH   8   9
ENDBRANCH   2   8
BRANCH   1  15
HETATM   15  C4  UNL     1      29.172  -6.624  28.623  1.00  0.00     0.040 C
BRANCH  15  16
HETATM   16  C3  UNL     1      29.908  -5.490  28.023  1.00  0.00    -0.030 C
HETATM   17  C2  UNL     1      30.398  -5.656  26.800  1.00  0.00    -0.035 C
HETATM   18  C1  UNL     1      31.147  -4.583  26.112  1.00  0.00     0.036 C
ENDBRANCH  15  16
ENDBRANCH   1  15
BRANCH   6  19
HETATM   19  O2  UNL     1      29.123  -4.546  30.619  1.00  0.00    -0.389 OA
ATOM     20  H2  UNL     1      28.600  -3.880  31.049  1.00  0.00     0.210 HD
ENDBRANCH   6  19
BRANCH   4  21
HETATM   21  O1  UNL     1      30.171  -7.694  33.875  1.00  0.00    -0.392 OA
ATOM     22  H1  UNL     1      30.644  -8.518  33.907  1.00  0.00     0.210 HD
ENDBRANCH   4  21
TORSDOF 7
ENDMDL