MODEL 4
REMARK VINA RESULT: -6.066650444      2.226      3.847
REMARK  7 active torsions:
REMARK  status: ('A' for Active; 'I' for Inactive)
REMARK    1  A    between atoms: C2_2  and  C3_3
REMARK    2  A    between atoms: N1_6  and  C6_7
REMARK    3  A    between atoms: C6_7  and  C8_9
REMARK    4  A    between atoms: C8_9  and  C9_10
REMARK    5  A    between atoms: C9_10  and  C10_11
REMARK    6  A    between atoms: C10_11  and  N2_12
REMARK    7  A    between atoms: C13_22  and  N5_23
ROOT
HETATM    1  C3  UNL     1      26.884  -2.134  32.089  1.00  0.00    -0.018 A
HETATM    2  C4  UNL     1      27.752  -3.223  32.092  1.00  0.00     0.017 A
HETATM    3  C5  UNL     1      28.799  -3.447  33.091  1.00  0.00     0.069 C
HETATM    4  N1  UNL     1      27.458  -4.007  31.039  1.00  0.00    -0.332 N
HETATM    5  C11 UNL     1      26.420  -3.440  30.362  1.00  0.00     0.123 A
HETATM    6  N3  UNL     1      25.786  -3.858  29.256  1.00  0.00    -0.338 N
ATOM      7  H3  UNL     1      26.064  -4.721  28.787  1.00  0.00     0.168 HD
HETATM    8  C12 UNL     1      24.769  -3.104  28.777  1.00  0.00     0.183 A
HETATM    9  N4  UNL     1      24.378  -1.967  29.365  1.00  0.00    -0.338 N
ATOM     10  H4  UNL     1      23.607  -1.429  28.971  1.00  0.00     0.168 HD
HETATM   11  C13 UNL     1      25.003  -1.536  30.475  1.00  0.00     0.114 A
HETATM   12  C14 UNL     1      26.041  -2.271  30.995  1.00  0.00     0.060 A
ENDROOT
BRANCH   4  13
HETATM   13  C6  UNL     1      28.124  -5.240  30.676  1.00  0.00     0.087 C
HETATM   14  C7  UNL     1      28.465  -5.354  29.233  1.00  0.00     0.033 C
BRANCH  13  15
HETATM   15  C8  UNL     1      27.408  -6.451  31.224  1.00  0.00     0.027 C
BRANCH  15  16
HETATM   16  C9  UNL     1      28.372  -7.490  31.746  1.00  0.00     0.029 C
BRANCH  16  17
HETATM   17  C10 UNL     1      29.612  -6.875  32.322  1.00  0.00     0.230 C
BRANCH  17  18
HETATM   18  N2  UNL     1      29.932  -7.319  33.644  1.00  0.00    -0.079 N
ATOM     19  H23 UNL     1      29.164  -7.113  34.283  1.00  0.00     0.274 HD
ATOM     20  H22 UNL     1      29.927  -8.339  33.688  1.00  0.00     0.274 HD
ATOM     21  H21 UNL     1      30.810  -6.951  34.011  1.00  0.00     0.274 HD
ENDBRANCH  17  18
ENDBRANCH  16  17
ENDBRANCH  15  16
ENDBRANCH  13  15
ENDBRANCH   4  13
BRANCH   1  22
HETATM   22  C2  UNL     1      26.886  -1.056  33.076  1.00  0.00     0.037 C
HETATM   23  C1  UNL     1      27.531   0.210  32.491  1.00  0.00     0.010 C
ENDBRANCH   1  22
BRANCH  11  24
HETATM   24  N5  UNL     1      24.649  -0.458  31.058  1.00  0.00    -0.385 N
ATOM     25  H52 UNL     1      23.930   0.126  30.632  1.00  0.00     0.157 HD
ATOM     26  H51 UNL     1      25.073  -0.169  31.940  1.00  0.00     0.157 HD
ENDBRANCH  11  24
TORSDOF 7
ENDMDL