MODEL 2
REMARK VINA RESULT: -7.057356585      1.089      1.836
REMARK  4 active torsions:
REMARK  status: ('A' for Active; 'I' for Inactive)
REMARK    1  A    between atoms: C6_9  and  C8_11
REMARK    2  A    between atoms: C8_11  and  N2_12
REMARK       I    between atoms: N2_12  and  C9_14
REMARK    3  A    between atoms: C9_14  and  C10_16
REMARK    4  A    between atoms: C10_16  and  C12_18
ROOT
HETATM    1  C1  UNL     1      28.195  -2.042  32.883  1.00  0.00     0.032 C
HETATM    2  C2  UNL     1      27.115  -2.391  31.882  1.00  0.00     0.078 C
HETATM    3  C3  UNL     1      26.018  -3.119  32.629  1.00  0.00     0.076 C
HETATM    4  C4  UNL     1      25.008  -3.558  31.635  1.00  0.00    -0.016 C
HETATM    5  N1  UNL     1      23.875  -3.947  32.036  1.00  0.00    -0.405 N
ATOM      6  H11 UNL     1      23.181  -4.249  31.353  1.00  0.00     0.155 HD
ATOM      7  H12 UNL     1      23.652  -3.962  33.031  1.00  0.00     0.155 HD
HETATM    8  C5  UNL     1      25.328  -3.537  30.211  1.00  0.00     0.083 C
HETATM    9  C6  UNL     1      26.786  -3.766  29.912  1.00  0.00     0.043 C
HETATM   10  C7  UNL     1      27.051  -3.103  28.551  1.00  0.00     0.040 C
HETATM   11  N3  UNL     1      27.682  -3.256  30.899  1.00  0.00    -0.407 N
ATOM     12  H3  UNL     1      28.674  -3.496  30.901  1.00  0.00     0.154 HD
ENDROOT
BRANCH   9  13
HETATM   13  C8  UNL     1      27.101  -5.231  29.705  1.00  0.00     0.153 C
BRANCH  13  14
HETATM   14  N2  UNL     1      28.538  -5.372  29.750  1.00  0.00    -0.358 N
HETATM   15  C9  UNL     1      29.187  -6.414  30.463  1.00  0.00     0.221 C
HETATM   16  O1  UNL     1      28.446  -7.251  31.090  1.00  0.00    -0.273 OA
ATOM     17  H2  UNL     1      29.112  -4.695  29.247  1.00  0.00     0.162 HD
BRANCH  15  18
HETATM   18  C10 UNL     1      30.634  -6.577  30.515  1.00  0.00     0.077 C
HETATM   19  C11 UNL     1      31.003  -7.467  31.703  1.00  0.00     0.020 C
BRANCH  18  20
HETATM   20  C12 UNL     1      31.243  -7.227  29.281  1.00  0.00    -0.010 C
HETATM   21  C13 UNL     1      32.526  -7.905  29.779  1.00  0.00     0.010 C
HETATM   22  C14 UNL     1      31.665  -6.228  28.255  1.00  0.00     0.010 C
ENDBRANCH  18  20
ENDBRANCH  15  18
ENDBRANCH  13  14
ENDBRANCH   9  13
TORSDOF 4
ENDMDL