MODEL 3
REMARK VINA RESULT: -6.825842184      2.637      3.387
REMARK  6 active torsions:
REMARK  status: ('A' for Active; 'I' for Inactive)
REMARK    1  A    between atoms: O1_1  and  C1_3
REMARK    2  A    between atoms: C3_10  and  C4_11
REMARK    3  A    between atoms: C4_11  and  C5_12
REMARK    4  A    between atoms: C5_12  and  C6_13
REMARK    5  A    between atoms: C6_13  and  O2_14
REMARK    6  A    between atoms: O2_14  and  C7_15
ROOT
HETATM    1  C1  UNL     1      25.047  -5.710  31.039  1.00  0.00     0.165 A
HETATM    2  N1  UNL     1      24.334  -4.712  30.479  1.00  0.00    -0.312 N
ATOM      3  H1  UNL     1      23.359  -4.492  30.675  1.00  0.00     0.170 HD
HETATM    4  C2  UNL     1      25.128  -4.063  29.621  1.00  0.00     0.178 A
HETATM    5  S1  UNL     1      24.730  -2.772  28.691  1.00  0.00    -0.040 SA
HETATM    6  N2  UNL     1      26.345  -4.645  29.633  1.00  0.00    -0.333 N
ATOM      7  H2  UNL     1      27.148  -4.356  29.075  1.00  0.00     0.168 HD
HETATM    8  C3  UNL     1      26.324  -5.671  30.505  1.00  0.00     0.062 A
ENDROOT
BRANCH   8   9
HETATM    9  C4  UNL     1      27.383  -6.615  30.883  1.00  0.00     0.064 C
BRANCH   9  10
HETATM   10  C5  UNL     1      28.339  -6.927  29.750  1.00  0.00     0.032 C
BRANCH  10  11
HETATM   11  C6  UNL     1      29.744  -6.819  30.335  1.00  0.00     0.168 C
BRANCH  11  12
HETATM   12  O2  UNL     1      30.372  -5.784  29.696  1.00  0.00    -0.386 OA
BRANCH  12  13
HETATM   13  C7  UNL     1      31.677  -6.089  29.302  1.00  0.00     0.121 C
HETATM   14  C8  UNL     1      31.713  -6.102  27.817  1.00  0.00     0.032 C
HETATM   15  C9  UNL     1      32.843  -6.841  27.191  1.00  0.00     0.002 C
HETATM   16  C10 UNL     1      33.412  -7.956  27.981  1.00  0.00     0.000 C
HETATM   17  C11 UNL     1      32.468  -8.461  29.040  1.00  0.00     0.002 C
HETATM   18  C12 UNL     1      32.069  -7.359  29.981  1.00  0.00     0.032 C
ENDBRANCH  12  13
ENDBRANCH  11  12
ENDBRANCH  10  11
ENDBRANCH   9  10
ENDBRANCH   8   9
BRANCH   1  19
HETATM   19  O1  UNL     1      24.562  -6.603  31.982  1.00  0.00    -0.345 OA
ATOM     20  H1  UNL     1      23.702  -7.006  31.960  1.00  0.00     0.219 HD
ENDBRANCH   1  19
TORSDOF 6
ENDMDL