MODEL 3
REMARK VINA RESULT: -7.690678779      1.156      1.897
REMARK  5 active torsions:
REMARK  status: ('A' for Active; 'I' for Inactive)
REMARK    1  A    between atoms: C5_7  and  C6_8
REMARK    2  A    between atoms: C6_8  and  C7_9
REMARK    3  A    between atoms: C7_9  and  C8_10
REMARK    4  A    between atoms: C8_10  and  C9_11
REMARK    5  A    between atoms: C11_13  and  N2_14
ROOT
HETATM    1  C6  UNL     1      29.264  -6.404  30.714  1.00  0.00     0.076 C
ENDROOT
BRANCH   1   2
HETATM    2  C5  UNL     1      30.532  -6.790  30.031  1.00  0.00     0.083 A
HETATM    3  N1  UNL     1      30.797  -6.444  28.763  1.00  0.00    -0.343 N
HETATM    4  C4  UNL     1      32.006  -6.938  28.440  1.00  0.00     0.080 A
ATOM      5  H1  UNL     1      30.188  -5.902  28.150  1.00  0.00     0.167 HD
HETATM    6  C3  UNL     1      32.965  -7.053  27.457  1.00  0.00     0.058 A
HETATM    7  C13 UNL     1      32.466  -7.604  29.576  1.00  0.00     0.134 A
HETATM    8  C2  UNL     1      34.010  -7.784  27.980  1.00  0.00     0.009 A
HETATM    9  C1  UNL     1      35.277  -8.161  27.273  1.00  0.00     0.068 C
HETATM   10  N6  UNL     1      33.684  -8.095  29.237  1.00  0.00    -0.344 N
ATOM     11  H6  UNL     1      34.278  -8.636  29.865  1.00  0.00     0.167 HD
HETATM   12  N5  UNL     1      31.544  -7.501  30.541  1.00  0.00    -0.330 N
ATOM     13  H5  UNL     1      31.603  -7.888  31.483  1.00  0.00     0.168 HD
ENDBRANCH   1   2
BRANCH   1  14
HETATM   14  C7  UNL     1      28.116  -6.338  29.728  1.00  0.00     0.009 C
BRANCH  14  15
HETATM   15  C8  UNL     1      27.703  -4.922  29.502  1.00  0.00     0.026 C
BRANCH  15  16
HETATM   16  C9  UNL     1      26.377  -4.605  30.114  1.00  0.00     0.089 C
HETATM   17  C10 UNL     1      26.485  -3.817  31.403  1.00  0.00     0.101 C
HETATM   18  C11 UNL     1      25.096  -3.598  31.867  1.00  0.00     0.077 C
HETATM   19  N3  UNL     1      24.150  -4.618  31.611  1.00  0.00    -0.343 N
HETATM   20  C12 UNL     1      24.627  -5.755  31.230  1.00  0.00     0.177 C
ATOM     21  H3  UNL     1      23.148  -4.463  31.721  1.00  0.00     0.167 HD
HETATM   22  N4  UNL     1      25.633  -5.825  30.460  1.00  0.00    -0.381 N
ATOM     23  H4  UNL     1      25.924  -6.726  30.081  1.00  0.00     0.160 HD
BRANCH  18  24
HETATM   24  N2  UNL     1      24.823  -2.504  32.476  1.00  0.00    -0.389 N
ATOM     25  H22 UNL     1      24.309  -1.730  32.055  1.00  0.00     0.157 HD
ATOM     26  H21 UNL     1      25.136  -2.395  33.440  1.00  0.00     0.157 HD
ENDBRANCH  18  24
ENDBRANCH  15  16
ENDBRANCH  14  15
ENDBRANCH   1  14
TORSDOF 5
ENDMDL