MODEL 4
REMARK VINA RESULT: -7.368587649      2.563      4.684
REMARK  4 active torsions:
REMARK  status: ('A' for Active; 'I' for Inactive)
REMARK    1  A    between atoms: C3_6  and  C4_7
REMARK    2  A    between atoms: C4_7  and  C5_8
REMARK    3  A    between atoms: C5_8  and  C6_9
REMARK    4  A    between atoms: C6_9  and  C7_10
ROOT
HETATM    1  C7  UNL     1      30.632  -6.492  29.740  1.00  0.00     0.016 A
HETATM    2  N3  UNL     1      30.991  -6.167  28.474  1.00  0.00    -0.345 N
ATOM      3  H3  UNL     1      30.402  -5.526  27.943  1.00  0.00     0.167 HD
HETATM    4  C8  UNL     1      32.102  -6.664  27.891  1.00  0.00     0.104 A
HETATM    5  N4  UNL     1      32.385  -6.309  26.681  1.00  0.00    -0.385 N
ATOM      6  H41 UNL     1      33.225  -6.685  26.240  1.00  0.00     0.157 HD
ATOM      7  H42 UNL     1      31.790  -5.667  26.156  1.00  0.00     0.157 HD
HETATM    8  C9  UNL     1      32.905  -7.530  28.599  1.00  0.00    -0.018 A
HETATM    9  C10 UNL     1      34.139  -8.078  27.943  1.00  0.00     0.052 C
HETATM   10  C11 UNL     1      32.575  -7.879  29.877  1.00  0.00     0.019 A
HETATM   11  C12 UNL     1      31.421  -7.343  30.437  1.00  0.00    -0.039 A
HETATM   12  C13 UNL     1      31.091  -7.737  31.803  1.00  0.00     0.050 C
ENDROOT
BRANCH   1  13
HETATM   13  C6  UNL     1      29.422  -5.923  30.321  1.00  0.00     0.057 C
BRANCH  13  14
HETATM   14  C5  UNL     1      28.143  -6.470  29.721  1.00  0.00     0.008 C
BRANCH  14  15
HETATM   15  C4  UNL     1      27.087  -6.623  30.771  1.00  0.00     0.024 C
BRANCH  15  16
HETATM   16  C3  UNL     1      25.977  -5.650  30.690  1.00  0.00     0.104 C
HETATM   17  N2  UNL     1      24.739  -6.187  30.180  1.00  0.00    -0.136 NA
HETATM   18  N1  UNL     1      24.030  -5.040  29.736  1.00  0.00    -0.312 N
HETATM   19  C2  UNL     1      24.833  -4.101  29.431  1.00  0.00    -0.002 C
ATOM     20  H1  UNL     1      23.014  -4.977  29.672  1.00  0.00     0.181 HD
HETATM   21  C1  UNL     1      24.528  -2.726  28.924  1.00  0.00     0.064 C
HETATM   22  C14 UNL     1      26.219  -4.574  29.654  1.00  0.00     0.076 C
ENDBRANCH  15  16
ENDBRANCH  14  15
ENDBRANCH  13  14
ENDBRANCH   1  13
TORSDOF 4
ENDMDL