MODEL 2
REMARK VINA RESULT: -7.654220740      1.576      5.531
REMARK  9 active torsions:
REMARK  status: ('A' for Active; 'I' for Inactive)
REMARK    1  A    between atoms: N1_1  and  C1_4
REMARK    2  A    between atoms: C2_9  and  C3_10
REMARK    3  A    between atoms: N5_15  and  C6_16
REMARK    4  A    between atoms: C8_21  and  N7_22
REMARK    5  A    between atoms: N9_28  and  O2_30
REMARK    6  A    between atoms: O2_30  and  C10_31
REMARK    7  A    between atoms: C10_31  and  C11_32
REMARK    8  A    between atoms: C11_32  and  C12_33
REMARK    9  A    between atoms: C12_33  and  N10_34
ROOT
HETATM    1  C3  UNL     1     -24.184 -21.602 -21.533  1.00  0.00     0.085 A
HETATM    2  C4  UNL     1     -23.138 -22.381 -21.953  1.00  0.00     0.083 A
HETATM    3  N4  UNL     1     -22.044 -21.876 -22.538  1.00  0.00    -0.348 N
ATOM      4  H4  UNL     1     -21.955 -20.871 -22.692  1.00  0.00     0.167 HD
HETATM    5  C5  UNL     1     -21.074 -22.711 -22.916  1.00  0.00     0.209 A
HETATM    6  N5  UNL     1     -21.167 -24.040 -22.723  1.00  0.00    -0.226 N
HETATM    7  N6  UNL     1     -22.220 -24.594 -22.151  1.00  0.00    -0.285 N
ATOM      8  H6  UNL     1     -22.253 -25.606 -22.023  1.00  0.00     0.188 HD
HETATM    9  C7  UNL     1     -23.242 -23.841 -21.740  1.00  0.00     0.120 A
HETATM   10  C8  UNL     1     -24.360 -24.355 -21.143  1.00  0.00     0.131 A
HETATM   11  N8  UNL     1     -25.344 -23.530 -20.758  1.00  0.00    -0.325 N
ATOM     12  H8  UNL     1     -26.168 -23.935 -20.314  1.00  0.00     0.169 HD
HETATM   13  C9  UNL     1     -25.301 -22.197 -20.926  1.00  0.00     0.143 A
HETATM   14  N9  UNL     1     -26.245 -21.418 -20.557  1.00  0.00    -0.249 N
ATOM     15  H9  UNL     1     -26.163 -20.413 -20.709  1.00  0.00     0.196 HD
ENDROOT
BRANCH   1  16
HETATM   16  C2  UNL     1     -24.197 -20.166 -21.687  1.00  0.00     0.152 A
HETATM   17  N3  UNL     1     -24.561 -19.481 -22.814  1.00  0.00    -0.270 N
HETATM   18  N2  UNL     1     -24.460 -18.185 -22.622  1.00  0.00    -0.131 N
ATOM     19  H3  UNL     1     -24.868 -19.917 -23.683  1.00  0.00     0.189 HD
HETATM   20  C1  UNL     1     -24.032 -17.961 -21.380  1.00  0.00     0.692 A
ATOM     21  H2  UNL     1     -24.674 -17.466 -23.312  1.00  0.00     0.205 HD
HETATM   22  N11 UNL     1     -23.877 -19.199 -20.824  1.00  0.00    -0.173 N
ATOM     23  H11 UNL     1     -23.557 -19.363 -19.870  1.00  0.00     0.186 HD
BRANCH  20  24
HETATM   24  N1  UNL     1     -23.807 -16.835 -20.811  1.00  0.00    -0.233 N
ATOM     25  H12 UNL     1     -24.488 -16.253 -20.323  1.00  0.00     0.174 HD
ATOM     26  H11 UNL     1     -22.925 -16.327 -20.747  1.00  0.00     0.174 HD
ENDBRANCH  20  24
ENDBRANCH   1  16
BRANCH  14  27
HETATM   27  O2  UNL     1     -27.369 -21.930 -19.955  1.00  0.00    -0.279 OA
BRANCH  27  28
HETATM   28  C10 UNL     1     -28.290 -22.605 -20.762  1.00  0.00     0.203 C
BRANCH  28  29
HETATM   29  C11 UNL     1     -28.993 -23.725 -20.038  1.00  0.00     0.056 C
BRANCH  29  30
HETATM   30  C12 UNL     1     -28.560 -23.872 -18.614  1.00  0.00     0.231 C
BRANCH  30  31
HETATM   31  N10 UNL     1     -27.299 -24.577 -18.486  1.00  0.00    -0.079 N
ATOM     32 3H10 UNL     1     -26.600 -24.197 -19.123  1.00  0.00     0.274 HD
ATOM     33 2H10 UNL     1     -26.847 -24.359 -17.598  1.00  0.00     0.274 HD
ATOM     34 1H10 UNL     1     -27.400 -25.584 -18.609  1.00  0.00     0.274 HD
ENDBRANCH  30  31
ENDBRANCH  29  30
ENDBRANCH  28  29
ENDBRANCH  27  28
ENDBRANCH  14  27
BRANCH  10  35
HETATM   35  N7  UNL     1     -24.474 -25.636 -20.944  1.00  0.00    -0.383 N
ATOM     36  H72 UNL     1     -24.131 -26.049 -20.076  1.00  0.00     0.157 HD
ATOM     37  H71 UNL     1     -24.904 -26.234 -21.650  1.00  0.00     0.157 HD
ENDBRANCH  10  35
BRANCH   6  38
HETATM   38  C6  UNL     1     -20.085 -24.881 -23.153  1.00  0.00     0.377 C
HETATM   39  O1  UNL     1     -20.271 -26.009 -23.649  1.00  0.00    -0.281 OA
ENDBRANCH   6  38
TORSDOF 9
ENDMDL