MODEL 1
REMARK VINA RESULT: -7.685970920      0.000      0.000
REMARK  9 active torsions:
REMARK  status: ('A' for Active; 'I' for Inactive)
REMARK    1  A    between atoms: N1_1  and  C1_5
REMARK    2  A    between atoms: C1_5  and  C2_6
REMARK    3  A    between atoms: C2_6  and  O1_7
REMARK    4  A    between atoms: O1_7  and  C3_8
REMARK    5  A    between atoms: C6_17  and  C7_18
REMARK    6  A    between atoms: C10_27  and  N8_28
REMARK    7  A    between atoms: N8_28  and  C11_30
REMARK    8  A    between atoms: C11_30  and  C12_31
REMARK    9  A    between atoms: C12_31  and  O2_32
ROOT
HETATM    1  C3  UNL     1     -24.086 -19.774 -22.609  1.00  0.00     0.229 A
HETATM    2  N2  UNL     1     -23.131 -20.703 -22.733  1.00  0.00    -0.307 N
ATOM      3  H2  UNL     1     -22.387 -20.563 -23.415  1.00  0.00     0.171 HD
HETATM    4  C4  UNL     1     -23.129 -21.805 -21.988  1.00  0.00     0.125 A
HETATM    5  N3  UNL     1     -22.130 -22.717 -22.142  1.00  0.00    -0.338 N
ATOM      6  H3  UNL     1     -21.379 -22.593 -22.820  1.00  0.00     0.168 HD
HETATM    7  C5  UNL     1     -22.204 -23.780 -21.345  1.00  0.00     0.182 A
HETATM    8  N4  UNL     1     -23.150 -23.980 -20.462  1.00  0.00    -0.348 N
ATOM      9  H4  UNL     1     -23.106 -24.832 -19.905  1.00  0.00     0.167 HD
HETATM   10  C6  UNL     1     -24.207 -23.116 -20.231  1.00  0.00     0.097 A
HETATM   11  C9  UNL     1     -24.209 -22.011 -20.997  1.00  0.00     0.082 A
HETATM   12  C10 UNL     1     -25.195 -21.016 -20.894  1.00  0.00     0.120 A
HETATM   13  N9  UNL     1     -25.055 -19.983 -21.704  1.00  0.00    -0.307 N
ATOM     14  H9  UNL     1     -25.768 -19.256 -21.634  1.00  0.00     0.171 HD
ENDROOT
BRANCH   1  15
HETATM   15  O1  UNL     1     -24.102 -18.633 -23.369  1.00  0.00    -0.278 OA
BRANCH  15  16
HETATM   16  C2  UNL     1     -24.150 -17.309 -23.014  1.00  0.00     0.281 A
HETATM   17  C13 UNL     1     -23.440 -16.352 -23.989  1.00  0.00     0.306 A
HETATM   18  N10 UNL     1     -24.864 -16.470 -23.988  1.00  0.00    -0.034 N
ATOM     19 2H10 UNL     1     -25.540 -16.685 -24.720  1.00  0.00     0.281 HD
ATOM     20 1H10 UNL     1     -25.615 -15.786 -23.892  1.00  0.00     0.281 HD
BRANCH  16  21
HETATM   21  C1  UNL     1     -24.224 -16.830 -21.580  1.00  0.00     0.300 C
BRANCH  21  22
HETATM   22  N1  UNL     1     -25.513 -16.566 -21.083  1.00  0.00    -0.075 N
ATOM     23  H13 UNL     1     -26.035 -16.005 -21.757  1.00  0.00     0.274 HD
ATOM     24  H12 UNL     1     -26.069 -17.422 -21.089  1.00  0.00     0.274 HD
ATOM     25  H11 UNL     1     -25.558 -16.131 -20.162  1.00  0.00     0.274 HD
ENDBRANCH  21  22
ENDBRANCH  16  21
ENDBRANCH  15  16
ENDBRANCH   1  15
BRANCH  12  26
HETATM   26  N8  UNL     1     -26.145 -21.126 -20.088  1.00  0.00    -0.373 N
ATOM     27  H8  UNL     1     -25.893 -21.176 -19.100  1.00  0.00     0.161 HD
BRANCH  26  28
HETATM   28  C11 UNL     1     -27.528 -21.191 -20.383  1.00  0.00     0.147 C
BRANCH  28  29
HETATM   29  C12 UNL     1     -27.888 -22.134 -21.471  1.00  0.00     0.183 C
BRANCH  29  30
HETATM   30  O2  UNL     1     -28.571 -23.238 -20.858  1.00  0.00    -0.399 OA
ATOM     31  H2  UNL     1     -28.965 -23.743 -21.560  1.00  0.00     0.209 HD
ENDBRANCH  29  30
ENDBRANCH  28  29
ENDBRANCH  26  28
ENDBRANCH  12  26
BRANCH  10  32
HETATM   32  C7  UNL     1     -25.159 -23.457 -19.215  1.00  0.00     0.149 A
HETATM   33  N5  UNL     1     -25.504 -23.233 -18.013  1.00  0.00    -0.335 N
HETATM   34  C8  UNL     1     -26.553 -23.923 -17.562  1.00  0.00     0.199 A
ATOM     35  H5  UNL     1     -25.007 -22.562 -17.426  1.00  0.00     0.168 HD
HETATM   36  N6  UNL     1     -26.930 -24.681 -18.591  1.00  0.00    -0.294 N
HETATM   37  N7  UNL     1     -26.117 -24.421 -19.581  1.00  0.00    -0.283 N
ATOM     38  H6  UNL     1     -27.708 -25.341 -18.605  1.00  0.00     0.187 HD
ATOM     39  H7  UNL     1     -26.170 -24.859 -20.501  1.00  0.00     0.188 HD
ENDBRANCH  10  32
TORSDOF 9
ENDMDL