MODEL 5
REMARK VINA RESULT: -7.045676745      2.868      4.420
REMARK  11 active torsions:
REMARK  status: ('A' for Active; 'I' for Inactive)
REMARK    1  A    between atoms: N1_2  and  C2_4
REMARK    2  A    between atoms: C3_7  and  N3_8
REMARK    3  A    between atoms: N3_8  and  C4_10
REMARK    4  A    between atoms: C4_10  and  C5_11
REMARK    5  A    between atoms: C5_11  and  C6_12
REMARK    6  A    between atoms: C6_12  and  N4_13
REMARK    7  A    between atoms: C7_19  and  S1_20
REMARK    8  A    between atoms: C9_22  and  N6_23
REMARK       I    between atoms: N6_23  and  C10_25
REMARK       I    between atoms: C10_25  and  N8_30
REMARK    9  A    between atoms: N7_26  and  O1_28
REMARK   10  A    between atoms: N8_30  and  O2_32
REMARK   11  A    between atoms: O2_32  and  N9_33
ROOT
HETATM    1  C2  UNL     1     -24.082 -18.841 -21.037  1.00  0.00     0.694 C
HETATM    2  N2  UNL     1     -24.042 -18.942 -22.392  1.00  0.00    -0.022 N
ATOM      3  H2  UNL     1     -23.708 -18.120 -22.893  1.00  0.00     0.203 HD
HETATM    4  C3  UNL     1     -24.396 -20.012 -23.163  1.00  0.00     0.693 C
HETATM    5  N5  UNL     1     -24.365 -21.312 -22.752  1.00  0.00    -0.182 N
ATOM      6  H5  UNL     1     -24.386 -22.016 -23.489  1.00  0.00     0.185 HD
HETATM    7  C7  UNL     1     -24.310 -21.785 -21.470  1.00  0.00     0.131 C
HETATM    8  C9  UNL     1     -24.594 -21.120 -20.304  1.00  0.00     0.170 C
HETATM    9  N10 UNL     1     -24.257 -19.801 -20.112  1.00  0.00    -0.173 N
ATOM     10  H10 UNL     1     -24.121 -19.514 -19.143  1.00  0.00     0.186 HD
ENDROOT
BRANCH   8  11
HETATM   11  N6  UNL     1     -25.167 -21.684 -19.407  1.00  0.00    -0.170 N
HETATM   12  C10 UNL     1     -26.219 -22.198 -18.770  1.00  0.00     0.725 C
HETATM   13  N7  UNL     1     -26.033 -22.963 -17.702  1.00  0.00    -0.097 N
HETATM   14  N8  UNL     1     -27.612 -22.034 -19.061  1.00  0.00    -0.070 N
ATOM     15  H7  UNL     1     -26.818 -23.371 -17.192  1.00  0.00     0.213 HD
ATOM     16  H8  UNL     1     -28.000 -21.105 -19.224  1.00  0.00     0.215 HD
ATOM     17  H6  UNL     1     -24.406 -21.882 -18.758  1.00  0.00     0.186 HD
BRANCH  13  18
HETATM   18  O1  UNL     1     -24.739 -23.176 -17.319  1.00  0.00    -0.276 OA
ATOM     19  H1  UNL     1     -24.379 -24.036 -17.499  1.00  0.00     0.245 HD
ENDBRANCH  13  18
BRANCH  14  20
HETATM   20  O2  UNL     1     -28.393 -23.110 -19.114  1.00  0.00    -0.149 OA
BRANCH  20  21
HETATM   21  N9  UNL     1     -28.340 -23.765 -20.299  1.00  0.00    -0.286 N
ATOM     22  H92 UNL     1     -27.528 -23.713 -20.913  1.00  0.00     0.186 HD
ATOM     23  H91 UNL     1     -29.180 -24.303 -20.508  1.00  0.00     0.186 HD
ENDBRANCH  20  21
ENDBRANCH  14  20
ENDBRANCH   8  11
BRANCH   7  24
HETATM   24  S1  UNL     1     -23.789 -23.482 -21.346  1.00  0.00    -0.112 SA
HETATM   25  C8  UNL     1     -22.037 -23.592 -21.801  1.00  0.00     0.097 C
ENDBRANCH   7  24
BRANCH   1  26
HETATM   26  N1  UNL     1     -23.928 -17.639 -20.605  1.00  0.00    -0.230 N
HETATM   27  C1  UNL     1     -25.054 -16.778 -20.326  1.00  0.00     0.165 C
ATOM     28  H1  UNL     1     -22.984 -17.283 -20.457  1.00  0.00     0.177 HD
ENDBRANCH   1  26
BRANCH   4  29
HETATM   29  N3  UNL     1     -24.789 -19.776 -24.362  1.00  0.00    -0.225 N
ATOM     30  H3  UNL     1     -25.652 -20.199 -24.704  1.00  0.00     0.177 HD
BRANCH  29  31
HETATM   31  C4  UNL     1     -24.023 -18.921 -25.228  1.00  0.00     0.139 C
BRANCH  31  32
HETATM   32  C5  UNL     1     -24.870 -17.752 -25.717  1.00  0.00     0.047 C
BRANCH  32  33
HETATM   33  C6  UNL     1     -24.538 -16.483 -24.982  1.00  0.00     0.231 C
BRANCH  33  34
HETATM   34  N4  UNL     1     -25.645 -16.128 -24.136  1.00  0.00    -0.079 N
ATOM     35  H43 UNL     1     -25.364 -15.529 -23.360  1.00  0.00     0.274 HD
ATOM     36  H42 UNL     1     -26.288 -15.479 -24.592  1.00  0.00     0.274 HD
ATOM     37  H41 UNL     1     -26.111 -16.978 -23.821  1.00  0.00     0.274 HD
ENDBRANCH  33  34
ENDBRANCH  32  33
ENDBRANCH  31  32
ENDBRANCH  29  31
ENDBRANCH   4  29
TORSDOF 11
ENDMDL