MODEL 5
REMARK VINA RESULT: -6.916261441      2.085      3.616
REMARK  9 active torsions:
REMARK  status: ('A' for Active; 'I' for Inactive)
REMARK    1  A    between atoms: C2_2  and  N1_3
REMARK    2  A    between atoms: C2_2  and  C3_7
REMARK    3  A    between atoms: C3_7  and  C4_8
REMARK    4  A    between atoms: C3_7  and  N2_11
REMARK    5  A    between atoms: C4_8  and  O1_9
REMARK    6  A    between atoms: N2_11  and  C5_13
REMARK    7  A    between atoms: C5_13  and  C6_14
REMARK    8  A    between atoms: C9_18  and  N3_19
REMARK    9  A    between atoms: C12_24  and  N5_25
ROOT
HETATM    1  C6  UNL     1     -26.412 -22.289 -22.186  1.00  0.00     0.302 C
HETATM    2  O2  UNL     1     -27.298 -21.545 -21.372  1.00  0.00    -0.347 OA
HETATM    3  C7  UNL     1     -26.534 -20.689 -20.615  1.00  0.00     0.170 C
HETATM    4  C8  UNL     1     -26.474 -20.979 -19.156  1.00  0.00     0.044 C
HETATM    5  C9  UNL     1     -25.106 -20.799 -21.156  1.00  0.00     0.262 C
HETATM    6  O3  UNL     1     -25.325 -21.436 -22.347  1.00  0.00    -0.329 OA
ENDROOT
BRANCH   5   7
HETATM    7  N3  UNL     1     -24.575 -19.475 -21.240  1.00  0.00    -0.297 N
HETATM    8  C10 UNL     1     -24.267 -18.704 -20.167  1.00  0.00     0.188 A
HETATM    9  N4  UNL     1     -23.798 -17.531 -20.602  1.00  0.00    -0.346 N
HETATM   10  C11 UNL     1     -23.788 -17.509 -21.936  1.00  0.00     0.122 A
ATOM     11  H4  UNL     1     -23.492 -16.765 -20.002  1.00  0.00     0.167 HD
HETATM   12  C12 UNL     1     -23.409 -16.562 -22.864  1.00  0.00     0.131 A
HETATM   13  C14 UNL     1     -24.286 -18.757 -22.327  1.00  0.00     0.142 A
HETATM   14  N6  UNL     1     -23.517 -16.834 -24.178  1.00  0.00    -0.337 N
HETATM   15  C13 UNL     1     -23.997 -18.034 -24.524  1.00  0.00     0.183 A
ATOM     16  H6  UNL     1     -23.242 -16.151 -24.884  1.00  0.00     0.168 HD
HETATM   17  N7  UNL     1     -24.375 -18.983 -23.627  1.00  0.00    -0.336 N
ATOM     18  H7  UNL     1     -24.732 -19.878 -23.961  1.00  0.00     0.168 HD
BRANCH  12  19
HETATM   19  N5  UNL     1     -22.955 -15.422 -22.472  1.00  0.00    -0.383 N
ATOM     20  H52 UNL     1     -23.563 -14.766 -21.982  1.00  0.00     0.157 HD
ATOM     21  H51 UNL     1     -21.983 -15.172 -22.653  1.00  0.00     0.157 HD
ENDBRANCH  12  19
ENDBRANCH   5   7
BRANCH   1  22
HETATM   22  C5  UNL     1     -26.080 -23.519 -21.392  1.00  0.00     0.116 C
BRANCH  22  23
HETATM   23  N2  UNL     1     -24.922 -24.224 -21.770  1.00  0.00    -0.389 N
ATOM     24  H2  UNL     1     -24.887 -24.745 -22.646  1.00  0.00     0.159 HD
BRANCH  23  25
HETATM   25  C3  UNL     1     -23.803 -24.191 -20.893  1.00  0.00     0.134 C
BRANCH  25  26
HETATM   26  C2  UNL     1     -22.484 -23.979 -21.586  1.00  0.00     0.204 C
HETATM   27  C1  UNL     1     -22.275 -24.886 -22.758  1.00  0.00     0.042 C
BRANCH  26  28
HETATM   28  N1  UNL     1     -22.286 -22.628 -22.025  1.00  0.00    -0.073 N
ATOM     29  H13 UNL     1     -22.523 -22.495 -23.007  1.00  0.00     0.274 HD
ATOM     30  H12 UNL     1     -22.969 -21.983 -21.629  1.00  0.00     0.274 HD
ATOM     31  H11 UNL     1     -21.325 -22.361 -21.813  1.00  0.00     0.274 HD
ENDBRANCH  26  28
ENDBRANCH  25  26
BRANCH  25  32
HETATM   32  C4  UNL     1     -23.803 -25.535 -20.164  1.00  0.00     0.191 C
BRANCH  32  33
HETATM   33  O1  UNL     1     -22.718 -25.600 -19.295  1.00  0.00    -0.399 OA
ATOM     34  H1  UNL     1     -22.732 -26.425 -18.824  1.00  0.00     0.209 HD
ENDBRANCH  32  33
ENDBRANCH  25  32
ENDBRANCH  23  25
ENDBRANCH  22  23
ENDBRANCH   1  22
TORSDOF 9
ENDMDL