MODEL 1
REMARK VINA RESULT: -8.414291300      0.000      0.000
REMARK  8 active torsions:
REMARK  status: ('A' for Active; 'I' for Inactive)
REMARK    1  A    between atoms: N1_1  and  C1_4
REMARK    2  A    between atoms: C2_10  and  C3_11
REMARK    3  A    between atoms: C3_11  and  C4_12
REMARK    4  A    between atoms: N5_16  and  C6_18
REMARK    5  A    between atoms: C6_18  and  C7_19
REMARK    6  A    between atoms: C7_19  and  N6_20
REMARK    7  A    between atoms: C7_19  and  C8_24
REMARK    8  A    between atoms: C8_24  and  C9_25
ROOT
HETATM    1  C4  UNL     1     -23.805 -16.898 -22.296  1.00  0.00     0.089 A
HETATM    2  N4  UNL     1     -24.022 -18.205 -22.131  1.00  0.00    -0.332 N
ATOM      3  H4  UNL     1     -24.014 -18.805 -22.955  1.00  0.00     0.168 HD
HETATM    4  C5  UNL     1     -24.253 -18.777 -20.920  1.00  0.00     0.105 A
HETATM    5  N5  UNL     1     -24.459 -20.022 -20.787  1.00  0.00    -0.374 N
ATOM      6  H5  UNL     1     -24.450 -20.613 -21.618  1.00  0.00     0.161 HD
HETATM    7  C11 UNL     1     -24.259 -17.951 -19.828  1.00  0.00     0.093 A
HETATM    8  C12 UNL     1     -24.032 -16.582 -19.989  1.00  0.00     0.121 A
HETATM    9  N10 UNL     1     -24.042 -15.738 -18.829  1.00  0.00    -0.083 NA
HETATM   10  N11 UNL     1     -23.812 -16.100 -21.220  1.00  0.00    -0.334 N
ATOM     11  H11 UNL     1     -23.645 -15.101 -21.341  1.00  0.00     0.168 HD
ENDROOT
BRANCH   5  12
HETATM   12  C6  UNL     1     -24.703 -20.627 -19.515  1.00  0.00     0.154 C
BRANCH  12  13
HETATM   13  C7  UNL     1     -25.525 -21.886 -19.614  1.00  0.00     0.206 C
BRANCH  13  14
HETATM   14  N6  UNL     1     -26.878 -21.648 -19.121  1.00  0.00    -0.073 N
ATOM     15  H63 UNL     1     -26.888 -20.993 -18.338  1.00  0.00     0.274 HD
ATOM     16  H62 UNL     1     -27.433 -21.104 -19.780  1.00  0.00     0.274 HD
ATOM     17  H61 UNL     1     -27.330 -22.532 -18.883  1.00  0.00     0.274 HD
ENDBRANCH  13  14
BRANCH  13  18
HETATM   18  C8  UNL     1     -24.851 -22.996 -18.891  1.00  0.00     0.094 C
BRANCH  18  19
HETATM   19  C9  UNL     1     -24.268 -24.023 -19.777  1.00  0.00     0.046 A
HETATM   20  C10 UNL     1     -23.316 -23.842 -20.781  1.00  0.00     0.135 A
HETATM   21  N7  UNL     1     -23.084 -25.035 -21.351  1.00  0.00    -0.296 N
HETATM   22  N8  UNL     1     -23.846 -25.932 -20.747  1.00  0.00    -0.243 N
ATOM     23  H7  UNL     1     -22.435 -25.217 -22.116  1.00  0.00     0.187 HD
HETATM   24  N9  UNL     1     -24.552 -25.347 -19.813  1.00  0.00    -0.289 N
ATOM     25  H8  UNL     1     -23.878 -26.926 -20.974  1.00  0.00     0.208 HD
ATOM     26  H9  UNL     1     -25.218 -25.820 -19.202  1.00  0.00     0.188 HD
ENDBRANCH  18  19
ENDBRANCH  13  18
ENDBRANCH  12  13
ENDBRANCH   5  12
BRANCH   1  27
HETATM   27  C3  UNL     1     -23.563 -16.393 -23.668  1.00  0.00     0.139 C
BRANCH  27  28
HETATM   28  C2  UNL     1     -24.748 -15.776 -24.272  1.00  0.00     0.086 A
HETATM   29  C1  UNL     1     -24.936 -14.458 -24.686  1.00  0.00     0.146 A
HETATM   30  N2  UNL     1     -26.177 -14.392 -25.165  1.00  0.00    -0.224 N
HETATM   31  O1  UNL     1     -26.709 -15.558 -25.058  1.00  0.00    -0.155 OA
ATOM     32  H2  UNL     1     -26.627 -13.561 -25.550  1.00  0.00     0.198 HD
HETATM   33  N3  UNL     1     -25.900 -16.420 -24.531  1.00  0.00    -0.242 N
ATOM     34  H3  UNL     1     -26.098 -17.403 -24.347  1.00  0.00     0.196 HD
BRANCH  29  35
HETATM   35  N1  UNL     1     -24.063 -13.535 -24.604  1.00  0.00    -0.382 N
ATOM     36  H12 UNL     1     -24.267 -12.536 -24.598  1.00  0.00     0.157 HD
ATOM     37  H11 UNL     1     -23.049 -13.619 -24.531  1.00  0.00     0.157 HD
ENDBRANCH  29  35
ENDBRANCH  27  28
ENDBRANCH   1  27
TORSDOF 8
ENDMDL