MODEL 2
REMARK VINA RESULT: -7.396389281      1.860      3.114
REMARK  9 active torsions:
REMARK  status: ('A' for Active; 'I' for Inactive)
REMARK    1  A    between atoms: O1_2  and  C2_3
REMARK    2  A    between atoms: C4_7  and  N2_8
REMARK    3  A    between atoms: C6_13  and  O2_14
REMARK    4  A    between atoms: C8_16  and  C9_17
REMARK    5  A    between atoms: C9_17  and  N4_18
REMARK    6  A    between atoms: C9_17  and  N5_22
REMARK    7  A    between atoms: N5_22  and  N6_24
REMARK    8  A    between atoms: C12_32  and  N8_33
REMARK    9  A    between atoms: N8_33  and  C13_35
ROOT
HETATM    1  N2  UNL     1     -23.344 -20.814 -22.053  1.00  0.00    -0.324 N
ATOM      2  H2  UNL     1     -22.441 -21.230 -22.282  1.00  0.00     0.169 HD
HETATM    3  C5  UNL     1     -24.113 -21.486 -21.282  1.00  0.00     0.178 A
HETATM    4  N3  UNL     1     -23.727 -22.699 -20.799  1.00  0.00    -0.317 N
ATOM      5  H3  UNL     1     -22.814 -23.072 -21.058  1.00  0.00     0.169 HD
HETATM    6  C6  UNL     1     -24.539 -23.429 -19.973  1.00  0.00     0.171 A
HETATM    7  C8  UNL     1     -25.779 -22.956 -19.604  1.00  0.00     0.115 A
HETATM    8  N7  UNL     1     -26.154 -21.748 -20.092  1.00  0.00    -0.317 N
ATOM      9  H7  UNL     1     -27.068 -21.374 -19.836  1.00  0.00     0.169 HD
HETATM   10  C10 UNL     1     -25.349 -21.015 -20.914  1.00  0.00     0.290 A
HETATM   11  O3  UNL     1     -25.819 -19.898 -21.300  1.00  0.00    -0.264 OA
ENDROOT
BRANCH   1  12
HETATM   12  C4  UNL     1     -23.625 -19.556 -22.615  1.00  0.00     0.108 A
HETATM   13  N1  UNL     1     -23.512 -18.431 -21.919  1.00  0.00    -0.349 N
HETATM   14  C3  UNL     1     -23.793 -17.243 -22.464  1.00  0.00     0.128 A
ATOM     15  H1  UNL     1     -23.204 -18.473 -20.948  1.00  0.00     0.166 HD
HETATM   16  C2  UNL     1     -24.207 -17.190 -23.771  1.00  0.00     0.110 A
HETATM   17  C12 UNL     1     -24.344 -18.335 -24.552  1.00  0.00     0.072 A
HETATM   18  C11 UNL     1     -24.048 -19.515 -23.956  1.00  0.00     0.081 A
BRANCH  16  19
HETATM   19  O1  UNL     1     -24.494 -15.958 -24.325  1.00  0.00    -0.352 OA
HETATM   20  C1  UNL     1     -24.505 -14.758 -23.603  1.00  0.00     0.210 C
ENDBRANCH  16  19
BRANCH  17  21
HETATM   21  N8  UNL     1     -24.773 -18.179 -25.877  1.00  0.00    -0.332 N
ATOM     22  H8  UNL     1     -24.179 -17.634 -26.502  1.00  0.00     0.168 HD
BRANCH  21  23
HETATM   23  C13 UNL     1     -25.945 -18.711 -26.408  1.00  0.00     0.353 C
HETATM   24  O4  UNL     1     -27.089 -18.339 -26.190  1.00  0.00    -0.283 OA
ENDBRANCH  21  23
ENDBRANCH  17  21
ENDBRANCH   1  12
BRANCH   6  25
HETATM   25  O2  UNL     1     -24.030 -24.639 -19.549  1.00  0.00    -0.339 OA
HETATM   26  C7  UNL     1     -23.866 -25.776 -20.341  1.00  0.00     0.211 C
ENDBRANCH   6  25
BRANCH   7  27
HETATM   27  C9  UNL     1     -26.740 -23.688 -18.754  1.00  0.00     0.350 C
BRANCH  27  28
HETATM   28  N4  UNL     1     -26.344 -23.541 -17.366  1.00  0.00    -0.051 N
ATOM     29  H43 UNL     1     -26.892 -24.131 -16.740  1.00  0.00     0.277 HD
ATOM     30  H42 UNL     1     -25.428 -23.948 -17.178  1.00  0.00     0.277 HD
ATOM     31  H41 UNL     1     -26.391 -22.554 -17.114  1.00  0.00     0.277 HD
ENDBRANCH  27  28
BRANCH  27  32
HETATM   32  N5  UNL     1     -28.087 -23.246 -18.916  1.00  0.00    -0.307 N
ATOM     33  H5  UNL     1     -28.445 -22.429 -18.421  1.00  0.00     0.182 HD
BRANCH  32  34
HETATM   34  N6  UNL     1     -28.876 -23.971 -19.769  1.00  0.00    -0.347 N
ATOM     35  H62 UNL     1     -28.805 -24.989 -19.806  1.00  0.00     0.176 HD
ATOM     36  H61 UNL     1     -29.525 -23.445 -20.353  1.00  0.00     0.176 HD
ENDBRANCH  32  34
ENDBRANCH  27  32
ENDBRANCH   7  27
TORSDOF 9
ENDMDL