MODEL 4
REMARK VINA RESULT: -8.120474205      3.382      6.613
REMARK  7 active torsions:
REMARK  status: ('A' for Active; 'I' for Inactive)
REMARK    1  A    between atoms: N1_1  and  C1_4
REMARK    2  A    between atoms: N4_9  and  C2_10
REMARK    3  A    between atoms: C2_10  and  C3_11
REMARK    4  A    between atoms: C3_11  and  N5_12
REMARK    5  A    between atoms: N5_12  and  C4_15
REMARK    6  A    between atoms: C4_15  and  C5_16
REMARK    7  A    between atoms: C8_23  and  N8_24
ROOT
HETATM    1  C5  UNL     1     -24.751 -21.507 -22.035  1.00  0.00    -0.016 A
HETATM    2  C6  UNL     1     -26.018 -21.579 -22.688  1.00  0.00     0.098 A
HETATM    3  N6  UNL     1     -27.088 -22.078 -22.069  1.00  0.00    -0.350 N
ATOM      4  H6  UNL     1     -27.982 -22.122 -22.559  1.00  0.00     0.166 HD
HETATM    5  C7  UNL     1     -27.000 -22.522 -20.808  1.00  0.00     0.135 A
HETATM    6  N7  UNL     1     -28.168 -22.999 -20.346  1.00  0.00    -0.176 N
ATOM      7  H7  UNL     1     -29.012 -22.672 -20.818  1.00  0.00     0.186 HD
HETATM    8  C8  UNL     1     -28.348 -23.865 -19.327  1.00  0.00     0.680 C
HETATM    9  N9  UNL     1     -27.659 -23.964 -18.174  1.00  0.00    -0.153 N
ATOM     10  H9  UNL     1     -28.133 -24.418 -17.393  1.00  0.00     0.187 HD
HETATM   11  C9  UNL     1     -26.403 -23.520 -17.949  1.00  0.00     0.310 C
HETATM   12  O1  UNL     1     -25.968 -23.707 -16.778  1.00  0.00    -0.263 OA
HETATM   13  C10 UNL     1     -25.536 -22.900 -18.834  1.00  0.00     0.253 C
HETATM   14  O2  UNL     1     -24.381 -22.700 -18.422  1.00  0.00    -0.281 OA
HETATM   15  C11 UNL     1     -25.788 -22.466 -20.137  1.00  0.00     0.065 A
HETATM   16  C12 UNL     1     -24.632 -21.947 -20.757  1.00  0.00     0.029 A
ENDROOT
BRANCH   1  17
HETATM   17  C4  UNL     1     -23.693 -20.979 -22.905  1.00  0.00     0.272 C
BRANCH  17  18
HETATM   18  N5  UNL     1     -22.355 -21.198 -22.387  1.00  0.00    -0.070 N
ATOM     19  H52 UNL     1     -22.361 -21.304 -21.372  1.00  0.00     0.277 HD
ATOM     20  H51 UNL     1     -21.787 -20.353 -22.454  1.00  0.00     0.277 HD
BRANCH  18  21
HETATM   21  C3  UNL     1     -21.717 -22.307 -23.022  1.00  0.00     0.256 C
BRANCH  21  22
HETATM   22  C2  UNL     1     -21.235 -23.340 -22.052  1.00  0.00     0.199 C
BRANCH  22  23
HETATM   23  N4  UNL     1     -22.370 -24.291 -21.902  1.00  0.00    -0.203 N
HETATM   24  N3  UNL     1     -23.144 -24.860 -22.787  1.00  0.00    -0.211 N
HETATM   25  N2  UNL     1     -24.056 -25.627 -22.123  1.00  0.00    -0.115 N
ATOM     26  H3  UNL     1     -23.079 -24.750 -23.799  1.00  0.00     0.210 HD
HETATM   27  C1  UNL     1     -23.844 -25.521 -20.805  1.00  0.00     0.707 A
ATOM     28  H2  UNL     1     -24.783 -26.192 -22.561  1.00  0.00     0.207 HD
HETATM   29  N10 UNL     1     -22.807 -24.702 -20.698  1.00  0.00    -0.113 N
ATOM     30  H10 UNL     1     -22.391 -24.418 -19.811  1.00  0.00     0.207 HD
BRANCH  27  31
HETATM   31  N1  UNL     1     -24.518 -26.107 -19.853  1.00  0.00    -0.232 N
ATOM     32  H12 UNL     1     -25.011 -27.000 -19.880  1.00  0.00     0.174 HD
ATOM     33  H11 UNL     1     -24.669 -25.759 -18.906  1.00  0.00     0.174 HD
ENDBRANCH  27  31
ENDBRANCH  22  23
ENDBRANCH  21  22
ENDBRANCH  18  21
ENDBRANCH  17  18
ENDBRANCH   1  17
BRANCH   8  34
HETATM   34  N8  UNL     1     -29.316 -24.708 -19.482  1.00  0.00    -0.234 N
ATOM     35  H82 UNL     1     -29.750 -24.724 -20.404  1.00  0.00     0.174 HD
ATOM     36  H81 UNL     1     -29.540 -25.270 -18.660  1.00  0.00     0.174 HD
ENDBRANCH   8  34
TORSDOF 7
ENDMDL