MODEL 4
REMARK VINA RESULT: -6.757728406      1.500      1.589
REMARK  10 active torsions:
REMARK  status: ('A' for Active; 'I' for Inactive)
REMARK    1  A    between atoms: N1_1  and  N2_4
REMARK    2  A    between atoms: N2_4  and  C1_6
REMARK    3  A    between atoms: C2_9  and  N4_10
REMARK    4  A    between atoms: N4_10  and  C3_12
REMARK    5  A    between atoms: C3_12  and  C4_13
REMARK    6  A    between atoms: C4_13  and  C5_14
REMARK    7  A    between atoms: C5_14  and  C6_15
REMARK    8  A    between atoms: C6_15  and  S1_16
REMARK    9  A    between atoms: S1_16  and  N5_19
REMARK   10  A    between atoms: N5_19  and  C7_21
ROOT
HETATM    1  N4  UNL     1     -26.113 -23.899 -19.954  1.00  0.00    -0.394 N
ATOM      2  H4  UNL     1     -27.073 -24.206 -20.116  1.00  0.00     0.155 HD
ENDROOT
BRANCH   1   3
HETATM    3  C2  UNL     1     -25.045 -24.259 -20.829  1.00  0.00     0.274 A
HETATM    4  N3  UNL     1     -24.734 -23.204 -21.778  1.00  0.00    -0.332 N
HETATM    5  C1  UNL     1     -23.519 -22.848 -21.751  1.00  0.00     0.198 A
ATOM      6  H3  UNL     1     -25.425 -22.791 -22.404  1.00  0.00     0.165 HD
HETATM    7  N8  UNL     1     -22.807 -23.626 -20.769  1.00  0.00    -0.294 N
HETATM    8  C8  UNL     1     -23.747 -24.514 -20.193  1.00  0.00     0.266 A
ATOM      9  H8  UNL     1     -21.817 -23.552 -20.534  1.00  0.00     0.172 HD
HETATM   10  O3  UNL     1     -23.499 -25.352 -19.308  1.00  0.00    -0.269 OA
BRANCH   5  11
HETATM   11  N2  UNL     1     -22.912 -21.831 -22.567  1.00  0.00    -0.278 N
ATOM     12  H2  UNL     1     -23.497 -21.267 -23.182  1.00  0.00     0.189 HD
BRANCH  11  13
HETATM   13  N1  UNL     1     -21.544 -21.606 -22.531  1.00  0.00    -0.343 N
ATOM     14  H12 UNL     1     -20.925 -22.397 -22.357  1.00  0.00     0.176 HD
ATOM     15  H11 UNL     1     -21.160 -20.672 -22.676  1.00  0.00     0.176 HD
ENDBRANCH  11  13
ENDBRANCH   5  11
ENDBRANCH   1   3
BRANCH   1  16
HETATM   16  C3  UNL     1     -25.758 -23.086 -18.843  1.00  0.00     0.116 C
BRANCH  16  17
HETATM   17  C4  UNL     1     -26.134 -21.646 -19.132  1.00  0.00     0.020 C
BRANCH  17  18
HETATM   18  C5  UNL     1     -24.937 -20.747 -19.320  1.00  0.00     0.018 C
BRANCH  18  19
HETATM   19  C6  UNL     1     -25.337 -19.635 -20.243  1.00  0.00     0.163 C
BRANCH  19  20
HETATM   20  S1  UNL     1     -23.986 -18.553 -20.658  1.00  0.00     0.232 S
HETATM   21  O1  UNL     1     -23.076 -19.172 -21.669  1.00  0.00    -0.206 OA
HETATM   22  O2  UNL     1     -23.221 -18.221 -19.389  1.00  0.00    -0.206 OA
BRANCH  20  23
HETATM   23  N5  UNL     1     -24.668 -17.112 -21.301  1.00  0.00    -0.262 N
ATOM     24  H5  UNL     1     -25.555 -16.770 -20.932  1.00  0.00     0.180 HD
BRANCH  23  25
HETATM   25  C7  UNL     1     -24.078 -16.454 -22.243  1.00  0.00     0.191 A
HETATM   26  N6  UNL     1     -22.871 -16.368 -22.787  1.00  0.00    -0.272 N
HETATM   27  N7  UNL     1     -23.036 -15.464 -23.719  1.00  0.00    -0.265 N
ATOM     28  H6  UNL     1     -22.024 -16.879 -22.540  1.00  0.00     0.189 HD
HETATM   29  S2  UNL     1     -24.645 -15.289 -23.313  1.00  0.00     0.041 SA
ATOM     30  H7  UNL     1     -22.426 -15.036 -24.415  1.00  0.00     0.195 HD
ENDBRANCH  23  25
ENDBRANCH  20  23
ENDBRANCH  19  20
ENDBRANCH  18  19
ENDBRANCH  17  18
ENDBRANCH  16  17
ENDBRANCH   1  16
TORSDOF 10
ENDMDL