MODEL 5
REMARK VINA RESULT: -6.883651358      4.162      5.968
REMARK  10 active torsions:
REMARK  status: ('A' for Active; 'I' for Inactive)
REMARK    1  A    between atoms: C2_2  and  C3_3
REMARK    2  A    between atoms: C4_4  and  C5_5
REMARK    3  A    between atoms: C7_11  and  N3_12
REMARK    4  A    between atoms: N3_12  and  C8_13
REMARK    5  A    between atoms: N3_12  and  C10_17
REMARK    6  A    between atoms: C8_13  and  C9_14
REMARK    7  A    between atoms: C9_14  and  O1_15
REMARK    8  A    between atoms: C10_17  and  C11_18
REMARK    9  A    between atoms: C11_18  and  O2_19
REMARK   10  A    between atoms: C12_23  and  N5_24
REMARK       I    between atoms: N5_24  and  C13_26
REMARK       I    between atoms: C13_26  and  N6_27
REMARK       I    between atoms: C13_26  and  N7_31
ROOT
HETATM    1  C5  UNL     1     -24.142 -19.059 -24.333  1.00  0.00     0.163 A
HETATM    2  N1  UNL     1     -24.395 -20.328 -23.995  1.00  0.00    -0.319 N
ATOM      3  H1  UNL     1     -24.532 -21.084 -24.665  1.00  0.00     0.169 HD
HETATM    4  C6  UNL     1     -24.445 -20.481 -22.663  1.00  0.00     0.153 A
HETATM    5  N2  UNL     1     -24.664 -21.540 -21.853  1.00  0.00    -0.174 N
ATOM      6  H2  UNL     1     -24.836 -22.456 -22.266  1.00  0.00     0.186 HD
HETATM    7  C7  UNL     1     -24.659 -21.411 -20.509  1.00  0.00     0.683 A
HETATM    8  N4  UNL     1     -24.435 -20.214 -19.988  1.00  0.00    -0.174 N
ATOM      9  H4  UNL     1     -24.434 -20.127 -18.972  1.00  0.00     0.186 HD
HETATM   10  C12 UNL     1     -24.203 -19.084 -20.730  1.00  0.00     0.150 A
HETATM   11  C14 UNL     1     -24.211 -19.233 -22.113  1.00  0.00     0.124 A
HETATM   12  N8  UNL     1     -24.033 -18.404 -23.145  1.00  0.00    -0.329 N
ATOM     13  H8  UNL     1     -23.839 -17.407 -23.055  1.00  0.00     0.168 HD
ENDROOT
BRANCH  10  14
HETATM   14  N5  UNL     1     -24.014 -18.023 -20.159  1.00  0.00    -0.325 N
HETATM   15  C13 UNL     1     -24.274 -16.666 -20.204  1.00  0.00     0.481 C
HETATM   16  N6  UNL     1     -23.410 -15.907 -21.101  1.00  0.00    -0.033 N
HETATM   17  N7  UNL     1     -24.066 -16.049 -18.869  1.00  0.00    -0.033 N
ATOM     18  H63 UNL     1     -22.429 -16.072 -20.871  1.00  0.00     0.278 HD
ATOM     19  H62 UNL     1     -23.440 -16.304 -22.040  1.00  0.00     0.278 HD
ATOM     20  H61 UNL     1     -23.601 -14.906 -21.134  1.00  0.00     0.278 HD
ATOM     21  H73 UNL     1     -24.615 -16.515 -18.146  1.00  0.00     0.278 HD
ATOM     22  H72 UNL     1     -23.134 -16.245 -18.502  1.00  0.00     0.278 HD
ATOM     23  H71 UNL     1     -24.257 -15.048 -18.902  1.00  0.00     0.278 HD
ATOM     24  H5  UNL     1     -23.449 -18.208 -19.330  1.00  0.00     0.165 HD
ENDBRANCH  10  14
BRANCH   7  25
HETATM   25  N3  UNL     1     -24.902 -22.582 -19.747  1.00  0.00    -0.213 N
BRANCH  25  26
HETATM   26  C8  UNL     1     -25.385 -22.414 -18.393  1.00  0.00     0.167 C
BRANCH  26  27
HETATM   27  C9  UNL     1     -25.702 -23.762 -17.760  1.00  0.00     0.184 C
BRANCH  27  28
HETATM   28  O1  UNL     1     -26.999 -23.736 -17.224  1.00  0.00    -0.399 OA
ATOM     29  H1  UNL     1     -27.421 -24.575 -17.370  1.00  0.00     0.209 HD
ENDBRANCH  27  28
ENDBRANCH  26  27
ENDBRANCH  25  26
BRANCH  25  30
HETATM   30  C10 UNL     1     -24.664 -23.865 -20.354  1.00  0.00     0.167 C
BRANCH  30  31
HETATM   31  C11 UNL     1     -23.211 -24.277 -20.282  1.00  0.00     0.184 C
BRANCH  31  32
HETATM   32  O2  UNL     1     -23.024 -25.405 -19.500  1.00  0.00    -0.399 OA
ATOM     33  H2  UNL     1     -23.009 -26.202 -20.016  1.00  0.00     0.209 HD
ENDBRANCH  31  32
ENDBRANCH  30  31
ENDBRANCH  25  30
ENDBRANCH   7  25
BRANCH   1  34
HETATM   34  C4  UNL     1     -24.016 -18.509 -25.650  1.00  0.00    -0.030 C
HETATM   35  C3  UNL     1     -23.890 -18.054 -26.771  1.00  0.00    -0.099 C
BRANCH  35  36
HETATM   36  C2  UNL     1     -23.742 -17.494 -28.128  1.00  0.00     0.090 C
HETATM   37  C1  UNL     1     -23.996 -16.005 -28.141  1.00  0.00     0.018 C
ENDBRANCH  35  36
ENDBRANCH   1  34
TORSDOF 10
ENDMDL