MODEL 3
REMARK VINA RESULT: -6.937849633      2.953      6.342
REMARK  10 active torsions:
REMARK  status: ('A' for Active; 'I' for Inactive)
REMARK    1  A    between atoms: C2_2  and  N1_3
REMARK    2  A    between atoms: N1_3  and  C3_5
REMARK    3  A    between atoms: C4_6  and  N2_7
REMARK    4  A    between atoms: N2_7  and  C5_9
REMARK    5  A    between atoms: C5_9  and  C6_10
REMARK    6  A    between atoms: C6_10  and  O1_11
REMARK    7  A    between atoms: C7_13  and  C8_14
REMARK    8  A    between atoms: C8_14  and  N3_15
REMARK    9  A    between atoms: C9_20  and  N4_21
REMARK   10  A    between atoms: C12_26  and  N6_27
ROOT
HETATM    1  C3  UNL     1     -24.294 -22.590 -21.030  1.00  0.00     0.154 C
HETATM    2  C4  UNL     1     -24.883 -21.180 -20.905  1.00  0.00     0.134 C
HETATM    3  C7  UNL     1     -25.001 -20.863 -22.381  1.00  0.00     0.174 C
HETATM    4  O2  UNL     1     -25.426 -22.003 -22.978  1.00  0.00    -0.355 OA
HETATM    5  C9  UNL     1     -25.269 -23.078 -22.019  1.00  0.00     0.255 C
ENDROOT
BRANCH   5   6
HETATM    6  N4  UNL     1     -24.960 -24.186 -22.861  1.00  0.00    -0.298 N
HETATM    7  C10 UNL     1     -24.158 -25.233 -22.796  1.00  0.00     0.188 A
HETATM    8  N5  UNL     1     -24.277 -25.948 -23.910  1.00  0.00    -0.346 N
HETATM    9  C11 UNL     1     -25.162 -25.373 -24.720  1.00  0.00     0.122 A
ATOM     10  H5  UNL     1     -23.766 -26.806 -24.113  1.00  0.00     0.167 HD
HETATM   11  C12 UNL     1     -25.690 -25.631 -25.983  1.00  0.00     0.131 A
HETATM   12  C14 UNL     1     -25.599 -24.257 -24.068  1.00  0.00     0.142 A
HETATM   13  N7  UNL     1     -26.607 -24.814 -26.558  1.00  0.00    -0.337 N
HETATM   14  C13 UNL     1     -27.027 -23.710 -25.895  1.00  0.00     0.183 A
ATOM     15  H7  UNL     1     -26.977 -25.029 -27.484  1.00  0.00     0.168 HD
HETATM   16  N8  UNL     1     -26.516 -23.463 -24.677  1.00  0.00    -0.336 N
ATOM     17  H8  UNL     1     -26.836 -22.631 -24.181  1.00  0.00     0.168 HD
BRANCH  11  18
HETATM   18  N6  UNL     1     -25.258 -26.696 -26.563  1.00  0.00    -0.383 N
ATOM     19  H62 UNL     1     -24.855 -26.680 -27.499  1.00  0.00     0.157 HD
ATOM     20  H61 UNL     1     -25.349 -27.559 -26.028  1.00  0.00     0.157 HD
ENDBRANCH  11  18
ENDBRANCH   5   6
BRANCH   1  21
HETATM   21  N1  UNL     1     -24.211 -23.113 -19.740  1.00  0.00    -0.392 N
ATOM     22  H1  UNL     1     -23.344 -22.960 -19.225  1.00  0.00     0.159 HD
BRANCH  21  23
HETATM   23  C2  UNL     1     -25.233 -23.836 -19.093  1.00  0.00     0.051 C
HETATM   24  C1  UNL     1     -25.861 -23.276 -17.860  1.00  0.00     0.054 C
ENDBRANCH  21  23
ENDBRANCH   1  21
BRANCH   2  25
HETATM   25  N2  UNL     1     -24.459 -20.208 -20.089  1.00  0.00    -0.411 N
ATOM     26  H2  UNL     1     -23.641 -20.365 -19.499  1.00  0.00     0.153 HD
BRANCH  25  27
HETATM   27  C5  UNL     1     -25.132 -18.966 -20.036  1.00  0.00     0.140 C
BRANCH  27  28
HETATM   28  C6  UNL     1     -24.115 -17.799 -20.115  1.00  0.00     0.183 C
BRANCH  28  29
HETATM   29  O1  UNL     1     -22.949 -18.207 -19.421  1.00  0.00    -0.399 OA
ATOM     30  H1  UNL     1     -23.219 -18.489 -18.555  1.00  0.00     0.209 HD
ENDBRANCH  28  29
ENDBRANCH  27  28
ENDBRANCH  25  27
ENDBRANCH   2  25
BRANCH   3  31
HETATM   31  C8  UNL     1     -23.802 -20.252 -22.998  1.00  0.00     0.263 C
BRANCH  31  32
HETATM   32  N3  UNL     1     -24.117 -18.967 -23.580  1.00  0.00    -0.077 N
ATOM     33  H33 UNL     1     -25.102 -18.731 -23.459  1.00  0.00     0.274 HD
ATOM     34  H32 UNL     1     -23.708 -18.201 -23.045  1.00  0.00     0.274 HD
ATOM     35  H31 UNL     1     -23.838 -18.931 -24.560  1.00  0.00     0.274 HD
ENDBRANCH  31  32
ENDBRANCH   3  31
TORSDOF 10
ENDMDL