MODEL 4
REMARK VINA RESULT: -6.101563957      2.166      3.289
REMARK  8 active torsions:
REMARK  status: ('A' for Active; 'I' for Inactive)
REMARK    1  A    between atoms: N1_2  and  C2_3
REMARK    2  A    between atoms: C2_3  and  C3_4
REMARK    3  A    between atoms: C3_4  and  C4_5
REMARK    4  A    between atoms: C4_5  and  N2_6
REMARK    5  A    between atoms: N2_6  and  C5_7
REMARK    6  A    between atoms: C5_7  and  C6_8
REMARK    7  A    between atoms: C6_8  and  O1_9
REMARK    8  A    between atoms: N3_20  and  C16_21
ROOT
HETATM    1  C3  UNL     1      17.316 -14.808  20.757  1.00  0.00     0.051 C
ENDROOT
BRANCH   1   2
HETATM    2  C2  UNL     1      16.695 -13.748  20.007  1.00  0.00     0.213 C
BRANCH   2   3
HETATM    3  N1  UNL     1      16.258 -12.521  20.561  1.00  0.00     0.014 N
HETATM    4  C1  UNL     1      17.301 -11.639  21.045  1.00  0.00     0.289 C
HETATM    5  C14 UNL     1      15.531 -12.889  21.810  1.00  0.00     0.272 C
HETATM    6  C15 UNL     1      14.041 -12.966  21.556  1.00  0.00     0.154 C
HETATM    7  N3  UNL     1      13.591 -11.580  21.389  1.00  0.00    -0.350 N
HETATM    8  C17 UNL     1      14.530 -10.744  20.621  1.00  0.00     0.236 C
HETATM    9  C18 UNL     1      15.328 -11.762  19.830  1.00  0.00     0.340 C
HETATM   10  O2  UNL     1      15.073 -11.802  18.663  1.00  0.00    -0.263 OA
BRANCH   7  11
HETATM   11  C16 UNL     1      12.384 -11.092  21.905  1.00  0.00     0.183 C
HETATM   12  N4  UNL     1      11.970  -9.789  21.575  1.00  0.00    -0.070 NA
HETATM   13  S1  UNL     1      11.503 -12.055  22.872  1.00  0.00    -0.044 SA
ENDBRANCH   7  11
ENDBRANCH   2   3
ENDBRANCH   1   2
BRANCH   1  14
HETATM   14  C4  UNL     1      18.660 -14.900  21.272  1.00  0.00     0.204 C
BRANCH  14  15
HETATM   15  N2  UNL     1      18.967 -14.908  22.671  1.00  0.00    -0.045 N
HETATM   16  C7  UNL     1      17.824 -14.671  23.497  1.00  0.00     0.243 C
HETATM   17  C8  UNL     1      18.028 -15.021  24.951  1.00  0.00     0.028 C
HETATM   18  C9  UNL     1      17.435 -16.379  25.231  1.00  0.00     0.002 C
HETATM   19  C10 UNL     1      18.538 -17.401  25.537  1.00  0.00     0.000 C
HETATM   20  C11 UNL     1      18.883 -18.154  24.315  1.00  0.00     0.002 C
HETATM   21  C12 UNL     1      18.959 -17.372  23.045  1.00  0.00     0.028 C
HETATM   22  C13 UNL     1      19.697 -16.112  23.057  1.00  0.00     0.243 C
BRANCH  15  23
HETATM   23  C5  UNL     1      19.906 -13.828  22.916  1.00  0.00     0.268 C
BRANCH  23  24
HETATM   24  C6  UNL     1      21.146 -14.258  23.674  1.00  0.00     0.192 C
BRANCH  24  25
HETATM   25  O1  UNL     1      22.235 -13.668  22.980  1.00  0.00    -0.399 OA
ATOM     26  H1  UNL     1      22.928 -13.583  23.625  1.00  0.00     0.209 HD
ENDBRANCH  24  25
ENDBRANCH  23  24
ENDBRANCH  15  23
ENDBRANCH  14  15
ENDBRANCH   1  14
TORSDOF 8
ENDMDL