MODEL 2
REMARK VINA RESULT: -7.553633634      0.905      1.467
REMARK  7 active torsions:
REMARK  status: ('A' for Active; 'I' for Inactive)
REMARK    1  A    between atoms: C2_2  and  C3_3
REMARK    2  A    between atoms: C7_8  and  C8_9
REMARK    3  A    between atoms: C8_9  and  C9_10
REMARK    4  A    between atoms: C9_10  and  C10_11
REMARK    5  A    between atoms: C10_11  and  N2_12
REMARK    6  A    between atoms: C11_13  and  N3_14
REMARK    7  A    between atoms: C15_18  and  N4_19
ROOT
HETATM    1  N2  UNL     1      15.454 -13.154  21.084  1.00  0.00    -0.369 N
HETATM    2  C11 UNL     1      15.764 -12.061  20.488  1.00  0.00     0.078 C
HETATM    3  C14 UNL     1      14.768 -10.979  20.690  1.00  0.00     0.103 C
HETATM    4  C15 UNL     1      13.560 -11.780  21.145  1.00  0.00     0.114 C
HETATM    5  C19 UNL     1      14.210 -12.961  21.788  1.00  0.00     0.150 C
ENDROOT
BRANCH   1   6
HETATM    6  C10 UNL     1      16.215 -14.408  21.078  1.00  0.00     0.124 C
BRANCH   6   7
HETATM    7  C9  UNL     1      17.167 -14.479  22.229  1.00  0.00     0.020 C
BRANCH   7   8
HETATM    8  C8  UNL     1      17.238 -15.835  22.862  1.00  0.00     0.010 C
BRANCH   8   9
HETATM    9  C7  UNL     1      18.650 -16.268  23.067  1.00  0.00     0.041 C
HETATM   10  C6  UNL     1      19.664 -15.143  23.082  1.00  0.00     0.266 C
HETATM   11  N1  UNL     1      19.845 -15.231  24.499  1.00  0.00     0.012 N
HETATM   12  C5  UNL     1      19.241 -14.131  25.227  1.00  0.00     0.262 C
HETATM   13  C20 UNL     1      19.079 -16.459  24.499  1.00  0.00     0.266 C
HETATM   14  N6  UNL     1      21.144 -15.348  24.966  1.00  0.00    -0.042 NA
HETATM   15  C4  UNL     1      20.357 -13.295  25.757  1.00  0.00     0.053 C
HETATM   16  C3  UNL     1      21.593 -14.076  25.425  1.00  0.00     0.108 C
BRANCH  16  17
HETATM   17  C2  UNL     1      22.365 -13.401  24.310  1.00  0.00     0.019 C
HETATM   18  C1  UNL     1      23.464 -14.328  23.849  1.00  0.00     0.007 C
ENDBRANCH  16  17
ENDBRANCH   8   9
ENDBRANCH   7   8
ENDBRANCH   6   7
ENDBRANCH   1   6
BRANCH   2  19
HETATM   19  N3  UNL     1      16.966 -11.927  19.698  1.00  0.00    -0.379 N
HETATM   20  C12 UNL     1      18.213 -11.671  20.368  1.00  0.00     0.150 C
HETATM   21  C13 UNL     1      16.881 -12.054  18.268  1.00  0.00     0.150 C
ENDBRANCH   2  19
BRANCH   4  22
HETATM   22  N4  UNL     1      12.663 -11.047  21.980  1.00  0.00    -0.326 N
HETATM   23  C16 UNL     1      12.652  -9.586  22.158  1.00  0.00     0.148 C
HETATM   24  C17 UNL     1      12.129  -9.372  23.561  1.00  0.00     0.144 C
HETATM   25  N5  UNL     1      11.189 -10.468  23.692  1.00  0.00    -0.341 N
HETATM   26  C18 UNL     1      11.611 -11.502  22.807  1.00  0.00     0.318 C
ATOM     27  H5  UNL     1      10.375 -10.494  24.306  1.00  0.00     0.164 HD
HETATM   28  O1  UNL     1      11.109 -12.647  22.779  1.00  0.00    -0.247 OA
ENDBRANCH   4  22
TORSDOF 7
ENDMDL