MODEL 2
REMARK VINA RESULT: -5.918016899      2.663      7.106
REMARK  11 active torsions:
REMARK  status: ('A' for Active; 'I' for Inactive)
REMARK    1  A    between atoms: C3_3  and  N1_4
REMARK    2  A    between atoms: N2_7  and  C6_8
REMARK    3  A    between atoms: N3_12  and  C9_13
REMARK    4  A    between atoms: N3_12  and  C13_19
REMARK    5  A    between atoms: C9_13  and  C10_14
REMARK    6  A    between atoms: C11_15  and  C12_16
REMARK    7  A    between atoms: C12_16  and  O2_17
REMARK    8  A    between atoms: C13_19  and  C14_20
REMARK    9  A    between atoms: C15_21  and  C16_22
REMARK   10  A    between atoms: C16_22  and  C17_23
REMARK   11  A    between atoms: C17_23  and  C18_24
ROOT
HETATM    1  C1  UNL     1      14.772 -18.677  23.109  1.00  0.00     0.018 C
HETATM    2  C2  UNL     1      15.505 -18.246  22.248  1.00  0.00    -0.072 C
HETATM    3  C3  UNL     1      16.388 -17.742  21.197  1.00  0.00     0.158 C
ENDROOT
BRANCH   3   4
HETATM    4  N1  UNL     1      16.879 -16.458  21.422  1.00  0.00    -0.314 N
HETATM    5  C4  UNL     1      17.788 -16.223  22.558  1.00  0.00     0.152 C
HETATM    6  C5  UNL     1      17.602 -14.905  23.215  1.00  0.00     0.148 C
HETATM    7  N2  UNL     1      18.274 -13.776  22.665  1.00  0.00    -0.326 N
HETATM    8  C8  UNL     1      18.206 -12.810  21.588  1.00  0.00     0.423 C
HETATM    9  O1  UNL     1      19.018 -11.886  21.647  1.00  0.00    -0.239 OA
HETATM   10  N3  UNL     1      17.297 -12.803  20.455  1.00  0.00     0.060 N
HETATM   11  C20 UNL     1      16.711 -14.018  20.206  1.00  0.00     0.290 C
HETATM   12  C21 UNL     1      16.462 -15.396  20.503  1.00  0.00     0.272 C
HETATM   13  O3  UNL     1      15.595 -15.853  19.713  1.00  0.00    -0.266 OA
BRANCH   7  14
HETATM   14  C6  UNL     1      19.465 -13.431  23.428  1.00  0.00     0.123 C
HETATM   15  C7  UNL     1      19.436 -13.852  24.847  1.00  0.00     0.026 C
ENDBRANCH   7  14
BRANCH  10  16
HETATM   16  C9  UNL     1      17.984 -12.277  19.254  1.00  0.00     0.350 C
BRANCH  16  17
HETATM   17  C10 UNL     1      17.035 -12.142  18.180  1.00  0.00    -0.075 C
HETATM   18  C11 UNL     1      16.245 -12.043  17.258  1.00  0.00    -0.079 C
BRANCH  18  19
HETATM   19  C12 UNL     1      15.300 -11.913  16.140  1.00  0.00     0.257 C
BRANCH  19  20
HETATM   20  O2  UNL     1      14.562 -10.744  16.224  1.00  0.00    -0.389 OA
ATOM     21  H2  UNL     1      14.169 -10.635  17.083  1.00  0.00     0.210 HD
ENDBRANCH  19  20
ENDBRANCH  18  19
ENDBRANCH  16  17
ENDBRANCH  10  16
BRANCH  10  22
HETATM   22  C13 UNL     1      16.380 -11.682  20.794  1.00  0.00     0.349 C
BRANCH  22  23
HETATM   23  C14 UNL     1      15.069 -12.187  21.174  1.00  0.00    -0.077 C
HETATM   24  C15 UNL     1      13.975 -12.592  21.475  1.00  0.00    -0.105 C
BRANCH  24  25
HETATM   25  C16 UNL     1      12.636 -13.063  21.831  1.00  0.00     0.094 C
BRANCH  25  26
HETATM   26  C17 UNL     1      11.941 -12.075  22.751  1.00  0.00     0.012 C
BRANCH  26  27
HETATM   27  C18 UNL     1      12.031 -10.680  22.196  1.00  0.00    -0.004 C
HETATM   28  C19 UNL     1      11.951  -9.624  23.255  1.00  0.00     0.005 C
ENDBRANCH  26  27
ENDBRANCH  25  26
ENDBRANCH  24  25
ENDBRANCH  22  23
ENDBRANCH  10  22
ENDBRANCH   3   4
TORSDOF 11
ENDMDL