MODEL 1
REMARK VINA RESULT: -7.218357588      0.000      0.000
REMARK  5 active torsions:
REMARK  status: ('A' for Active; 'I' for Inactive)
REMARK    1  A    between atoms: C2_2  and  N1_3
REMARK    2  A    between atoms: N2_6  and  C5_7
REMARK    3  A    between atoms: C5_7  and  C6_8
REMARK    4  A    between atoms: C6_8  and  C7_9
REMARK    5  A    between atoms: C7_9  and  C8_10
REMARK       I    between atoms: C8_10  and  N3_12
ROOT
HETATM    1  C8  UNL     1      17.364 -11.970  19.354  1.00  0.00     0.219 C
HETATM    2  O1  UNL     1      17.563 -11.963  18.099  1.00  0.00    -0.273 OA
HETATM    3  N3  UNL     1      16.038 -12.028  19.838  1.00  0.00    -0.352 N
HETATM    4  C9  UNL     1      14.927 -12.078  18.919  1.00  0.00     0.128 C
HETATM    5  C10 UNL     1      13.813 -11.161  19.287  1.00  0.00     0.051 C
HETATM    6  C11 UNL     1      13.581 -11.043  20.763  1.00  0.00     0.034 C
HETATM    7  C12 UNL     1      12.650  -9.879  21.028  1.00  0.00     0.038 C
HETATM    8  C13 UNL     1      12.111 -10.281  22.409  1.00  0.00     0.075 C
HETATM    9  C14 UNL     1      12.043 -11.764  22.223  1.00  0.00     0.089 C
HETATM   10  N4  UNL     1      11.186 -12.627  22.956  1.00  0.00    -0.088 NA
HETATM   11  N5  UNL     1      12.862 -12.136  21.315  1.00  0.00    -0.372 N
ATOM     12  H5  UNL     1      12.984 -13.105  21.021  1.00  0.00     0.161 HD
HETATM   13  C15 UNL     1      14.852 -10.871  21.554  1.00  0.00     0.051 C
HETATM   14  C16 UNL     1      15.784 -12.037  21.244  1.00  0.00     0.128 C
ENDROOT
BRANCH   1  15
HETATM   15  C7  UNL     1      18.544 -11.917  20.253  1.00  0.00     0.105 C
BRANCH  15  16
HETATM   16  C6  UNL     1      19.333 -13.172  20.106  1.00  0.00     0.037 C
BRANCH  16  17
HETATM   17  C5  UNL     1      18.728 -14.316  20.891  1.00  0.00     0.238 C
BRANCH  17  18
HETATM   18  N2  UNL     1      19.341 -14.460  22.175  1.00  0.00    -0.062 N
HETATM   19  C4  UNL     1      20.603 -13.732  22.144  1.00  0.00     0.265 C
HETATM   20  C3  UNL     1      21.235 -13.722  23.498  1.00  0.00     0.265 C
HETATM   21  N1  UNL     1      20.592 -14.715  24.342  1.00  0.00    -0.063 N
HETATM   22  C18 UNL     1      20.616 -15.966  23.606  1.00  0.00     0.265 C
HETATM   23  C20 UNL     1      19.207 -14.371  24.568  1.00  0.00     0.265 C
HETATM   24  C17 UNL     1      19.624 -15.867  22.474  1.00  0.00     0.265 C
HETATM   25  C19 UNL     1      18.560 -13.948  23.260  1.00  0.00     0.265 C
BRANCH  21  26
HETATM   26  C2  UNL     1      21.256 -14.806  25.610  1.00  0.00     0.233 C
HETATM   27  C1  UNL     1      21.214 -13.511  26.394  1.00  0.00     0.035 C
ENDBRANCH  21  26
ENDBRANCH  17  18
ENDBRANCH  16  17
ENDBRANCH  15  16
ENDBRANCH   1  15
TORSDOF 5
ENDMDL