MODEL 2
REMARK VINA RESULT: -6.432471117      2.785      5.181
REMARK  11 active torsions:
REMARK  status: ('A' for Active; 'I' for Inactive)
REMARK    1  A    between atoms: C2_2  and  N1_3
REMARK    2  A    between atoms: C2_2  and  C9_14
REMARK    3  A    between atoms: N1_3  and  C3_6
REMARK    4  A    between atoms: C3_6  and  C4_7
REMARK    5  A    between atoms: C5_8  and  C6_9
REMARK    6  A    between atoms: C6_9  and  N2_10
REMARK       I    between atoms: C9_14  and  N3_16
REMARK    7  A    between atoms: N3_16  and  C10_18
REMARK    8  A    between atoms: C11_19  and  C12_20
REMARK    9  A    between atoms: C12_20  and  C13_21
REMARK   10  A    between atoms: C14_22  and  C15_23
REMARK   11  A    between atoms: C15_23  and  N4_24
ROOT
HETATM    1  C9  UNL     1      20.302 -13.441  21.455  1.00  0.00     0.248 C
HETATM    2  O2  UNL     1      21.329 -12.725  21.362  1.00  0.00    -0.271 OA
HETATM    3  N3  UNL     1      19.983 -14.177  22.628  1.00  0.00    -0.353 N
ATOM      4  H3  UNL     1      19.131 -14.737  22.628  1.00  0.00     0.163 HD
ENDROOT
BRANCH   1   5
HETATM    5  C2  UNL     1      19.397 -13.511  20.286  1.00  0.00     0.274 C
HETATM    6  C1  UNL     1      19.986 -12.629  19.209  1.00  0.00     0.050 C
BRANCH   5   7
HETATM    7  N1  UNL     1      18.050 -13.098  20.634  1.00  0.00    -0.053 N
ATOM      8  H12 UNL     1      17.467 -13.895  20.890  1.00  0.00     0.279 HD
ATOM      9  H11 UNL     1      18.028 -12.598  21.523  1.00  0.00     0.279 HD
BRANCH   7  10
HETATM   10  C3  UNL     1      17.450 -12.316  19.565  1.00  0.00     0.326 C
BRANCH  10  11
HETATM   11  C4  UNL     1      16.031 -12.096  19.786  1.00  0.00    -0.077 C
HETATM   12  C5  UNL     1      14.845 -11.921  19.976  1.00  0.00    -0.069 C
BRANCH  12  13
HETATM   13  C6  UNL     1      13.408 -11.736  20.205  1.00  0.00     0.404 C
BRANCH  13  14
HETATM   14  N2  UNL     1      13.169 -11.782  21.630  1.00  0.00     0.015 N
HETATM   15  C7  UNL     1      12.978 -10.467  22.194  1.00  0.00     0.357 C
HETATM   16  C8  UNL     1      11.954 -12.557  21.842  1.00  0.00     0.357 C
HETATM   17  O1  UNL     1      14.242 -12.388  22.213  1.00  0.00    -0.064 OA
ENDBRANCH  13  14
ENDBRANCH  12  13
ENDBRANCH  10  11
ENDBRANCH   7  10
ENDBRANCH   5   7
ENDBRANCH   1   5
BRANCH   3  18
HETATM   18  C10 UNL     1      20.789 -14.178  23.808  1.00  0.00     0.098 A
HETATM   19  C11 UNL     1      20.806 -15.430  24.714  1.00  0.00     0.030 A
HETATM   20  C19 UNL     1      20.126 -14.251  25.190  1.00  0.00    -0.020 A
HETATM   21  C20 UNL     1      20.611 -13.222  26.136  1.00  0.00     0.017 C
HETATM   22  C21 UNL     1      18.588 -14.246  25.046  1.00  0.00     0.017 C
BRANCH  19  23
HETATM   23  C12 UNL     1      22.158 -15.942  24.961  1.00  0.00     0.101 C
BRANCH  23  24
HETATM   24  C13 UNL     1      22.295 -16.704  26.166  1.00  0.00    -0.104 C
HETATM   25  C14 UNL     1      22.435 -17.330  27.212  1.00  0.00    -0.079 C
BRANCH  25  26
HETATM   26  C15 UNL     1      22.627 -18.082  28.454  1.00  0.00     0.329 C
BRANCH  26  27
HETATM   27  N4  UNL     1      23.887 -17.641  29.019  1.00  0.00    -0.069 N
HETATM   28  C16 UNL     1      23.824 -16.273  29.486  1.00  0.00     0.272 C
HETATM   29  C17 UNL     1      24.154 -18.482  30.169  1.00  0.00     0.272 C
HETATM   30  C18 UNL     1      24.980 -17.850  28.078  1.00  0.00     0.272 C
ENDBRANCH  26  27
ENDBRANCH  25  26
ENDBRANCH  23  24
ENDBRANCH  19  23
ENDBRANCH   3  18
TORSDOF 11
ENDMDL