MODEL 4
REMARK VINA RESULT: -5.967086400      2.733      4.587
REMARK  10 active torsions:
REMARK  status: ('A' for Active; 'I' for Inactive)
REMARK    1  A    between atoms: C3_3  and  N1_4
REMARK    2  A    between atoms: N1_4  and  C4_6
REMARK    3  A    between atoms: N2_9  and  C6_10
REMARK    4  A    between atoms: C6_10  and  C7_11
REMARK    5  A    between atoms: C7_11  and  N3_12
REMARK    6  A    between atoms: N3_12  and  C10_15
REMARK    7  A    between atoms: N4_20  and  C16_22
REMARK    8  A    between atoms: C16_22  and  C17_23
REMARK    9  A    between atoms: C18_24  and  C19_25
REMARK   10  A    between atoms: C20_26  and  C21_27
ROOT
HETATM    1  C1  UNL     1      20.524 -11.912  17.793  1.00  0.00     0.113 C
HETATM    2  C2  UNL     1      20.172 -12.415  19.127  1.00  0.00    -0.088 C
HETATM    3  C3  UNL     1      19.870 -12.821  20.234  1.00  0.00     0.007 C
ENDROOT
BRANCH   3   4
HETATM    4  N1  UNL     1      19.492 -13.288  21.511  1.00  0.00    -0.314 N
ATOM      5  H1  UNL     1      19.131 -12.609  22.181  1.00  0.00     0.172 HD
BRANCH   4   6
HETATM    6  C4  UNL     1      19.582 -14.660  21.924  1.00  0.00     0.389 C
HETATM    7  C5  UNL     1      20.627 -14.815  22.971  1.00  0.00     0.271 C
HETATM    8  O1  UNL     1      21.019 -13.730  23.461  1.00  0.00    -0.269 OA
HETATM    9  N2  UNL     1      21.237 -15.986  23.489  1.00  0.00    -0.347 N
HETATM   10  C12 UNL     1      20.885 -17.352  23.162  1.00  0.00     0.127 C
HETATM   11  C13 UNL     1      19.613 -17.402  22.329  1.00  0.00     0.048 C
HETATM   12  C14 UNL     1      18.520 -16.579  22.893  1.00  0.00     0.243 C
HETATM   13  N4  UNL     1      18.335 -15.270  22.301  1.00  0.00    -0.031 N
HETATM   14  C15 UNL     1      17.742 -14.465  23.355  1.00  0.00     0.276 C
BRANCH   9  15
HETATM   15  C6  UNL     1      22.320 -15.871  24.438  1.00  0.00     0.154 C
BRANCH  15  16
HETATM   16  C7  UNL     1      23.075 -17.192  24.516  1.00  0.00     0.256 C
BRANCH  16  17
HETATM   17  N3  UNL     1      24.439 -17.065  24.100  1.00  0.00    -0.073 N
HETATM   18  C8  UNL     1      25.286 -17.502  25.173  1.00  0.00     0.272 C
HETATM   19  C9  UNL     1      24.758 -15.690  23.728  1.00  0.00     0.272 C
BRANCH  17  20
HETATM   20  C10 UNL     1      24.621 -17.869  22.902  1.00  0.00     0.232 C
HETATM   21  C11 UNL     1      25.926 -17.541  22.219  1.00  0.00     0.034 C
ENDBRANCH  17  20
ENDBRANCH  16  17
ENDBRANCH  15  16
ENDBRANCH   9  15
BRANCH  13  22
HETATM   22  C16 UNL     1      17.363 -15.304  21.236  1.00  0.00     0.334 C
BRANCH  22  23
HETATM   23  C17 UNL     1      16.378 -14.243  21.358  1.00  0.00    -0.064 C
HETATM   24  C18 UNL     1      15.548 -13.364  21.440  1.00  0.00    -0.013 C
BRANCH  24  25
HETATM   25  C19 UNL     1      14.562 -12.343  21.518  1.00  0.00    -0.015 C
HETATM   26  C20 UNL     1      13.735 -11.462  21.573  1.00  0.00    -0.093 C
BRANCH  26  27
HETATM   27  C21 UNL     1      12.752 -10.377  21.641  1.00  0.00     0.090 C
HETATM   28  C22 UNL     1      11.975 -10.375  22.926  1.00  0.00     0.018 C
ENDBRANCH  26  27
ENDBRANCH  24  25
ENDBRANCH  22  23
ENDBRANCH  13  22
ENDBRANCH   4   6
ENDBRANCH   3   4
TORSDOF 10
ENDMDL