MODEL 2
REMARK VINA RESULT: -6.816842182      1.629      2.139
REMARK  6 active torsions:
REMARK  status: ('A' for Active; 'I' for Inactive)
REMARK    1  A    between atoms: C2_2  and  C3_3
REMARK    2  A    between atoms: C3_3  and  C4_4
REMARK    3  A    between atoms: C4_4  and  C5_5
REMARK    4  A    between atoms: C13_18  and  N4_19
REMARK       I    between atoms: N4_19  and  C14_21
REMARK    5  A    between atoms: C14_21  and  C15_23
REMARK    6  A    between atoms: C15_23  and  N5_24
ROOT
HETATM    1  C5  UNL     1      18.080 -15.143  22.112  1.00  0.00     0.038 C
HETATM    2  C6  UNL     1      18.581 -16.353  21.429  1.00  0.00     0.278 C
HETATM    3  N1  UNL     1      17.968 -17.557  22.006  1.00  0.00     0.082 N
HETATM    4  C7  UNL     1      18.770 -17.798  23.192  1.00  0.00     0.309 C
HETATM    5  C8  UNL     1      18.426 -18.604  21.091  1.00  0.00     0.309 C
HETATM    6  N2  UNL     1      16.622 -17.500  22.219  1.00  0.00     0.115 N
HETATM    7  C9  UNL     1      16.263 -18.016  23.565  1.00  0.00     0.302 C
HETATM    8  C10 UNL     1      14.907 -18.707  23.328  1.00  0.00     0.264 C
HETATM    9  N3  UNL     1      15.356 -19.492  22.170  1.00  0.00    -0.047 N
ATOM     10  H31 UNL     1      14.667 -20.105  21.735  1.00  0.00     0.279 HD
ATOM     11  H32 UNL     1      16.010 -20.253  22.356  1.00  0.00     0.279 HD
HETATM   12  C11 UNL     1      15.843 -18.401  21.376  1.00  0.00     0.502 C
HETATM   13  C12 UNL     1      15.948 -16.242  22.156  1.00  0.00     0.300 C
HETATM   14  C13 UNL     1      16.665 -15.062  21.570  1.00  0.00     0.118 C
ENDROOT
BRANCH  14  15
HETATM   15  N4  UNL     1      16.030 -13.853  21.962  1.00  0.00    -0.353 N
HETATM   16  C14 UNL     1      15.616 -12.820  21.075  1.00  0.00     0.244 C
HETATM   17  O1  UNL     1      15.846 -13.029  19.858  1.00  0.00    -0.272 OA
ATOM     18  H4  UNL     1      15.857 -13.714  22.958  1.00  0.00     0.163 HD
BRANCH  16  19
HETATM   19  C15 UNL     1      14.965 -11.586  21.495  1.00  0.00     0.339 C
BRANCH  19  20
HETATM   20  N5  UNL     1      13.674 -11.355  20.937  1.00  0.00    -0.063 N
HETATM   21  C16 UNL     1      13.788 -11.133  19.508  1.00  0.00     0.273 C
HETATM   22  C17 UNL     1      13.019 -10.187  21.498  1.00  0.00     0.237 C
HETATM   23  C18 UNL     1      12.076 -10.708  22.562  1.00  0.00     0.029 C
HETATM   24  C19 UNL     1      12.191 -12.213  22.519  1.00  0.00     0.029 C
HETATM   25  C20 UNL     1      12.741 -12.450  21.128  1.00  0.00     0.237 C
ENDBRANCH  19  20
ENDBRANCH  16  19
ENDBRANCH  14  15
BRANCH   1  26
HETATM   26  C4  UNL     1      18.823 -13.895  22.125  1.00  0.00     0.008 C
BRANCH  26  27
HETATM   27  C3  UNL     1      19.803 -13.527  21.106  1.00  0.00     0.000 C
BRANCH  27  28
HETATM   28  C2  UNL     1      19.344 -12.464  20.161  1.00  0.00    -0.005 C
HETATM   29  C1  UNL     1      20.266 -12.375  18.959  1.00  0.00     0.005 C
ENDBRANCH  27  28
ENDBRANCH  26  27
ENDBRANCH   1  26
TORSDOF 6
ENDMDL