MODEL 2
REMARK VINA RESULT: -7.726321277      1.257      2.765
REMARK  8 active torsions:
REMARK  status: ('A' for Active; 'I' for Inactive)
REMARK    1  A    between atoms: C3_3  and  C4_4
REMARK    2  A    between atoms: C4_4  and  N1_5
REMARK    3  A    between atoms: N1_5  and  C7_8
REMARK    4  A    between atoms: C7_8  and  C8_9
REMARK    5  A    between atoms: C11_12  and  N2_13
REMARK       I    between atoms: N2_13  and  C12_15
REMARK    6  A    between atoms: C12_15  and  C13_17
REMARK    7  A    between atoms: C13_17  and  N3_18
REMARK    8  A    between atoms: N3_18  and  N4_20
ROOT
HETATM    1  C1  UNL     1      15.670 -17.500  18.188  1.00  0.00     0.112 C
HETATM    2  C2  UNL     1      16.001 -17.170  19.592  1.00  0.00    -0.109 C
HETATM    3  C3  UNL     1      16.258 -16.884  20.735  1.00  0.00    -0.079 C
ENDROOT
BRANCH   3   4
HETATM    4  C4  UNL     1      16.592 -16.516  22.126  1.00  0.00     0.330 C
BRANCH   4   5
HETATM    5  N1  UNL     1      17.955 -16.259  22.360  1.00  0.00    -0.061 N
HETATM    6  C5  UNL     1      18.125 -16.466  23.828  1.00  0.00     0.273 C
HETATM    7  C6  UNL     1      18.674 -17.385  21.824  1.00  0.00     0.273 C
BRANCH   5   8
HETATM    8  C7  UNL     1      18.525 -14.954  22.008  1.00  0.00     0.277 C
BRANCH   8   9
HETATM    9  C8  UNL     1      17.691 -13.851  21.662  1.00  0.00    -0.021 C
HETATM   10  C9  UNL     1      16.565 -13.470  22.418  1.00  0.00     0.012 C
HETATM   11  C10 UNL     1      15.383 -12.855  21.975  1.00  0.00     0.030 C
HETATM   12  C11 UNL     1      15.009 -12.693  20.643  1.00  0.00     0.035 C
HETATM   13  C14 UNL     1      15.782 -12.693  19.501  1.00  0.00     0.043 C
HETATM   14  C15 UNL     1      17.162 -12.705  19.471  1.00  0.00    -0.000 A
HETATM   15  C16 UNL     1      17.697 -12.133  18.349  1.00  0.00     0.016 A
HETATM   16  C21 UNL     1      18.012 -13.206  20.488  1.00  0.00    -0.009 A
HETATM   17  C17 UNL     1      16.752 -11.624  17.303  1.00  0.00     0.069 C
HETATM   18  N6  UNL     1      19.027 -12.052  18.227  1.00  0.00    -0.368 N
HETATM   19  C18 UNL     1      19.840 -12.519  19.184  1.00  0.00     0.095 A
ATOM     20  H6  UNL     1      19.430 -11.627  17.392  1.00  0.00     0.165 HD
HETATM   21  C19 UNL     1      19.373 -13.122  20.372  1.00  0.00    -0.035 A
HETATM   22  C20 UNL     1      20.185 -13.567  21.461  1.00  0.00     0.050 C
BRANCH  12  23
HETATM   23  N2  UNL     1      13.729 -12.514  20.466  1.00  0.00    -0.326 N
HETATM   24  C12 UNL     1      12.879 -12.107  21.526  1.00  0.00     0.241 C
HETATM   25  O1  UNL     1      12.817 -10.872  21.783  1.00  0.00    -0.271 OA
ATOM     26  H2  UNL     1      13.329 -12.671  19.541  1.00  0.00     0.169 HD
BRANCH  24  27
HETATM   27  C13 UNL     1      12.075 -13.040  22.331  1.00  0.00     0.243 C
BRANCH  27  28
HETATM   28  N3  UNL     1      10.856 -12.411  22.796  1.00  0.00    -0.314 N
ATOM     29  H3  UNL     1      10.068 -12.324  22.154  1.00  0.00     0.182 HD
BRANCH  28  30
HETATM   30  N4  UNL     1      10.725 -11.919  24.096  1.00  0.00    -0.253 N
HETATM   31  N5  UNL     1      10.720 -10.665  24.277  1.00  0.00    -0.331 N
ATOM     32  H52 UNL     1      10.812 -10.039  23.477  1.00  0.00     0.178 HD
ATOM     33  H51 UNL     1      10.625 -10.306  25.227  1.00  0.00     0.178 HD
ATOM     34  H4  UNL     1      10.635 -12.558  24.886  1.00  0.00     0.207 HD
ENDBRANCH  28  30
ENDBRANCH  27  28
ENDBRANCH  24  27
ENDBRANCH  12  23
ENDBRANCH   8   9
ENDBRANCH   5   8
ENDBRANCH   4   5
ENDBRANCH   3   4
TORSDOF 8
ENDMDL