MODEL 1
REMARK VINA RESULT: -5.692025985      0.000      0.000
REMARK  11 active torsions:
REMARK  status: ('A' for Active; 'I' for Inactive)
REMARK    1  A    between atoms: C3_3  and  C4_4
REMARK    2  A    between atoms: C4_4  and  N1_5
REMARK    3  A    between atoms: N1_5  and  C5_6
REMARK    4  A    between atoms: C5_6  and  C6_7
REMARK    5  A    between atoms: C6_7  and  N2_8
REMARK    6  A    between atoms: N2_8  and  C7_9
REMARK    7  A    between atoms: C7_9  and  C8_10
REMARK    8  A    between atoms: C8_10  and  O1_11
REMARK    9  A    between atoms: C15_20  and  C16_21
REMARK   10  A    between atoms: C17_22  and  C18_23
REMARK   11  A    between atoms: C18_23  and  N3_24
ROOT
HETATM    1  C1  UNL     1      20.741 -12.943  26.185  1.00  0.00     0.112 C
HETATM    2  C2  UNL     1      20.507 -13.391  24.813  1.00  0.00    -0.109 C
HETATM    3  C3  UNL     1      20.295 -13.755  23.660  1.00  0.00    -0.077 C
ENDROOT
BRANCH   3   4
HETATM    4  C4  UNL     1      20.063 -14.168  22.279  1.00  0.00     0.358 C
BRANCH   4   5
HETATM    5  N1  UNL     1      18.679 -13.978  21.935  1.00  0.00     0.025 N
HETATM    6  C13 UNL     1      17.756 -14.102  23.014  1.00  0.00     0.273 C
HETATM    7  C14 UNL     1      17.639 -15.613  23.130  1.00  0.00     0.098 C
HETATM    8  C15 UNL     1      17.739 -15.958  21.666  1.00  0.00     0.087 C
HETATM    9  N4  UNL     1      18.327 -15.006  21.062  1.00  0.00    -0.212 N
ATOM     10  H4  UNL     1      18.517 -14.995  20.060  1.00  0.00     0.194 HD
BRANCH   5  11
HETATM   11  C5  UNL     1      18.457 -12.747  21.195  1.00  0.00     0.294 C
BRANCH  11  12
HETATM   12  C6  UNL     1      17.081 -12.254  21.449  1.00  0.00     0.268 C
BRANCH  12  13
HETATM   13  N2  UNL     1      16.246 -12.281  20.241  1.00  0.00    -0.059 N
HETATM   14  C9  UNL     1      15.491 -11.029  20.256  1.00  0.00     0.263 C
HETATM   15  C10 UNL     1      14.541 -11.004  21.438  1.00  0.00     0.195 C
HETATM   16  O2  UNL     1      13.613 -12.044  21.199  1.00  0.00    -0.388 OA
HETATM   17  C11 UNL     1      14.298 -13.225  21.339  1.00  0.00     0.195 C
HETATM   18  C12 UNL     1      15.400 -13.428  20.344  1.00  0.00     0.263 C
BRANCH  13  19
HETATM   19  C7  UNL     1      17.101 -12.254  19.105  1.00  0.00     0.263 C
BRANCH  19  20
HETATM   20  C8  UNL     1      16.383 -12.163  17.782  1.00  0.00     0.192 C
BRANCH  20  21
HETATM   21  O1  UNL     1      16.791 -11.130  16.987  1.00  0.00    -0.399 OA
ATOM     22  H1  UNL     1      16.359 -11.089  16.142  1.00  0.00     0.209 HD
ENDBRANCH  20  21
ENDBRANCH  19  20
ENDBRANCH  13  19
ENDBRANCH  12  13
ENDBRANCH  11  12
ENDBRANCH   5  11
BRANCH   8  23
HETATM   23  C16 UNL     1      17.243 -17.177  21.062  1.00  0.00    -0.050 C
HETATM   24  C17 UNL     1      16.833 -18.208  20.574  1.00  0.00    -0.072 C
BRANCH  24  25
HETATM   25  C18 UNL     1      16.348 -19.465  20.006  1.00  0.00     0.329 C
BRANCH  25  26
HETATM   26  N3  UNL     1      14.994 -19.276  19.561  1.00  0.00    -0.069 N
HETATM   27  C19 UNL     1      14.187 -18.892  20.689  1.00  0.00     0.272 C
HETATM   28  C20 UNL     1      14.964 -18.256  18.531  1.00  0.00     0.272 C
HETATM   29  C21 UNL     1      14.479 -20.498  18.942  1.00  0.00     0.272 C
ENDBRANCH  25  26
ENDBRANCH  24  25
ENDBRANCH   8  23
ENDBRANCH   4   5
ENDBRANCH   3   4
TORSDOF 11
ENDMDL