MODEL 5
REMARK VINA RESULT: -6.569306807      1.006      1.270
REMARK  12 active torsions:
REMARK  status: ('A' for Active; 'I' for Inactive)
REMARK    1  A    between atoms: C2_2  and  C3_3
REMARK    2  A    between atoms: C3_3  and  C4_4
REMARK    3  A    between atoms: C5_5  and  C6_6
REMARK    4  A    between atoms: C7_7  and  N1_8
REMARK    5  A    between atoms: N1_8  and  C10_11
REMARK    6  A    between atoms: C10_11  and  C11_12
REMARK    7  A    between atoms: C12_13  and  C13_14
REMARK    8  A    between atoms: C13_14  and  N2_15
REMARK       I    between atoms: N2_15  and  C14_17
REMARK    9  A    between atoms: C14_17  and  C15_19
REMARK   10  A    between atoms: C16_20  and  C17_21
REMARK   11  A    between atoms: C18_22  and  C19_23
REMARK   12  A    between atoms: C19_23  and  N3_24
ROOT
HETATM    1  N2  UNL     1      16.746 -16.532  20.198  1.00  0.00    -0.347 N
ATOM      2  H2  UNL     1      17.352 -16.591  19.380  1.00  0.00     0.163 HD
HETATM    3  C14 UNL     1      16.859 -15.420  21.078  1.00  0.00     0.242 C
HETATM    4  O1  UNL     1      16.085 -15.397  22.069  1.00  0.00    -0.269 OA
ENDROOT
BRANCH   1   5
HETATM    5  C13 UNL     1      15.782 -17.582  20.446  1.00  0.00     0.217 C
BRANCH   5   6
HETATM    6  C12 UNL     1      16.190 -18.430  21.566  1.00  0.00    -0.085 C
HETATM    7  C11 UNL     1      16.544 -19.120  22.492  1.00  0.00    -0.076 C
BRANCH   7   8
HETATM    8  C10 UNL     1      17.001 -19.969  23.612  1.00  0.00     0.346 C
BRANCH   8   9
HETATM    9  N1  UNL     1      16.683 -19.237  24.827  1.00  0.00     0.001 N
HETATM   10  C8  UNL     1      15.243 -19.114  24.900  1.00  0.00     0.291 C
HETATM   11  C9  UNL     1      17.231 -19.961  25.958  1.00  0.00     0.291 C
BRANCH   9  12
HETATM   12  C7  UNL     1      17.321 -17.994  24.745  1.00  0.00     0.130 C
HETATM   13  C6  UNL     1      17.886 -16.930  24.662  1.00  0.00     0.015 C
BRANCH  13  14
HETATM   14  C5  UNL     1      18.568 -15.693  24.555  1.00  0.00    -0.013 C
HETATM   15  C4  UNL     1      19.168 -14.648  24.466  1.00  0.00    -0.092 C
BRANCH  15  16
HETATM   16  C3  UNL     1      19.911 -13.389  24.375  1.00  0.00     0.094 C
BRANCH  16  17
HETATM   17  C2  UNL     1      21.174 -13.442  25.230  1.00  0.00     0.007 C
HETATM   18  C1  UNL     1      20.764 -12.936  26.612  1.00  0.00     0.006 C
ENDBRANCH  16  17
ENDBRANCH  15  16
ENDBRANCH  13  14
ENDBRANCH   9  12
ENDBRANCH   8   9
ENDBRANCH   7   8
ENDBRANCH   5   6
ENDBRANCH   1   5
BRANCH   3  19
HETATM   19  C15 UNL     1      17.833 -14.371  20.818  1.00  0.00     0.083 C
HETATM   20  C16 UNL     1      17.471 -13.120  20.628  1.00  0.00     0.070 C
BRANCH  20  21
HETATM   21  C17 UNL     1      16.117 -12.662  20.657  1.00  0.00    -0.077 C
HETATM   22  C18 UNL     1      14.955 -12.296  20.674  1.00  0.00    -0.072 C
BRANCH  22  23
HETATM   23  C19 UNL     1      13.568 -11.875  20.691  1.00  0.00     0.368 C
BRANCH  23  24
HETATM   24  N3  UNL     1      13.079 -11.826  22.069  1.00  0.00     0.125 N
HETATM   25  C20 UNL     1      11.957 -12.713  22.176  1.00  0.00     0.399 C
HETATM   26  N4  UNL     1      11.016 -12.074  23.044  1.00  0.00    -0.334 N
HETATM   27  C21 UNL     1      11.507 -10.768  23.328  1.00  0.00     0.247 C
ATOM     28  H4  UNL     1      10.150 -12.481  23.397  1.00  0.00     0.164 HD
HETATM   29  O2  UNL     1      11.113  -9.972  24.192  1.00  0.00    -0.272 OA
HETATM   30  C22 UNL     1      12.625 -10.497  22.373  1.00  0.00     0.377 C
ENDBRANCH  23  24
ENDBRANCH  22  23
ENDBRANCH  20  21
ENDBRANCH   3  19
TORSDOF 12
ENDMDL