MODEL 1
REMARK VINA RESULT: -7.080916910      0.000      0.000
REMARK  6 active torsions:
REMARK  status: ('A' for Active; 'I' for Inactive)
REMARK    1  A    between atoms: C3_3  and  N1_4
REMARK    2  A    between atoms: N1_4  and  C4_5
REMARK    3  A    between atoms: N1_4  and  C6_7
REMARK    4  A    between atoms: N1_4  and  C10_14
REMARK    5  A    between atoms: C6_7  and  C7_8
REMARK    6  A    between atoms: C12_16  and  N2_17
ROOT
HETATM    1  C1  UNL     1      15.497 -11.259  16.938  1.00  0.00     0.013 C
HETATM    2  C2  UNL     1      15.831 -12.038  17.792  1.00  0.00    -0.089 C
HETATM    3  C3  UNL     1      16.227 -12.970  18.850  1.00  0.00     0.330 C
ENDROOT
BRANCH   3   4
HETATM    4  N1  UNL     1      16.075 -12.312  20.180  1.00  0.00    -0.046 N
BRANCH   4   5
HETATM    5  C4  UNL     1      17.053 -11.301  20.345  1.00  0.00     0.235 C
HETATM    6  C5  UNL     1      18.448 -11.671  19.822  1.00  0.00     0.035 C
ENDBRANCH   4   5
BRANCH   4   7
HETATM    7  C6  UNL     1      14.771 -11.645  19.999  1.00  0.00     0.284 C
BRANCH   7   8
HETATM    8  C7  UNL     1      14.081 -11.246  21.226  1.00  0.00     0.240 C
HETATM    9  O1  UNL     1      12.706 -11.609  21.117  1.00  0.00    -0.371 OA
HETATM   10  C8  UNL     1      12.137 -11.142  22.312  1.00  0.00     0.182 C
HETATM   11  C9  UNL     1      12.229  -9.610  22.264  1.00  0.00     0.137 C
HETATM   12  S1  UNL     1      13.775  -9.465  21.343  1.00  0.00     0.048 S
HETATM   13  O2  UNL     1      13.305  -8.929  19.798  1.00  0.00    -0.255 OA
ENDBRANCH   7   8
ENDBRANCH   4   7
BRANCH   4  14
HETATM   14  C10 UNL     1      15.985 -13.371  21.087  1.00  0.00     0.224 C
HETATM   15  C11 UNL     1      16.368 -14.759  20.531  1.00  0.00     0.076 C
HETATM   16  C12 UNL     1      16.495 -15.087  21.997  1.00  0.00     0.224 C
HETATM   17  C18 UNL     1      16.910 -13.669  22.169  1.00  0.00    -0.028 C
HETATM   18  C19 UNL     1      17.772 -13.175  23.036  1.00  0.00     0.018 C
BRANCH  16  19
HETATM   19  N2  UNL     1      17.371 -16.137  22.339  1.00  0.00    -0.047 N
HETATM   20  C13 UNL     1      18.767 -15.852  22.103  1.00  0.00     0.275 C
HETATM   21  C14 UNL     1      17.009 -17.277  21.506  1.00  0.00     0.249 C
HETATM   22  C15 UNL     1      16.080 -18.252  22.125  1.00  0.00     0.131 C
HETATM   23  C16 UNL     1      15.206 -17.741  23.189  1.00  0.00     0.220 C
HETATM   24  O3  UNL     1      14.018 -18.057  23.384  1.00  0.00    -0.274 OA
HETATM   25  N3  UNL     1      15.851 -16.780  24.060  1.00  0.00    -0.337 N
HETATM   26  C17 UNL     1      17.261 -16.593  23.701  1.00  0.00     0.362 C
ATOM     27  H3  UNL     1      15.383 -16.294  24.825  1.00  0.00     0.164 HD
ENDBRANCH  16  19
ENDBRANCH   4  14
ENDBRANCH   3   4
TORSDOF 6
ENDMDL