MODEL 5
REMARK VINA RESULT: -6.240708747      2.185      3.534
REMARK  9 active torsions:
REMARK  status: ('A' for Active; 'I' for Inactive)
REMARK    1  A    between atoms: C3_3  and  N1_4
REMARK    2  A    between atoms: N2_7  and  C6_8
REMARK    3  A    between atoms: C6_8  and  C7_9
REMARK    4  A    between atoms: C7_9  and  C8_10
REMARK    5  A    between atoms: C8_10  and  C9_11
REMARK       I    between atoms: C9_11  and  N3_13
REMARK    6  A    between atoms: C11_15  and  N4_16
REMARK    7  A    between atoms: C12_20  and  C13_21
REMARK    8  A    between atoms: C13_21  and  N5_22
REMARK    9  A    between atoms: C14_26  and  C15_27
ROOT
HETATM    1  C1  UNL     1      21.477 -13.306  26.066  1.00  0.00     0.013 C
HETATM    2  C2  UNL     1      21.366 -14.061  25.124  1.00  0.00    -0.089 C
HETATM    3  C3  UNL     1      21.245 -14.967  23.975  1.00  0.00     0.330 C
ENDROOT
BRANCH   3   4
HETATM    4  N1  UNL     1      20.157 -14.504  23.164  1.00  0.00    -0.052 N
HETATM    5  C4  UNL     1      18.958 -14.478  23.977  1.00  0.00     0.266 C
HETATM    6  C5  UNL     1      17.955 -13.585  23.263  1.00  0.00     0.265 C
HETATM    7  N2  UNL     1      18.230 -13.633  21.851  1.00  0.00    -0.062 N
HETATM    8  C18 UNL     1      18.514 -14.981  21.462  1.00  0.00     0.265 C
HETATM    9  C20 UNL     1      19.437 -12.842  21.616  1.00  0.00     0.265 C
HETATM   10  C19 UNL     1      19.898 -15.338  22.020  1.00  0.00     0.266 C
HETATM   11  C21 UNL     1      20.442 -13.158  22.699  1.00  0.00     0.266 C
BRANCH   7  12
HETATM   12  C6  UNL     1      17.186 -13.010  21.066  1.00  0.00     0.238 C
BRANCH  12  13
HETATM   13  C7  UNL     1      17.577 -11.731  20.437  1.00  0.00     0.037 C
BRANCH  13  14
HETATM   14  C8  UNL     1      16.463 -10.737  20.580  1.00  0.00     0.105 C
BRANCH  14  15
HETATM   15  C9  UNL     1      15.151 -11.267  20.150  1.00  0.00     0.219 C
HETATM   16  O1  UNL     1      15.147 -12.118  19.207  1.00  0.00    -0.273 OA
HETATM   17  N3  UNL     1      13.952 -10.842  20.769  1.00  0.00    -0.350 N
HETATM   18  C10 UNL     1      12.678 -11.366  20.347  1.00  0.00     0.159 C
HETATM   19  C17 UNL     1      13.991  -9.884  21.825  1.00  0.00     0.130 C
HETATM   20  C11 UNL     1      11.981 -11.844  21.598  1.00  0.00     0.207 C
HETATM   21  C12 UNL     1      11.681 -10.632  22.463  1.00  0.00     0.049 C
HETATM   22  C14 UNL     1      12.576  -9.489  22.260  1.00  0.00     0.011 C
BRANCH  20  23
HETATM   23  N4  UNL     1      12.854 -12.784  22.255  1.00  0.00    -0.073 N
ATOM     24  H43 UNL     1      12.369 -13.627  22.564  1.00  0.00     0.274 HD
ATOM     25  H42 UNL     1      13.509 -13.232  21.613  1.00  0.00     0.274 HD
ATOM     26  H41 UNL     1      13.321 -12.293  23.018  1.00  0.00     0.274 HD
ENDBRANCH  20  23
BRANCH  21  27
HETATM   27  C13 UNL     1      11.546 -11.133  23.873  1.00  0.00     0.236 C
BRANCH  27  28
HETATM   28  N5  UNL     1      10.196 -11.701  24.045  1.00  0.00    -0.079 N
ATOM     29  H53 UNL     1       9.863 -12.177  23.206  1.00  0.00     0.274 HD
ATOM     30  H52 UNL     1      10.187 -12.503  24.674  1.00  0.00     0.274 HD
ATOM     31  H51 UNL     1       9.566 -10.959  24.349  1.00  0.00     0.274 HD
ENDBRANCH  27  28
ENDBRANCH  21  27
BRANCH  22  32
HETATM   32  C15 UNL     1      12.762  -8.518  23.385  1.00  0.00     0.002 C
HETATM   33  C16 UNL     1      11.507  -8.096  24.063  1.00  0.00     0.005 C
ENDBRANCH  22  32
ENDBRANCH  14  15
ENDBRANCH  13  14
ENDBRANCH  12  13
ENDBRANCH   7  12
ENDBRANCH   3   4
TORSDOF 9
ENDMDL