MODEL 5
REMARK VINA RESULT: -6.740607379      3.211      5.343
REMARK  6 active torsions:
REMARK  status: ('A' for Active; 'I' for Inactive)
REMARK    1  A    between atoms: C2_2  and  O1_3
REMARK    2  A    between atoms: O1_3  and  C3_4
REMARK    3  A    between atoms: C3_4  and  C4_5
REMARK    4  A    between atoms: C4_5  and  N1_6
REMARK    5  A    between atoms: N2_9  and  C7_10
REMARK    6  A    between atoms: C7_10  and  C8_11
REMARK       I    between atoms: C8_11  and  N3_13
ROOT
HETATM    1  N1  UNL     1      17.710 -12.000  19.938  1.00  0.00    -0.061 N
HETATM    2  C5  UNL     1      16.898 -11.746  18.756  1.00  0.00     0.265 C
HETATM    3  C6  UNL     1      15.481 -12.139  19.112  1.00  0.00     0.266 C
HETATM    4  N2  UNL     1      15.092 -11.759  20.426  1.00  0.00    -0.055 N
HETATM    5  C10 UNL     1      15.916 -10.653  20.950  1.00  0.00     0.266 C
HETATM    6  C11 UNL     1      17.373 -10.947  20.866  1.00  0.00     0.265 C
HETATM    7  C12 UNL     1      15.179 -12.776  21.413  1.00  0.00     0.249 C
HETATM    8  C13 UNL     1      16.448 -13.551  21.454  1.00  0.00     0.009 C
HETATM    9  C14 UNL     1      17.177 -13.433  22.779  1.00  0.00     0.013 C
HETATM   10  C15 UNL     1      17.043 -14.734  23.498  1.00  0.00     0.005 C
HETATM   11  C16 UNL     1      16.821 -15.758  22.408  1.00  0.00    -0.018 C
HETATM   12  C17 UNL     1      16.029 -16.888  23.035  1.00  0.00     0.010 C
HETATM   13  C18 UNL     1      16.037 -15.032  21.353  1.00  0.00     0.017 C
HETATM   14  C19 UNL     1      17.431 -13.323  20.377  1.00  0.00     0.248 C
ENDROOT
BRANCH   4  15
HETATM   15  C7  UNL     1      13.741 -11.219  20.428  1.00  0.00     0.340 C
BRANCH  15  16
HETATM   16  C8  UNL     1      13.629  -9.850  20.907  1.00  0.00     0.249 C
HETATM   17  O2  UNL     1      14.169  -8.846  20.369  1.00  0.00    -0.271 OA
HETATM   18  N3  UNL     1      12.868  -9.573  22.054  1.00  0.00    -0.302 N
HETATM   19  C9  UNL     1      12.163 -10.318  22.766  1.00  0.00     0.203 C
ATOM     20  H3  UNL     1      12.897  -8.599  22.357  1.00  0.00     0.171 HD
HETATM   21  N4  UNL     1      11.971 -11.703  22.546  1.00  0.00    -0.066 NA
HETATM   22  N5  UNL     1      11.474  -9.770  23.912  1.00  0.00    -0.066 NA
ENDBRANCH  15  16
ENDBRANCH   4  15
BRANCH   1  23
HETATM   23  C4  UNL     1      19.121 -11.897  19.703  1.00  0.00     0.263 C
BRANCH  23  24
HETATM   24  C3  UNL     1      20.001 -12.941  20.237  1.00  0.00     0.195 C
BRANCH  24  25
HETATM   25  O1  UNL     1      20.722 -12.609  21.372  1.00  0.00    -0.390 OA
BRANCH  25  26
HETATM   26  C2  UNL     1      20.580 -13.515  22.393  1.00  0.00     0.163 C
HETATM   27  C1  UNL     1      21.058 -13.023  23.726  1.00  0.00     0.033 C
ENDBRANCH  25  26
ENDBRANCH  24  25
ENDBRANCH  23  24
ENDBRANCH   1  23
TORSDOF 6
ENDMDL