MODEL 3
REMARK VINA RESULT: -6.339456222      2.081      3.513
REMARK  9 active torsions:
REMARK  status: ('A' for Active; 'I' for Inactive)
REMARK    1  A    between atoms: C2_2  and  N2_6
REMARK    2  A    between atoms: C3_8  and  C4_9
REMARK    3  A    between atoms: C3_8  and  C5_12
REMARK    4  A    between atoms: C4_9  and  O1_10
REMARK    5  A    between atoms: C5_12  and  C6_13
REMARK    6  A    between atoms: C6_13  and  N3_14
REMARK    7  A    between atoms: N3_14  and  C7_15
REMARK    8  A    between atoms: C7_15  and  C8_16
REMARK    9  A    between atoms: C8_16  and  N4_17
ROOT
HETATM    1  N3  UNL     1      16.597 -15.791  21.584  1.00  0.00    -0.061 N
HETATM    2  C16 UNL     1      15.748 -16.538  22.529  1.00  0.00     0.263 C
HETATM    3  C17 UNL     1      14.386 -16.805  21.977  1.00  0.00     0.195 C
HETATM    4  O2  UNL     1      14.521 -17.663  20.886  1.00  0.00    -0.388 OA
HETATM    5  C18 UNL     1      15.241 -16.993  19.914  1.00  0.00     0.195 C
HETATM    6  C19 UNL     1      16.609 -16.579  20.372  1.00  0.00     0.263 C
ENDROOT
BRANCH   1   7
HETATM    7  C6  UNL     1      15.948 -14.521  21.395  1.00  0.00     0.243 C
BRANCH   7   8
HETATM    8  C5  UNL     1      16.624 -13.615  20.428  1.00  0.00     0.082 C
BRANCH   8   9
HETATM    9  C3  UNL     1      15.746 -12.404  20.245  1.00  0.00     0.013 C
HETATM   10  N2  UNL     1      15.185 -11.834  21.248  1.00  0.00    -0.352 N
ATOM     11  H2  UNL     1      15.326 -12.195  22.192  1.00  0.00     0.166 HD
BRANCH  10  12
HETATM   12  C2  UNL     1      14.370 -10.704  21.028  1.00  0.00     0.070 C
HETATM   13  C1  UNL     1      12.874 -10.787  21.124  1.00  0.00     0.088 C
HETATM   14  N1  UNL     1      14.894  -9.570  20.738  1.00  0.00    -0.389 N
ATOM     15  H12 UNL     1      14.305  -8.753  20.578  1.00  0.00     0.157 HD
ATOM     16  H11 UNL     1      15.910  -9.514  20.673  1.00  0.00     0.157 HD
ENDBRANCH  10  12
BRANCH   9  17
HETATM   17  C4  UNL     1      15.554 -11.901  18.878  1.00  0.00     0.216 C
BRANCH  17  18
HETATM   18  O1  UNL     1      16.621 -11.012  18.621  1.00  0.00    -0.395 OA
ATOM     19  H1  UNL     1      16.257 -10.284  18.134  1.00  0.00     0.209 HD
ENDBRANCH  17  18
ENDBRANCH   9  17
ENDBRANCH   8   9
ENDBRANCH   7   8
ENDBRANCH   1   7
BRANCH   1  20
HETATM   20  C7  UNL     1      17.885 -15.705  22.190  1.00  0.00     0.265 C
BRANCH  20  21
HETATM   21  C8  UNL     1      17.876 -15.058  23.548  1.00  0.00     0.265 C
BRANCH  21  22
HETATM   22  N4  UNL     1      19.096 -14.335  23.826  1.00  0.00    -0.061 N
HETATM   23  C9  UNL     1      20.153 -15.356  23.903  1.00  0.00     0.265 C
HETATM   24  C10 UNL     1      21.431 -14.788  24.450  1.00  0.00     0.265 C
HETATM   25  N5  UNL     1      21.361 -13.333  24.250  1.00  0.00    -0.066 N
HETATM   26  C11 UNL     1      22.643 -12.771  24.554  1.00  0.00     0.272 C
HETATM   27  C12 UNL     1      20.958 -13.129  22.881  1.00  0.00     0.265 C
HETATM   28  C14 UNL     1      20.366 -12.847  25.187  1.00  0.00     0.265 C
HETATM   29  C13 UNL     1      19.477 -13.444  22.761  1.00  0.00     0.265 C
HETATM   30  C15 UNL     1      19.085 -13.674  25.103  1.00  0.00     0.265 C
ENDBRANCH  21  22
ENDBRANCH  20  21
ENDBRANCH   1  20
TORSDOF 9
ENDMDL