MODEL 5
REMARK VINA RESULT: -5.756548328      1.277      2.516
REMARK  9 active torsions:
REMARK  status: ('A' for Active; 'I' for Inactive)
REMARK    1  A    between atoms: C3_3  and  O1_4
REMARK    2  A    between atoms: C5_7  and  O2_8
REMARK    3  A    between atoms: N2_15  and  C10_16
REMARK    4  A    between atoms: C10_16  and  C11_17
REMARK    5  A    between atoms: C11_17  and  C12_18
REMARK    6  A    between atoms: C12_18  and  N3_19
REMARK    7  A    between atoms: N3_19  and  C15_22
REMARK    8  A    between atoms: C15_22  and  C16_23
REMARK    9  A    between atoms: N4_26  and  C19_27
ROOT
HETATM    1  C1  UNL     1      22.628 -16.999  24.568  1.00  0.00     0.015 C
HETATM    2  C2  UNL     1      21.839 -16.087  24.606  1.00  0.00    -0.077 C
HETATM    3  C3  UNL     1      20.860 -14.972  24.645  1.00  0.00     0.148 C
HETATM    4  C4  UNL     1      20.982 -14.196  23.384  1.00  0.00     0.113 C
HETATM    5  C5  UNL     1      20.085 -14.709  22.290  1.00  0.00     0.199 A
HETATM    6  C6  UNL     1      18.798 -15.263  22.716  1.00  0.00     0.461 A
HETATM    7  N1  UNL     1      18.462 -15.305  24.077  1.00  0.00    -0.030 N
HETATM    8  C7  UNL     1      17.537 -16.436  24.285  1.00  0.00     0.275 C
HETATM    9  C8  UNL     1      17.697 -14.124  24.424  1.00  0.00     0.269 C
HETATM   10  C9  UNL     1      17.748 -13.249  23.214  1.00  0.00     0.289 C
HETATM   11  N2  UNL     1      18.145 -14.094  22.087  1.00  0.00     0.035 N
HETATM   12  N4  UNL     1      19.340 -13.681  21.622  1.00  0.00    -0.103 NA
HETATM   13  C21 UNL     1      19.523 -15.468  25.012  1.00  0.00     0.291 C
ENDROOT
BRANCH   3  14
HETATM   14  O1  UNL     1      21.337 -14.131  25.680  1.00  0.00    -0.376 OA
ATOM     15  H1  UNL     1      20.832 -13.333  25.580  1.00  0.00     0.211 HD
ENDBRANCH   3  14
BRANCH   5  16
HETATM   16  O2  UNL     1      20.765 -15.514  21.359  1.00  0.00    -0.370 OA
ATOM     17  H2  UNL     1      20.880 -15.088  20.517  1.00  0.00     0.212 HD
ENDBRANCH   5  16
BRANCH  12  18
HETATM   18  C19 UNL     1      19.663 -13.357  20.311  1.00  0.00     0.120 C
HETATM   19  C20 UNL     1      20.153 -11.941  20.127  1.00  0.00     0.022 C
ENDBRANCH  12  18
BRANCH  11  20
HETATM   20  C10 UNL     1      17.092 -14.577  21.268  1.00  0.00     0.263 C
BRANCH  20  21
HETATM   21  C11 UNL     1      16.021 -13.599  20.903  1.00  0.00     0.057 C
BRANCH  21  22
HETATM   22  C12 UNL     1      15.994 -13.161  19.476  1.00  0.00     0.238 C
BRANCH  22  23
HETATM   23  N3  UNL     1      16.060 -11.753  19.197  1.00  0.00    -0.074 N
HETATM   24  C13 UNL     1      14.643 -11.327  19.075  1.00  0.00     0.272 C
HETATM   25  C14 UNL     1      16.577 -10.956  20.294  1.00  0.00     0.272 C
BRANCH  23  26
HETATM   26  C15 UNL     1      16.763 -11.547  17.980  1.00  0.00     0.240 C
BRANCH  26  27
HETATM   27  C16 UNL     1      15.975 -11.310  16.735  1.00  0.00     0.003 C
HETATM   28  C17 UNL     1      16.918 -10.478  15.837  1.00  0.00     0.011 C
HETATM   29  C18 UNL     1      15.640 -12.540  15.943  1.00  0.00     0.011 C
ENDBRANCH  26  27
ENDBRANCH  23  26
ENDBRANCH  22  23
ENDBRANCH  21  22
ENDBRANCH  20  21
ENDBRANCH  11  20
TORSDOF 9
ENDMDL