MODEL 5
REMARK VINA RESULT: -6.227973138      2.055      3.490
REMARK  8 active torsions:
REMARK  status: ('A' for Active; 'I' for Inactive)
REMARK    1  A    between atoms: C3_3  and  C4_4
REMARK    2  A    between atoms: C4_4  and  N1_5
REMARK    3  A    between atoms: N2_8  and  C7_9
REMARK    4  A    between atoms: C7_9  and  C8_10
REMARK    5  A    between atoms: C8_10  and  C9_11
REMARK    6  A    between atoms: C9_11  and  N3_12
REMARK    7  A    between atoms: N3_12  and  C10_13
REMARK    8  A    between atoms: C10_13  and  C11_14
ROOT
HETATM    1  C1  UNL     1      16.307 -11.648  14.763  1.00  0.00     0.112 C
HETATM    2  C2  UNL     1      15.915 -11.622  16.192  1.00  0.00    -0.109 C
HETATM    3  C3  UNL     1      15.573 -11.613  17.355  1.00  0.00    -0.077 C
ENDROOT
BRANCH   3   4
HETATM    4  C4  UNL     1      15.120 -11.598  18.717  1.00  0.00     0.369 C
BRANCH   4   5
HETATM    5  N1  UNL     1      16.148 -11.391  19.700  1.00  0.00     0.135 N
HETATM    6  C5  UNL     1      17.379 -11.884  19.019  1.00  0.00     0.305 C
HETATM    7  C6  UNL     1      18.553 -11.839  19.927  1.00  0.00     0.270 C
HETATM    8  N2  UNL     1      18.567 -12.877  20.925  1.00  0.00    -0.044 N
HETATM    9  C16 UNL     1      17.636 -13.967  20.556  1.00  0.00     0.245 C
HETATM   10  C20 UNL     1      17.991 -12.319  22.138  1.00  0.00     0.407 C
HETATM   11  C17 UNL     1      16.214 -13.616  20.782  1.00  0.00     0.099 C
HETATM   12  C18 UNL     1      16.000 -12.149  20.924  1.00  0.00     0.261 C
HETATM   13  C19 UNL     1      14.615 -11.959  21.497  1.00  0.00     0.081 C
HETATM   14  O2  UNL     1      16.865 -11.590  21.863  1.00  0.00    -0.324 OA
BRANCH   8  15
HETATM   15  C7  UNL     1      19.821 -13.492  21.117  1.00  0.00     0.241 C
BRANCH  15  16
HETATM   16  C8  UNL     1      20.012 -14.293  22.384  1.00  0.00     0.056 C
BRANCH  16  17
HETATM   17  C9  UNL     1      21.291 -13.808  22.973  1.00  0.00     0.239 C
BRANCH  17  18
HETATM   18  N3  UNL     1      21.520 -14.031  24.359  1.00  0.00    -0.059 N
HETATM   19  C12 UNL     1      22.119 -12.909  25.015  1.00  0.00     0.238 C
HETATM   20  C13 UNL     1      20.921 -11.986  25.305  1.00  0.00     0.029 C
HETATM   21  C14 UNL     1      19.992 -13.036  25.914  1.00  0.00     0.029 C
HETATM   22  C15 UNL     1      20.152 -14.158  24.941  1.00  0.00     0.238 C
BRANCH  18  23
HETATM   23  C10 UNL     1      22.145 -15.292  24.663  1.00  0.00     0.336 C
BRANCH  23  24
HETATM   24  C11 UNL     1      23.248 -15.698  23.781  1.00  0.00     0.257 C
HETATM   25  N4  UNL     1      23.164 -16.834  22.924  1.00  0.00    -0.061 NA
HETATM   26  O1  UNL     1      24.365 -15.073  23.712  1.00  0.00    -0.275 OA
ENDBRANCH  23  24
ENDBRANCH  18  23
ENDBRANCH  17  18
ENDBRANCH  16  17
ENDBRANCH  15  16
ENDBRANCH   8  15
ENDBRANCH   4   5
ENDBRANCH   3   4
TORSDOF 8
ENDMDL