MODEL 2
REMARK VINA RESULT: -5.886141229      1.286      1.667
REMARK  5 active torsions:
REMARK  status: ('A' for Active; 'I' for Inactive)
REMARK    1  A    between atoms: C2_2  and  C3_3
REMARK    2  A    between atoms: C3_3  and  C4_4
REMARK    3  A    between atoms: C4_4  and  C5_5
REMARK    4  A    between atoms: C5_5  and  C6_6
REMARK    5  A    between atoms: C6_6  and  N1_7
REMARK       I    between atoms: N4_18  and  C15_19
REMARK       I    between atoms: C15_19  and  N5_20
REMARK       I    between atoms: C16_22  and  N7_24
ROOT
HETATM    1  N1  UNL     1      18.448 -15.648  22.614  1.00  0.00     0.033 N
HETATM    2  C7  UNL     1      18.201 -16.730  21.636  1.00  0.00     0.293 C
HETATM    3  C8  UNL     1      17.210 -17.730  22.052  1.00  0.00     0.267 C
HETATM    4  N2  UNL     1      16.958 -17.762  23.476  1.00  0.00    -0.065 N
HETATM    5  C9  UNL     1      15.852 -18.672  23.706  1.00  0.00     0.272 C
HETATM    6  C10 UNL     1      16.578 -16.469  23.968  1.00  0.00     0.267 C
HETATM    7  C11 UNL     1      17.130 -15.336  23.139  1.00  0.00     0.293 C
HETATM    8  C12 UNL     1      18.113 -18.336  24.099  1.00  0.00     0.279 C
HETATM    9  C13 UNL     1      19.339 -17.522  24.150  1.00  0.00     0.266 C
HETATM   10  C14 UNL     1      20.466 -18.086  23.396  1.00  0.00     0.089 C
HETATM   11  N3  UNL     1      21.365 -18.547  22.814  1.00  0.00    -0.195 NA
HETATM   12  N4  UNL     1      19.184 -16.142  23.698  1.00  0.00    -0.018 N
HETATM   13  C15 UNL     1      19.911 -15.265  24.542  1.00  0.00     0.717 C
HETATM   14  N5  UNL     1      21.122 -15.671  25.139  1.00  0.00    -0.161 N
ATOM     15  H5  UNL     1      21.021 -16.250  25.972  1.00  0.00     0.187 HD
HETATM   16  C16 UNL     1      22.312 -15.423  24.795  1.00  0.00     0.202 C
HETATM   17  N6  UNL     1      23.410 -15.948  25.562  1.00  0.00    -0.063 NA
HETATM   18  N7  UNL     1      22.649 -14.644  23.675  1.00  0.00    -0.368 N
ATOM     19  H7  UNL     1      22.244 -14.876  22.768  1.00  0.00     0.161 HD
HETATM   20  C17 UNL     1      23.551 -13.524  23.777  1.00  0.00     0.148 C
HETATM   21  N8  UNL     1      19.473 -14.091  24.791  1.00  0.00    -0.124 N
ATOM     22  H8  UNL     1      18.591 -13.807  24.366  1.00  0.00     0.197 HD
HETATM   23  C18 UNL     1      20.135 -13.173  25.612  1.00  0.00     0.196 C
HETATM   24  N9  UNL     1      20.670 -12.406  26.296  1.00  0.00    -0.171 NA
ENDROOT
BRANCH   1  25
HETATM   25  C6  UNL     1      19.039 -14.605  21.870  1.00  0.00     0.266 C
BRANCH  25  26
HETATM   26  C5  UNL     1      18.077 -13.682  21.174  1.00  0.00     0.030 C
BRANCH  26  27
HETATM   27  C4  UNL     1      18.294 -12.237  21.563  1.00  0.00     0.002 C
BRANCH  27  28
HETATM   28  C3  UNL     1      18.696 -11.436  20.344  1.00  0.00    -0.000 C
BRANCH  28  29
HETATM   29  C2  UNL     1      20.117 -11.694  19.942  1.00  0.00    -0.005 C
HETATM   30  C1  UNL     1      20.313 -11.703  18.450  1.00  0.00     0.005 C
ENDBRANCH  28  29
ENDBRANCH  27  28
ENDBRANCH  26  27
ENDBRANCH  25  26
ENDBRANCH   1  25
TORSDOF 5
ENDMDL