MODEL 4
REMARK VINA RESULT: -7.118045983      2.276      4.008
REMARK  6 active torsions:
REMARK  status: ('A' for Active; 'I' for Inactive)
REMARK    1  A    between atoms: C3_3  and  C4_4
REMARK    2  A    between atoms: C4_4  and  C5_5
REMARK    3  A    between atoms: C5_5  and  N1_6
REMARK    4  A    between atoms: N3_10  and  C8_11
REMARK    5  A    between atoms: C8_11  and  C9_12
REMARK    6  A    between atoms: C9_12  and  N4_13
ROOT
HETATM    1  N1  UNL     1      15.161 -11.467  20.489  1.00  0.00    -0.062 N
HETATM    2  C6  UNL     1      16.262 -10.514  20.441  1.00  0.00     0.255 C
HETATM    3  C7  UNL     1      17.607 -11.187  20.241  1.00  0.00     0.170 C
HETATM    4  N2  UNL     1      17.819 -12.277  21.133  1.00  0.00    -0.045 NA
HETATM    5  N3  UNL     1      17.072 -13.427  20.831  1.00  0.00     0.015 N
HETATM    6  C18 UNL     1      15.967 -13.387  21.822  1.00  0.00     0.288 C
HETATM    7  C19 UNL     1      15.194 -12.116  21.759  1.00  0.00     0.267 C
HETATM    8  C20 UNL     1      16.473 -13.366  19.539  1.00  0.00     0.288 C
HETATM    9  C21 UNL     1      15.322 -12.444  19.404  1.00  0.00     0.267 C
ENDROOT
BRANCH   5  10
HETATM   10  C8  UNL     1      17.851 -14.560  21.145  1.00  0.00     0.290 C
BRANCH  10  11
HETATM   11  C9  UNL     1      19.254 -14.399  21.572  1.00  0.00     0.302 C
BRANCH  11  12
HETATM   12  N4  UNL     1      19.489 -14.763  22.947  1.00  0.00     0.091 N
HETATM   13  C10 UNL     1      19.489 -13.635  23.835  1.00  0.00     0.287 C
HETATM   14  C11 UNL     1      20.074 -14.251  25.112  1.00  0.00     0.114 C
HETATM   15  C12 UNL     1      21.127 -13.330  25.588  1.00  0.00     0.224 C
HETATM   16  C16 UNL     1      20.818 -15.485  24.674  1.00  0.00     0.056 C
HETATM   17  O1  UNL     1      20.869 -12.150  25.986  1.00  0.00    -0.273 OA
HETATM   18  N5  UNL     1      22.393 -13.950  25.530  1.00  0.00    -0.352 N
HETATM   19  C13 UNL     1      22.186 -15.344  25.258  1.00  0.00     0.032 C
ATOM     20  H5  UNL     1      23.294 -13.490  25.660  1.00  0.00     0.163 HD
HETATM   21  C14 UNL     1      22.187 -16.069  26.597  1.00  0.00     0.038 C
HETATM   22  C15 UNL     1      23.227 -15.915  24.324  1.00  0.00     0.038 C
HETATM   23  C17 UNL     1      20.817 -15.307  23.150  1.00  0.00     0.280 C
ENDBRANCH  11  12
ENDBRANCH  10  11
ENDBRANCH   5  10
BRANCH   1  24
HETATM   24  C5  UNL     1      13.955 -10.774  20.165  1.00  0.00     0.241 C
BRANCH  24  25
HETATM   25  C4  UNL     1      12.812 -10.724  21.081  1.00  0.00     0.054 C
BRANCH  25  26
HETATM   26  C3  UNL     1      12.655  -9.476  21.804  1.00  0.00    -0.029 C
HETATM   27  C2  UNL     1      12.051  -9.305  22.944  1.00  0.00    -0.035 C
HETATM   28  C1  UNL     1      11.396 -10.386  23.721  1.00  0.00     0.036 C
ENDBRANCH  25  26
ENDBRANCH  24  25
ENDBRANCH   1  24
TORSDOF 6
ENDMDL