MODEL 3
REMARK VINA RESULT: -6.955424376      2.520      3.509
REMARK  8 active torsions:
REMARK  status: ('A' for Active; 'I' for Inactive)
REMARK    1  A    between atoms: C4_6  and  C5_7
REMARK    2  A    between atoms: C5_7  and  C6_8
REMARK    3  A    between atoms: C6_8  and  C7_9
REMARK    4  A    between atoms: C7_9  and  C8_10
REMARK    5  A    between atoms: C8_10  and  C9_11
REMARK    6  A    between atoms: N3_15  and  C11_16
REMARK    7  A    between atoms: C16_21  and  C17_22
REMARK    8  A    between atoms: N5_27  and  O1_28
ROOT
HETATM    1  C1  UNL     1      18.659 -12.609  21.088  1.00  0.00     0.065 C
HETATM    2  C2  UNL     1      17.357 -12.662  21.318  1.00  0.00     0.119 A
HETATM    3  N1  UNL     1      16.466 -11.559  21.199  1.00  0.00    -0.327 N
ATOM      4  H1  UNL     1      16.730 -10.612  20.924  1.00  0.00     0.169 HD
HETATM    5  C3  UNL     1      15.152 -11.986  21.523  1.00  0.00     0.117 A
HETATM    6  C4  UNL     1      14.039 -11.233  21.527  1.00  0.00     0.023 C
HETATM    7  N2  UNL     1      15.266 -13.359  21.838  1.00  0.00    -0.277 N
ATOM      8  H2  UNL     1      14.482 -13.950  22.113  1.00  0.00     0.189 HD
HETATM    9  N3  UNL     1      16.578 -13.807  21.727  1.00  0.00    -0.241 N
ENDROOT
BRANCH   9  10
HETATM   10  C11 UNL     1      17.144 -15.108  21.907  1.00  0.00     0.071 A
HETATM   11  C12 UNL     1      17.742 -15.656  22.937  1.00  0.00     0.043 A
HETATM   12  C13 UNL     1      18.012 -15.137  24.179  1.00  0.00    -0.044 A
HETATM   13  C20 UNL     1      18.145 -16.974  22.663  1.00  0.00     0.146 A
HETATM   14  C14 UNL     1      17.599 -13.736  24.525  1.00  0.00     0.049 C
HETATM   15  C15 UNL     1      18.653 -15.910  25.089  1.00  0.00     0.037 A
HETATM   16  C16 UNL     1      19.061 -17.237  24.818  1.00  0.00     0.036 A
HETATM   17  N4  UNL     1      18.796 -17.737  23.609  1.00  0.00    -0.317 N
HETATM   18  C19 UNL     1      19.124 -18.931  23.278  1.00  0.00     0.130 C
HETATM   19  N5  UNL     1      17.799 -17.255  21.464  1.00  0.00    -0.237 N
HETATM   20  C21 UNL     1      17.130 -16.150  20.824  1.00  0.00     0.218 A
BRANCH  16  21
HETATM   21  C17 UNL     1      19.664 -17.836  25.800  1.00  0.00    -0.001 C
HETATM   22  C18 UNL     1      19.280 -18.618  26.966  1.00  0.00     0.038 C
ENDBRANCH  16  21
BRANCH  19  23
HETATM   23  O1  UNL     1      17.968 -18.420  20.725  1.00  0.00    -0.285 OA
ATOM     24  H1  UNL     1      18.726 -18.751  20.259  1.00  0.00     0.245 HD
ENDBRANCH  19  23
ENDBRANCH   9  10
BRANCH   6  25
HETATM   25  C5  UNL     1      12.725 -11.773  21.878  1.00  0.00     0.031 C
BRANCH  25  26
HETATM   26  C6  UNL     1      11.791 -10.641  22.216  1.00  0.00     0.004 C
BRANCH  26  27
HETATM   27  C7  UNL     1      11.293 -10.783  23.618  1.00  0.00     0.000 C
BRANCH  27  28
HETATM   28  C8  UNL     1      11.251  -9.450  24.347  1.00  0.00    -0.000 C
BRANCH  28  29
HETATM   29  C9  UNL     1      12.134  -8.411  23.697  1.00  0.00    -0.005 C
HETATM   30  C10 UNL     1      11.990  -7.139  24.541  1.00  0.00     0.005 C
ENDBRANCH  28  29
ENDBRANCH  27  28
ENDBRANCH  26  27
ENDBRANCH  25  26
ENDBRANCH   6  25
TORSDOF 8
ENDMDL