MODEL 4
REMARK VINA RESULT: -4.518597113      1.956      2.479
REMARK  2 active torsions:
REMARK  status: ('A' for Active; 'I' for Inactive)
REMARK    1  A    between atoms: S1_2  and  C2_3
REMARK    2  A    between atoms: C3_6  and  N2_7
ROOT
HETATM    1  C2  UNL     1       2.211  11.857  13.860  1.00  0.00     0.105 C
HETATM    2  N1  UNL     1       1.458  10.946  14.217  1.00  0.00    -0.350 N
ATOM      3  H1  UNL     1       0.806  11.102  14.985  1.00  0.00     0.162 HD
HETATM    4  C3  UNL     1       1.489   9.726  13.590  1.00  0.00     0.301 C
HETATM    5  C4  UNL     1       2.611   9.535  12.647  1.00  0.00     0.060 C
HETATM    6  C5  UNL     1       2.365   8.856  11.358  1.00  0.00     0.025 C
HETATM    7  C6  UNL     1       3.244   7.698  11.846  1.00  0.00     0.003 C
HETATM    8  C7  UNL     1       3.682   8.556  13.036  1.00  0.00     0.025 C
HETATM    9  S2  UNL     1       3.218  11.267  12.507  1.00  0.00    -0.091 SA
ENDROOT
BRANCH   4  10
HETATM   10  N2  UNL     1       0.183   9.461  12.996  1.00  0.00    -0.057 N
ATOM     11  H23 UNL     1       0.033   9.988  12.136  1.00  0.00     0.276 HD
ATOM     12  H22 UNL     1       0.119   8.523  12.602  1.00  0.00     0.276 HD
ATOM     13  H21 UNL     1      -0.542   9.640  13.692  1.00  0.00     0.276 HD
ENDBRANCH   4  10
BRANCH   1  14
HETATM   14  S1  UNL     1       2.293  13.480  14.561  1.00  0.00    -0.110 SA
HETATM   15  C1  UNL     1       0.617  14.064  14.867  1.00  0.00     0.097 C
ENDBRANCH   1  14
TORSDOF 2
ENDMDL