MODEL 2
REMARK VINA RESULT: -5.150267694      2.853      5.477
REMARK  2 active torsions:
REMARK  status: ('A' for Active; 'I' for Inactive)
REMARK    1  A    between atoms: C2_2  and  O1_6
REMARK    2  A    between atoms: O1_6  and  N2_7
ROOT
HETATM    1  N2  UNL     1       0.584   9.235  12.351  1.00  0.00    -0.255 N
ATOM      2  H2  UNL     1       0.318  10.083  11.851  1.00  0.00     0.195 HD
HETATM    3  C3  UNL     1       1.787   9.078  12.786  1.00  0.00     0.097 C
HETATM    4  C4  UNL     1       2.851  10.099  12.594  1.00  0.00     0.338 C
HETATM    5  N3  UNL     1       4.137   9.527  12.326  1.00  0.00     0.091 N
HETATM    6  C5  UNL     1       5.024  10.394  11.617  1.00  0.00     0.310 C
HETATM    7  C6  UNL     1       4.103   8.191  11.825  1.00  0.00     0.283 C
HETATM    8  C7  UNL     1       3.976   7.251  13.030  1.00  0.00     0.111 C
HETATM    9  S1  UNL     1       2.296   7.600  13.673  1.00  0.00    -0.111 SA
ENDROOT
BRANCH   1  10
HETATM   10  O1  UNL     1      -0.326   8.244  12.573  1.00  0.00    -0.225 OA
BRANCH  10  11
HETATM   11  C2  UNL     1      -1.612   8.352  12.078  1.00  0.00     0.136 C
HETATM   12  C1  UNL     1      -2.290   7.125  11.609  1.00  0.00     0.099 C
HETATM   13  N1  UNL     1      -2.153   9.520  12.053  1.00  0.00    -0.382 N
ATOM     14  H12 UNL     1      -3.102   9.600  11.688  1.00  0.00     0.158 HD
ATOM     15  H11 UNL     1      -1.685  10.367  12.377  1.00  0.00     0.158 HD
ENDBRANCH  10  11
ENDBRANCH   1  10
TORSDOF 2
ENDMDL