MODEL 2
REMARK VINA RESULT: -6.184032280      2.212      4.719
REMARK  0 active torsions:
REMARK  status: ('A' for Active; 'I' for Inactive)
ROOT
HETATM    1  N1  UNL     1       3.916   6.032  13.767  1.00  0.00    -0.075 NA
HETATM    2  C1  UNL     1       3.609   7.293  13.157  1.00  0.00     0.156 C
HETATM    3  N2  UNL     1       4.327   8.013  12.406  1.00  0.00    -0.362 N
ATOM      4  H2  UNL     1       5.269   7.709  12.161  1.00  0.00     0.162 HD
HETATM    5  C2  UNL     1       3.829   9.238  11.902  1.00  0.00     0.140 C
HETATM    6  C3  UNL     1       4.994  10.203  11.814  1.00  0.00     0.032 C
HETATM    7  C4  UNL     1       4.614  11.524  11.233  1.00  0.00     0.002 C
HETATM    8  C5  UNL     1       4.842  12.594  12.277  1.00  0.00     0.002 C
HETATM    9  C6  UNL     1       3.818  12.600  13.357  1.00  0.00     0.020 C
HETATM   10  C7  UNL     1       2.442  12.191  12.914  1.00  0.00     0.120 C
HETATM   11  N3  UNL     1       2.190  10.806  13.157  1.00  0.00    -0.386 N
ATOM     12  H3  UNL     1       1.405  10.640  13.786  1.00  0.00     0.159 HD
HETATM   13  C8  UNL     1       2.738   9.755  12.754  1.00  0.00     0.072 C
HETATM   14  S1  UNL     1       2.053   8.173  13.350  1.00  0.00    -0.042 SA
ENDROOT
TORSDOF 0
ENDMDL