MODEL 5
REMARK VINA RESULT: -4.805164652      1.747      2.758
REMARK  1 active torsions:
REMARK  status: ('A' for Active; 'I' for Inactive)
REMARK    1  A    between atoms: C6_6  and  N1_7
ROOT
HETATM    1  C1  UNL     1       3.901   7.144  11.103  1.00  0.00     0.018 C
HETATM    2  C2  UNL     1       3.307   8.012  12.187  1.00  0.00    -0.013 C
HETATM    3  C3  UNL     1       4.141   9.180  12.544  1.00  0.00     0.012 C
HETATM    4  C4  UNL     1       3.607  10.524  12.275  1.00  0.00     0.005 C
HETATM    5  C5  UNL     1       2.134  10.688  12.293  1.00  0.00     0.062 C
HETATM    6  C6  UNL     1       1.461   9.412  12.774  1.00  0.00     0.208 C
HETATM    7  C7  UNL     1       1.901   8.387  11.724  1.00  0.00     0.074 C
HETATM    8  N2  UNL     1       1.848   9.054  14.084  1.00  0.00    -0.304 N
ATOM      9  H2  UNL     1       1.514   9.660  14.834  1.00  0.00     0.182 HD
HETATM   10  N3  UNL     1       2.537   8.104  14.425  1.00  0.00    -0.328 N
ATOM     11  H3  UNL     1       2.742   7.961  15.414  1.00  0.00     0.180 HD
HETATM   12  C8  UNL     1       3.058   7.191  13.460  1.00  0.00     0.053 A
HETATM   13  C9  UNL     1       2.497   5.834  13.369  1.00  0.00     0.036 A
HETATM   14  C10 UNL     1       3.906   6.065  13.813  1.00  0.00     0.036 A
ENDROOT
BRANCH   6  15
HETATM   15  N1  UNL     1       0.026   9.552  12.619  1.00  0.00    -0.051 N
ATOM     16  H13 UNL     1      -0.299   9.238  11.705  1.00  0.00     0.277 HD
ATOM     17  H12 UNL     1      -0.494   8.887  13.192  1.00  0.00     0.277 HD
ATOM     18  H11 UNL     1      -0.234  10.519  12.814  1.00  0.00     0.277 HD
ENDBRANCH   6  15
TORSDOF 1
ENDMDL