MODEL 3
REMARK VINA RESULT: -5.882770747      2.154      3.365
REMARK  0 active torsions:
REMARK  status: ('A' for Active; 'I' for Inactive)
ROOT
HETATM    1  S1  UNL     1      -0.475   8.810  12.448  1.00  0.00    -0.064 SA
HETATM    2  C1  UNL     1       0.995   9.309  12.966  1.00  0.00     0.098 C
HETATM    3  C2  UNL     1       1.742   8.358  13.864  1.00  0.00     0.071 C
HETATM    4  C3  UNL     1       1.777   7.003  13.300  1.00  0.00     0.007 C
HETATM    5  C4  UNL     1       2.961   6.597  12.522  1.00  0.00     0.002 C
HETATM    6  C5  UNL     1       4.247   7.270  12.833  1.00  0.00     0.026 C
HETATM    7  C6  UNL     1       4.573   8.316  11.795  1.00  0.00     0.167 C
HETATM    8  O1  UNL     1       4.901   9.547  12.357  1.00  0.00    -0.389 OA
HETATM    9  C7  UNL     1       4.357  10.558  11.571  1.00  0.00     0.196 C
HETATM   10  C8  UNL     1       3.570  11.563  12.356  1.00  0.00     0.227 C
HETATM   11  O2  UNL     1       2.631  11.007  13.202  1.00  0.00    -0.277 OA
HETATM   12  N1  UNL     1       1.536  10.567  12.591  1.00  0.00    -0.260 N
ATOM     13  H1  UNL     1       1.090  11.125  11.863  1.00  0.00     0.195 HD
ENDROOT
TORSDOF 0
ENDMDL