MODEL 3
REMARK VINA RESULT: -4.287865769      1.645      2.386
REMARK  0 active torsions:
REMARK  status: ('A' for Active; 'I' for Inactive)
ROOT
HETATM    1  N1  UNL     1      -1.580   9.880  12.374  1.00  0.00    -0.075 NA
HETATM    2  C1  UNL     1      -0.261   9.468  12.683  1.00  0.00     0.150 C
HETATM    3  N2  UNL     1       0.536   8.690  12.096  1.00  0.00    -0.363 N
ATOM      4  H2  UNL     1       0.252   8.235  11.228  1.00  0.00     0.162 HD
HETATM    5  C2  UNL     1       1.827   8.443  12.630  1.00  0.00     0.042 C
HETATM    6  C3  UNL     1       1.731   7.204  13.458  1.00  0.00     0.042 C
HETATM    7  C4  UNL     1       2.944   6.378  13.568  1.00  0.00     0.076 C
HETATM    8  S1  UNL     1       4.458   7.344  13.360  1.00  0.00    -0.169 SA
HETATM    9  C5  UNL     1       4.195   8.247  11.787  1.00  0.00     0.076 C
HETATM   10  C6  UNL     1       2.747   8.325  11.441  1.00  0.00     0.042 C
HETATM   11  C7  UNL     1       2.294   9.638  13.438  1.00  0.00     0.113 C
HETATM   12  S2  UNL     1       0.629  10.065  14.128  1.00  0.00    -0.095 SA
ENDROOT
TORSDOF 0
ENDMDL