MODEL 2
REMARK VINA RESULT: -5.324788687      1.264      3.165
REMARK  0 active torsions:
REMARK  status: ('A' for Active; 'I' for Inactive)
ROOT
HETATM    1  C1  UNL     1       1.443  12.699  14.347  1.00  0.00     0.090 C
HETATM    2  C2  UNL     1       2.395  11.932  13.481  1.00  0.00     0.095 A
HETATM    3  N1  UNL     1       3.440  12.390  12.884  1.00  0.00    -0.350 N
ATOM      4  H1  UNL     1       3.749  13.361  12.936  1.00  0.00     0.163 HD
HETATM    5  C3  UNL     1       4.112  11.370  12.140  1.00  0.00     0.136 A
HETATM    6  C4  UNL     1       5.552  11.184  12.569  1.00  0.00     0.066 C
HETATM    7  C5  UNL     1       4.055  11.736  10.676  1.00  0.00     0.066 C
HETATM    8  N2  UNL     1       3.327  10.176  12.357  1.00  0.00    -0.199 N
HETATM    9  N3  UNL     1       3.233   8.811  12.048  1.00  0.00    -0.270 N
ATOM     10  H3  UNL     1       3.887   8.298  11.457  1.00  0.00     0.190 HD
HETATM   11  C6  UNL     1       2.197   8.301  12.624  1.00  0.00     0.138 A
HETATM   12  N4  UNL     1       1.755   6.946  12.559  1.00  0.00    -0.083 NA
HETATM   13  C7  UNL     1       1.480   9.341  13.403  1.00  0.00     0.106 A
HETATM   14  C8  UNL     1       0.100   9.479  12.840  1.00  0.00     0.048 C
HETATM   15  C9  UNL     1       1.492   9.050  14.880  1.00  0.00     0.048 C
HETATM   16  N5  UNL     1       2.270  10.549  13.189  1.00  0.00    -0.246 N
ENDROOT
TORSDOF 0
ENDMDL