MODEL 3
REMARK VINA RESULT: -5.665465890      0.219      1.595
REMARK  2 active torsions:
REMARK  status: ('A' for Active; 'I' for Inactive)
REMARK    1  A    between atoms: C2_2  and  C5_5
REMARK       I    between atoms: C5_5  and  N1_7
REMARK    2  A    between atoms: N2_9  and  C6_11
ROOT
HETATM    1  C5  UNL     1       2.170   9.108  12.482  1.00  0.00     0.243 C
HETATM    2  O1  UNL     1       2.775   8.561  11.545  1.00  0.00    -0.271 OA
HETATM    3  N1  UNL     1       2.512  10.394  12.925  1.00  0.00    -0.267 N
ATOM      4  H1  UNL     1       3.401  10.804  12.641  1.00  0.00     0.190 HD
HETATM    5  N2  UNL     1       1.724  11.062  13.681  1.00  0.00    -0.269 N
ATOM      6  H2  UNL     1       0.836  10.646  13.962  1.00  0.00     0.190 HD
ENDROOT
BRANCH   5   7
HETATM    7  C6  UNL     1       2.053  12.367  14.140  1.00  0.00     0.190 C
HETATM    8  N3  UNL     1       3.240  12.872  13.953  1.00  0.00    -0.360 N
HETATM    9  C7  UNL     1       3.312  14.205  14.513  1.00  0.00     0.142 C
ATOM     10  H3  UNL     1       4.008  12.396  13.480  1.00  0.00     0.162 HD
HETATM   11  C8  UNL     1       1.894  14.589  14.862  1.00  0.00     0.142 C
HETATM   12  N4  UNL     1       1.228  13.297  14.832  1.00  0.00    -0.360 N
ATOM     13  H4  UNL     1       0.317  13.091  15.242  1.00  0.00     0.162 HD
ENDBRANCH   5   7
BRANCH   1  14
HETATM   14  C2  UNL     1       1.053   8.383  13.157  1.00  0.00     0.032 C
HETATM   15  C1  UNL     1       1.023   8.752  14.628  1.00  0.00     0.025 C
HETATM   16  C3  UNL     1      -0.281   8.773  12.530  1.00  0.00     0.025 C
HETATM   17  C4  UNL     1       1.300   6.905  13.059  1.00  0.00     0.025 C
ENDBRANCH   1  14
TORSDOF 2
ENDMDL