MODEL 2
REMARK VINA RESULT: -3.891950890      1.756      2.101
REMARK  0 active torsions:
REMARK  status: ('A' for Active; 'I' for Inactive)
ROOT
HETATM    1  C1  UNL     1       3.659  11.600  12.424  1.00  0.00     0.037 C
HETATM    2  C2  UNL     1       2.278  11.168  12.803  1.00  0.00     0.173 C
HETATM    3  O1  UNL     1       2.242  10.030  13.593  1.00  0.00    -0.338 OA
HETATM    4  C3  UNL     1       2.213   8.933  12.789  1.00  0.00     0.328 C
HETATM    5  N1  UNL     1       0.930   8.573  12.272  1.00  0.00    -0.022 N
ATOM      6  H11 UNL     1       0.985   8.183  11.331  1.00  0.00     0.282 HD
ATOM      7  H12 UNL     1       0.356   9.387  12.055  1.00  0.00     0.282 HD
HETATM    8  C4  UNL     1       0.288   7.680  13.201  1.00  0.00     0.248 C
HETATM    9  C5  UNL     1       1.203   6.492  13.394  1.00  0.00     0.107 C
HETATM   10  S1  UNL     1       2.774   7.413  13.656  1.00  0.00    -0.089 SA
HETATM   11  S2  UNL     1       3.358   9.148  11.398  1.00  0.00    -0.090 SA
HETATM   12  C6  UNL     1       4.515  10.481  11.897  1.00  0.00     0.082 C
ENDROOT
TORSDOF 0
ENDMDL