MODEL 3
REMARK VINA RESULT: -6.265200379      0.541      1.339
REMARK  1 active torsions:
REMARK  status: ('A' for Active; 'I' for Inactive)
REMARK    1  A    between atoms: C4_6  and  N2_7
ROOT
HETATM    1  C1  UNL     1       4.910  12.976  12.503  1.00  0.00     0.002 C
HETATM    2  C2  UNL     1       6.093  12.072  12.272  1.00  0.00     0.020 C
HETATM    3  C3  UNL     1       5.890  11.090  11.165  1.00  0.00     0.121 C
HETATM    4  N1  UNL     1       4.980  10.047  11.610  1.00  0.00    -0.380 N
ATOM      5  H1  UNL     1       5.365   9.102  11.589  1.00  0.00     0.160 HD
HETATM    6  C4  UNL     1       3.761  10.131  12.028  1.00  0.00     0.075 C
HETATM    7  C9  UNL     1       3.006  11.400  12.141  1.00  0.00     0.076 C
HETATM    8  C10 UNL     1       3.738  12.281  13.121  1.00  0.00     0.007 C
ENDROOT
BRANCH   6   9
HETATM    9  N2  UNL     1       3.127   8.913  12.397  1.00  0.00    -0.367 N
HETATM   10  C5  UNL     1       3.746   7.699  11.883  1.00  0.00     0.150 C
HETATM   11  C6  UNL     1       3.249   6.457  12.521  1.00  0.00     0.187 C
HETATM   12  O1  UNL     1       2.449   6.631  13.618  1.00  0.00    -0.388 OA
HETATM   13  C7  UNL     1       1.382   7.468  13.222  1.00  0.00     0.187 C
HETATM   14  C8  UNL     1       1.941   8.876  13.230  1.00  0.00     0.150 C
ENDBRANCH   6   9
TORSDOF 1
ENDMDL