MODEL 1
REMARK VINA RESULT: -6.065401548      0.000      0.000
REMARK  6 active torsions:
REMARK  status: ('A' for Active; 'I' for Inactive)
REMARK    1  A    between atoms: N1_2  and  S1_4
REMARK    2  A    between atoms: S1_4  and  N2_7
REMARK    3  A    between atoms: N3_10  and  C5_12
REMARK    4  A    between atoms: C5_12  and  C6_13
REMARK    5  A    between atoms: C6_13  and  C8_15
REMARK    6  A    between atoms: C6_13  and  C9_17
ROOT
HETATM    1  N2  UNL     1      15.946 -12.240  20.282  1.00  0.00    -0.190 NA
HETATM    2  C2  UNL     1      17.099 -11.397  20.079  1.00  0.00     0.137 C
HETATM    3  C3  UNL     1      17.946 -11.274  21.339  1.00  0.00     0.252 C
HETATM    4  N3  UNL     1      18.653 -12.536  21.639  1.00  0.00    -0.068 N
HETATM    5  C4  UNL     1      19.831 -12.516  20.842  1.00  0.00     0.272 C
HETATM    6  C10 UNL     1      17.782 -13.547  20.992  1.00  0.00     0.252 C
HETATM    7  C11 UNL     1      16.312 -13.223  21.285  1.00  0.00     0.137 C
ENDROOT
BRANCH   4   8
HETATM    8  C5  UNL     1      18.716 -12.850  22.987  1.00  0.00     0.247 C
BRANCH   8   9
HETATM    9  C6  UNL     1      19.810 -13.568  23.635  1.00  0.00    -0.002 C
HETATM   10  C7  UNL     1      19.212 -13.998  25.008  1.00  0.00     0.018 C
BRANCH   9  11
HETATM   11  C8  UNL     1      20.224 -14.885  23.059  1.00  0.00     0.096 C
HETATM   12 BR1  UNL     1      21.559 -15.726  24.223  1.00  0.00    -0.096 Br
ENDBRANCH   9  11
BRANCH   9  13
HETATM   13  C9  UNL     1      21.010 -12.754  24.019  1.00  0.00     0.096 C
HETATM   14 BR2  UNL     1      20.851 -12.037  25.831  1.00  0.00    -0.096 Br
ENDBRANCH   9  13
ENDBRANCH   8   9
ENDBRANCH   4   8
BRANCH   1  15
HETATM   15  S1  UNL     1      14.540 -11.358  20.702  1.00  0.00     0.298 S
HETATM   16  O1  UNL     1      14.172 -11.682  22.133  1.00  0.00    -0.188 OA
HETATM   17  O2  UNL     1      13.439 -11.719  19.781  1.00  0.00    -0.188 OA
BRANCH  15  18
HETATM   18  N1  UNL     1      14.925  -9.673  20.603  1.00  0.00    -0.311 N
HETATM   19  C1  UNL     1      13.883  -8.879  21.215  1.00  0.00     0.160 C
ATOM     20  H1  UNL     1      15.769  -9.294  20.172  1.00  0.00     0.172 HD
ENDBRANCH  15  18
ENDBRANCH   1  15
TORSDOF 6
ENDMDL