MODEL 4
REMARK VINA RESULT: -7.104203179      3.593      5.412
REMARK  10 active torsions:
REMARK  status: ('A' for Active; 'I' for Inactive)
REMARK    1  A    between atoms: C4_4  and  C5_5
REMARK    2  A    between atoms: C5_5  and  C6_6
REMARK    3  A    between atoms: C6_6  and  N1_7
REMARK    4  A    between atoms: C7_8  and  C8_9
REMARK    5  A    between atoms: C8_9  and  C9_10
REMARK    6  A    between atoms: C10_11  and  N2_12
REMARK    7  A    between atoms: N2_12  and  N3_14
REMARK    8  A    between atoms: C13_21  and  C14_22
REMARK    9  A    between atoms: C14_22  and  C15_23
REMARK   10  A    between atoms: C15_23  and  O1_24
ROOT
HETATM    1  C9  UNL     1      13.345 -11.357  21.011  1.00  0.00     0.022 A
HETATM    2  C10 UNL     1      12.773 -10.166  21.516  1.00  0.00     0.075 A
HETATM    3  C11 UNL     1      12.914  -9.179  20.583  1.00  0.00     0.120 A
HETATM    4  N4  UNL     1      13.538  -9.677  19.523  1.00  0.00    -0.363 N
ATOM      5  H4  UNL     1      13.779  -9.167  18.672  1.00  0.00     0.165 HD
HETATM    6  C12 UNL     1      13.802 -11.004  19.774  1.00  0.00     0.041 A
HETATM    7  C13 UNL     1      14.371 -11.802  18.871  1.00  0.00     0.006 C
ENDROOT
BRANCH   1   8
HETATM    8  C8  UNL     1      13.390 -12.471  21.681  1.00  0.00     0.047 C
BRANCH   8   9
HETATM    9  C7  UNL     1      13.465 -13.848  21.297  1.00  0.00     0.053 A
HETATM   10  N1  UNL     1      14.606 -14.614  21.226  1.00  0.00    -0.326 N
HETATM   11  C18 UNL     1      14.212 -15.797  20.746  1.00  0.00     0.158 A
HETATM   12  N5  UNL     1      12.868 -15.824  20.509  1.00  0.00    -0.339 N
HETATM   13 BR1  UNL     1      15.279 -17.307  20.322  1.00  0.00    -0.010 Br
HETATM   14  C16 UNL     1      12.420 -14.618  20.852  1.00  0.00     0.122 A
HETATM   15  C17 UNL     1      12.079 -16.936  19.989  1.00  0.00     0.158 C
BRANCH  10  16
HETATM   16  C6  UNL     1      15.906 -14.096  21.578  1.00  0.00     0.136 C
BRANCH  16  17
HETATM   17  C5  UNL     1      16.893 -13.882  20.525  1.00  0.00     0.060 C
BRANCH  17  18
HETATM   18  C4  UNL     1      17.572 -12.579  20.568  1.00  0.00    -0.046 A
HETATM   19  C2  UNL     1      18.743 -11.707  20.315  1.00  0.00    -0.039 A
HETATM   20  C1  UNL     1      19.980 -11.661  19.846  1.00  0.00     0.024 C
HETATM   21  C3  UNL     1      17.546 -11.241  20.886  1.00  0.00     0.019 A
ENDBRANCH  17  18
ENDBRANCH  16  17
ENDBRANCH  10  16
ENDBRANCH   8   9
ENDBRANCH   1   8
BRANCH   2  22
HETATM   22  N2  UNL     1      12.161 -10.067  22.799  1.00  0.00    -0.305 N
ATOM     23  H2  UNL     1      11.720 -10.889  23.211  1.00  0.00     0.186 HD
BRANCH  22  24
HETATM   24  N3  UNL     1      12.158  -8.961  23.439  1.00  0.00    -0.345 N
ATOM     25  H32 UNL     1      11.275  -8.618  23.817  1.00  0.00     0.176 HD
ATOM     26  H31 UNL     1      13.020  -8.430  23.570  1.00  0.00     0.176 HD
ENDBRANCH  22  24
ENDBRANCH   2  22
BRANCH   7  27
HETATM   27  C14 UNL     1      14.805 -11.211  17.584  1.00  0.00     0.055 C
BRANCH  27  28
HETATM   28  C15 UNL     1      16.293 -11.228  17.370  1.00  0.00     0.168 C
BRANCH  28  29
HETATM   29  O1  UNL     1      16.777 -10.122  16.711  1.00  0.00    -0.401 OA
ATOM     30  H1  UNL     1      16.601  -9.299  17.154  1.00  0.00     0.209 HD
ENDBRANCH  28  29
ENDBRANCH  27  28
ENDBRANCH   7  27
TORSDOF 10
ENDMDL