MODEL 2
REMARK VINA RESULT: -6.789721314      1.319      1.772
REMARK  7 active torsions:
REMARK  status: ('A' for Active; 'I' for Inactive)
REMARK    1  A    between atoms: C3_5  and  C4_6
REMARK    2  A    between atoms: N2_8  and  C5_9
REMARK    3  A    between atoms: C5_9  and  C6_10
REMARK    4  A    between atoms: C6_10  and  N3_11
REMARK    5  A    between atoms: C13_18  and  C14_19
REMARK    6  A    between atoms: C14_19  and  C15_20
REMARK    7  A    between atoms: C15_20  and  N4_21
ROOT
HETATM    1  C1  UNL     1      14.760 -10.313  20.840  1.00  0.00     0.155 C
HETATM    2  N1  UNL     1      15.742 -11.323  20.500  1.00  0.00    -0.333 N
HETATM    3  C2  UNL     1      16.678 -11.285  19.456  1.00  0.00     0.244 C
HETATM    4  O1  UNL     1      16.557 -10.726  18.309  1.00  0.00    -0.271 OA
HETATM    5  C3  UNL     1      17.872 -12.047  19.970  1.00  0.00     0.187 C
HETATM    6  N2  UNL     1      17.345 -12.809  21.030  1.00  0.00    -0.356 N
HETATM    7  C13 UNL     1      15.954 -12.628  21.161  1.00  0.00     0.190 C
ENDROOT
BRANCH   6   8
HETATM    8  C5  UNL     1      17.920 -14.050  21.357  1.00  0.00     0.089 C
BRANCH   8   9
HETATM    9  C6  UNL     1      17.900 -14.343  22.845  1.00  0.00     0.281 C
BRANCH   9  10
HETATM   10  N3  UNL     1      19.214 -14.265  23.437  1.00  0.00    -0.067 N
HETATM   11  C7  UNL     1      20.236 -14.653  22.483  1.00  0.00     0.272 C
HETATM   12  C8  UNL     1      19.379 -15.086  24.609  1.00  0.00     0.237 C
HETATM   13  C9  UNL     1      20.822 -14.945  25.065  1.00  0.00     0.028 C
HETATM   14  C10 UNL     1      21.197 -13.531  25.400  1.00  0.00     0.003 C
HETATM   15  C11 UNL     1      20.000 -12.645  25.116  1.00  0.00     0.028 C
HETATM   16  C12 UNL     1      19.457 -12.856  23.733  1.00  0.00     0.237 C
ENDBRANCH   9  10
ENDBRANCH   8   9
ENDBRANCH   6   8
BRANCH   5  17
HETATM   17  C4  UNL     1      18.793 -10.963  20.499  1.00  0.00     0.120 C
HETATM   18 BR1  UNL     1      20.639 -11.358  20.110  1.00  0.00    -0.094 Br
ENDBRANCH   5  17
BRANCH   7  19
HETATM   19  C14 UNL     1      15.033 -13.545  20.446  1.00  0.00     0.066 C
BRANCH  19  20
HETATM   20  C15 UNL     1      14.051 -14.330  21.222  1.00  0.00     0.125 C
BRANCH  20  21
HETATM   21  N4  UNL     1      13.256 -13.324  21.975  1.00  0.00    -0.367 N
HETATM   22  C16 UNL     1      12.190 -12.812  21.511  1.00  0.00     0.196 C
HETATM   23  N5  UNL     1      11.513 -11.860  22.323  1.00  0.00    -0.067 NA
HETATM   24  N6  UNL     1      11.708 -13.179  20.237  1.00  0.00    -0.067 NA
ATOM     25  H4  UNL     1      13.579 -13.035  22.898  1.00  0.00     0.161 HD
ENDBRANCH  20  21
ENDBRANCH  19  20
ENDBRANCH   7  19
TORSDOF 7
ENDMDL