MODEL 5
REMARK VINA RESULT: -7.335462180      2.243      3.505
REMARK  10 active torsions:
REMARK  status: ('A' for Active; 'I' for Inactive)
REMARK    1  A    between atoms: N1_2  and  C2_5
REMARK    2  A    between atoms: C2_5  and  C3_7
REMARK    3  A    between atoms: N2_9  and  C5_10
REMARK    4  A    between atoms: C5_10  and  C6_11
REMARK    5  A    between atoms: C6_11  and  C7_12
REMARK    6  A    between atoms: C7_12  and  C8_13
REMARK    7  A    between atoms: C8_13  and  N3_14
REMARK    8  A    between atoms: N4_21  and  C15_22
REMARK    9  A    between atoms: C15_22  and  O1_23
REMARK   10  A    between atoms: C15_22  and  N5_25
ROOT
HETATM    1  C3  UNL     1      15.911 -11.814  19.281  1.00  0.00     0.065 C
HETATM    2  C4  UNL     1      16.875 -10.882  19.980  1.00  0.00     0.288 C
HETATM    3  N2  UNL     1      17.476 -11.608  21.078  1.00  0.00     0.089 N
HETATM    4  C12 UNL     1      17.009 -12.979  21.023  1.00  0.00     0.279 C
HETATM    5  C13 UNL     1      16.415 -13.170  19.648  1.00  0.00     0.048 C
HETATM    6  C14 UNL     1      15.153 -14.018  19.660  1.00  0.00     0.134 C
HETATM    7  N4  UNL     1      14.069 -13.121  19.894  1.00  0.00    -0.346 N
HETATM    8  C21 UNL     1      14.525 -11.714  19.802  1.00  0.00     0.143 C
ENDROOT
BRANCH   7   9
HETATM    9  C15 UNL     1      12.725 -13.467  20.184  1.00  0.00     0.217 C
BRANCH   9  10
HETATM   10  O1  UNL     1      11.965 -12.501  20.623  1.00  0.00    -0.333 OA
ATOM     11  H1  UNL     1      12.369 -11.896  21.234  1.00  0.00     0.220 HD
ENDBRANCH   9  10
BRANCH   9  12
HETATM   12  N5  UNL     1      12.119 -14.690  20.065  1.00  0.00    -0.348 N
HETATM   13  C16 UNL     1      12.126 -15.570  21.281  1.00  0.00     0.126 C
HETATM   14  C17 UNL     1      12.930 -16.803  20.854  1.00  0.00     0.020 C
HETATM   15  C18 UNL     1      12.337 -17.451  19.643  1.00  0.00     0.003 C
HETATM   16  C19 UNL     1      12.381 -16.443  18.488  1.00  0.00     0.020 C
HETATM   17  C20 UNL     1      11.460 -15.299  18.957  1.00  0.00     0.126 C
ENDBRANCH   9  12
ENDBRANCH   7   9
BRANCH   1  18
HETATM   18  C2  UNL     1      15.889 -11.631  17.804  1.00  0.00     0.379 C
HETATM   19  F1  UNL     1      17.110 -11.122  17.365  1.00  0.00    -0.218 F
BRANCH  18  20
HETATM   20  N1  UNL     1      14.869 -10.774  17.290  1.00  0.00    -0.047 N
HETATM   21  C1  UNL     1      15.101 -10.625  15.843  1.00  0.00     0.270 C
ATOM     22  H12 UNL     1      14.817  -9.880  17.778  1.00  0.00     0.280 HD
ATOM     23  H11 UNL     1      13.927 -11.101  17.509  1.00  0.00     0.280 HD
ENDBRANCH  18  20
ENDBRANCH   1  18
BRANCH   3  24
HETATM   24  C5  UNL     1      18.892 -11.501  20.973  1.00  0.00     0.272 C
BRANCH  24  25
HETATM   25  C6  UNL     1      19.698 -12.721  21.163  1.00  0.00     0.032 C
BRANCH  25  26
HETATM   26  C7  UNL     1      20.611 -12.812  22.316  1.00  0.00     0.029 C
BRANCH  26  27
HETATM   27  C8  UNL     1      19.964 -12.993  23.639  1.00  0.00     0.236 C
BRANCH  27  28
HETATM   28  N3  UNL     1      20.977 -13.092  24.695  1.00  0.00    -0.079 N
HETATM   29  C9  UNL     1      22.311 -13.013  24.171  1.00  0.00     0.271 C
HETATM   30  C10 UNL     1      20.799 -12.018  25.651  1.00  0.00     0.271 C
HETATM   31  C11 UNL     1      20.816 -14.338  25.396  1.00  0.00     0.271 C
ENDBRANCH  27  28
ENDBRANCH  26  27
ENDBRANCH  25  26
ENDBRANCH  24  25
ENDBRANCH   3  24
TORSDOF 10
ENDMDL