MODEL 1
REMARK VINA RESULT: -6.963791095      0.000      0.000
REMARK  9 active torsions:
REMARK  status: ('A' for Active; 'I' for Inactive)
REMARK    1  A    between atoms: C2_2  and  C5_5
REMARK    2  A    between atoms: C5_5  and  C7_7
REMARK    3  A    between atoms: C5_5  and  N3_25
REMARK    4  A    between atoms: C7_7  and  C8_8
REMARK       I    between atoms: C8_8  and  N1_10
REMARK    5  A    between atoms: C12_17  and  C13_18
REMARK    6  A    between atoms: C13_18  and  C14_19
REMARK    7  A    between atoms: C14_19  and  C15_20
REMARK    8  A    between atoms: C15_20  and  C16_21
REMARK    9  A    between atoms: C17_22  and  C18_23
ROOT
HETATM    1  C8  UNL     1      15.821 -14.275  20.008  1.00  0.00     0.223 C
HETATM    2  O1  UNL     1      16.559 -14.425  21.039  1.00  0.00    -0.273 OA
HETATM    3  N1  UNL     1      15.631 -12.995  19.490  1.00  0.00    -0.337 N
HETATM    4  C9  UNL     1      14.846 -12.620  18.351  1.00  0.00     0.229 C
HETATM    5  C10 UNL     1      15.495 -11.596  17.496  1.00  0.00     0.235 C
HETATM    6  O2  UNL     1      15.029 -11.345  16.367  1.00  0.00    -0.272 OA
HETATM    7  N2  UNL     1      16.656 -10.911  17.997  1.00  0.00    -0.358 N
ATOM      8  H2  UNL     1      17.002 -10.074  17.529  1.00  0.00     0.162 HD
HETATM    9  C11 UNL     1      17.333 -11.424  19.178  1.00  0.00     0.147 C
HETATM   10  C12 UNL     1      16.304 -11.821  20.165  1.00  0.00     0.105 C
ENDROOT
BRANCH   1  11
HETATM   11  C7  UNL     1      15.235 -15.514  19.466  1.00  0.00     0.135 C
BRANCH  11  12
HETATM   12  C5  UNL     1      14.122 -16.051  20.342  1.00  0.00     0.056 C
HETATM   13  C6  UNL     1      14.309 -17.524  20.654  1.00  0.00     0.041 C
BRANCH  12  14
HETATM   14  C2  UNL     1      12.808 -15.821  19.644  1.00  0.00    -0.025 C
HETATM   15  C1  UNL     1      12.961 -15.903  18.144  1.00  0.00     0.017 C
HETATM   16  C3  UNL     1      11.790 -16.842  20.095  1.00  0.00     0.017 C
HETATM   17  C4  UNL     1      12.216 -14.462  20.041  1.00  0.00     0.017 C
ENDBRANCH  12  14
BRANCH  12  18
HETATM   18  N3  UNL     1      14.111 -15.341  21.587  1.00  0.00    -0.332 N
HETATM   19  N4  UNL     1      14.344 -15.924  22.665  1.00  0.00    -0.349 N
ATOM     20  H42 UNL     1      14.543 -16.924  22.643  1.00  0.00     0.176 HD
ATOM     21  H41 UNL     1      14.335 -15.420  23.551  1.00  0.00     0.176 HD
ATOM     22  H3  UNL     1      13.909 -14.342  21.591  1.00  0.00     0.180 HD
ENDBRANCH  12  18
ENDBRANCH  11  12
ENDBRANCH   1  11
BRANCH  10  23
HETATM   23  C13 UNL     1      15.270 -10.881  20.597  1.00  0.00     0.028 C
BRANCH  23  24
HETATM   24  C14 UNL     1      14.214 -11.351  21.481  1.00  0.00     0.014 C
BRANCH  24  25
HETATM   25  C15 UNL     1      12.808 -10.966  21.154  1.00  0.00     0.094 C
BRANCH  25  26
HETATM   26  C16 UNL     1      12.220 -10.206  22.314  1.00  0.00    -0.106 C
HETATM   27  C17 UNL     1      11.759  -9.625  23.241  1.00  0.00    -0.096 C
BRANCH  27  28
HETATM   28  C18 UNL     1      11.196  -8.924  24.404  1.00  0.00     0.178 C
HETATM   29 BR1  UNL     1      11.993  -7.156  24.580  1.00  0.00    -0.083 Br
ENDBRANCH  27  28
ENDBRANCH  25  26
ENDBRANCH  24  25
ENDBRANCH  23  24
ENDBRANCH  10  23
TORSDOF 9
ENDMDL