MODEL 5
REMARK VINA RESULT: -6.013793594      4.071      5.900
REMARK  6 active torsions:
REMARK  status: ('A' for Active; 'I' for Inactive)
REMARK    1  A    between atoms: N1_2  and  C2_5
REMARK    2  A    between atoms: C2_5  and  C3_6
REMARK    3  A    between atoms: C3_6  and  S1_7
REMARK    4  A    between atoms: S1_7  and  C4_8
REMARK    5  A    between atoms: C4_8  and  C5_9
REMARK    6  A    between atoms: C5_9  and  N2_10
ROOT
HETATM    1  N2  UNL     1      14.407 -14.423  19.631  1.00  0.00    -0.041 N
HETATM    2  C6  UNL     1      14.875 -15.508  18.826  1.00  0.00     0.286 A
HETATM    3  C7  UNL     1      14.275 -14.333  18.102  1.00  0.00     0.295 A
HETATM    4  C8  UNL     1      15.087 -13.323  17.664  1.00  0.00    -0.069 C
HETATM    5  C9  UNL     1      15.727 -12.488  17.558  1.00  0.00    -0.085 C
HETATM    6  C10 UNL     1      16.565 -11.295  17.823  1.00  0.00     0.220 C
HETATM    7  N3  UNL     1      16.136 -11.149  19.308  1.00  0.00    -0.336 N
HETATM    8  C11 UNL     1      14.763 -10.965  19.524  1.00  0.00     0.227 C
HETATM    9  O1  UNL     1      13.685 -10.363  19.333  1.00  0.00    -0.273 OA
HETATM   10  C12 UNL     1      14.666 -12.146  20.497  1.00  0.00     0.112 C
HETATM   11  C13 UNL     1      15.530 -11.306  21.496  1.00  0.00     0.041 C
HETATM   12  C14 UNL     1      16.800 -11.293  20.581  1.00  0.00     0.090 C
HETATM   13  C15 UNL     1      17.348 -12.632  20.993  1.00  0.00     0.043 C
HETATM   14  C16 UNL     1      16.242 -13.690  21.263  1.00  0.00     0.092 C
HETATM   15 BR1  UNL     1      17.114 -15.386  21.134  1.00  0.00    -0.089 Br
HETATM   16  C17 UNL     1      15.291 -13.393  20.090  1.00  0.00     0.219 C
ENDROOT
BRANCH   1  17
HETATM   17  C5  UNL     1      13.110 -14.437  20.229  1.00  0.00     0.249 C
BRANCH  17  18
HETATM   18  C4  UNL     1      12.923 -15.510  21.302  1.00  0.00     0.102 C
BRANCH  18  19
HETATM   19  S1  UNL     1      11.572 -16.547  20.709  1.00  0.00    -0.166 SA
BRANCH  19  20
HETATM   20  C3  UNL     1      11.477 -16.707  18.955  1.00  0.00     0.101 C
BRANCH  20  21
HETATM   21  C2  UNL     1      10.343 -16.094  18.236  1.00  0.00     0.242 C
BRANCH  21  22
HETATM   22  N1  UNL     1       9.886 -16.709  17.034  1.00  0.00    -0.078 N
HETATM   23  C1  UNL     1      10.680 -17.958  16.849  1.00  0.00     0.267 C
ATOM     24  H12 UNL     1       9.926 -16.087  16.226  1.00  0.00     0.276 HD
ATOM     25  H11 UNL     1       8.879 -16.871  17.025  1.00  0.00     0.276 HD
ENDBRANCH  21  22
ENDBRANCH  20  21
ENDBRANCH  19  20
ENDBRANCH  18  19
ENDBRANCH  17  18
ENDBRANCH   1  17
TORSDOF 6
ENDMDL