MODEL 1
REMARK VINA RESULT: -6.558067564      0.000      0.000
REMARK  7 active torsions:
REMARK  status: ('A' for Active; 'I' for Inactive)
REMARK    1  A    between atoms: N2_6  and  C5_7
REMARK    2  A    between atoms: C5_7  and  C6_8
REMARK    3  A    between atoms: C6_8  and  C7_9
REMARK    4  A    between atoms: C7_9  and  N3_10
REMARK    5  A    between atoms: N4_13  and  C9_14
REMARK    6  A    between atoms: C9_14  and  C10_15
REMARK    7  A    between atoms: C13_19  and  O1_20
ROOT
HETATM    1  N3  UNL     1      14.383 -11.194  20.975  1.00  0.00    -0.332 N
HETATM    2  C8  UNL     1      13.522 -10.168  21.442  1.00  0.00     0.174 C
HETATM    3  S1  UNL     1      13.919  -8.619  21.162  1.00  0.00    -0.041 SA
HETATM    4  N4  UNL     1      12.311 -10.480  22.161  1.00  0.00    -0.357 N
HETATM    5  C11 UNL     1      12.085 -11.894  22.366  1.00  0.00     0.129 C
HETATM    6  C12 UNL     1      12.458 -12.629  21.082  1.00  0.00     0.073 C
HETATM    7  C13 UNL     1      13.955 -12.576  20.940  1.00  0.00     0.223 C
ENDROOT
BRANCH   1   8
HETATM    8  C7  UNL     1      15.702 -10.858  20.553  1.00  0.00     0.129 C
BRANCH   8   9
HETATM    9  C6  UNL     1      16.356 -11.773  19.587  1.00  0.00     0.040 C
BRANCH   9  10
HETATM   10  C5  UNL     1      17.826 -11.512  19.368  1.00  0.00     0.127 C
BRANCH  10  11
HETATM   11  N2  UNL     1      18.592 -12.317  20.326  1.00  0.00    -0.349 N
HETATM   12  C4  UNL     1      17.981 -13.410  21.048  1.00  0.00     0.154 C
HETATM   13  C3  UNL     1      18.326 -13.152  22.510  1.00  0.00     0.257 C
HETATM   14  N1  UNL     1      19.737 -13.449  22.627  1.00  0.00    -0.065 N
HETATM   15  C1  UNL     1      19.896 -14.852  22.247  1.00  0.00     0.272 C
HETATM   16  C2  UNL     1      20.082 -13.397  24.055  1.00  0.00     0.272 C
HETATM   17  C15 UNL     1      20.544 -12.565  21.862  1.00  0.00     0.339 C
HETATM   18  C14 UNL     1      19.958 -12.079  20.598  1.00  0.00     0.246 C
HETATM   19  O2  UNL     1      20.666 -11.445  19.744  1.00  0.00    -0.272 OA
ENDBRANCH  10  11
ENDBRANCH   9  10
ENDBRANCH   8   9
ENDBRANCH   1   8
BRANCH   7  20
HETATM   20  O1  UNL     1      14.582 -13.343  21.920  1.00  0.00    -0.377 OA
ATOM     21  H1  UNL     1      14.790 -14.217  21.610  1.00  0.00     0.212 HD
ENDBRANCH   7  20
BRANCH   4  22
HETATM   22  C9  UNL     1      11.444  -9.424  22.613  1.00  0.00     0.136 C
BRANCH  22  23
HETATM   23  C10 UNL     1      11.494  -9.303  24.140  1.00  0.00     0.105 C
HETATM   24 BR1  UNL     1      11.775  -7.447  24.607  1.00  0.00    -0.095 Br
ENDBRANCH  22  23
ENDBRANCH   4  22
TORSDOF 7
ENDMDL