MODEL 1
REMARK VINA RESULT: -6.519235312      0.000      0.000
REMARK  8 active torsions:
REMARK  status: ('A' for Active; 'I' for Inactive)
REMARK    1  A    between atoms: C2_2  and  C3_3
REMARK    2  A    between atoms: C3_3  and  C4_4
REMARK    3  A    between atoms: C4_4  and  N1_5
REMARK    4  A    between atoms: N2_8  and  C7_9
REMARK    5  A    between atoms: C7_9  and  C8_10
REMARK    6  A    between atoms: C8_10  and  N3_11
REMARK    7  A    between atoms: C17_22  and  C18_23
REMARK    8  A    between atoms: C18_23  and  O2_24
ROOT
HETATM    1  N1  UNL     1      14.488 -11.338  20.217  1.00  0.00    -0.052 N
HETATM    2  C5  UNL     1      14.046 -12.205  21.281  1.00  0.00     0.266 C
HETATM    3  C6  UNL     1      15.104 -13.074  21.860  1.00  0.00     0.265 C
HETATM    4  N2  UNL     1      16.411 -12.839  21.323  1.00  0.00    -0.062 N
HETATM    5  C12 UNL     1      16.698 -11.419  21.309  1.00  0.00     0.265 C
HETATM    6  C13 UNL     1      15.711 -10.605  20.585  1.00  0.00     0.266 C
HETATM    7  C14 UNL     1      16.561 -13.464  20.058  1.00  0.00     0.245 C
HETATM    8  C15 UNL     1      15.876 -12.899  18.905  1.00  0.00     0.053 A
HETATM    9  C16 UNL     1      14.413 -13.410  18.731  1.00  0.00     0.051 A
HETATM   10  C17 UNL     1      14.778 -11.999  18.986  1.00  0.00     0.156 A
ENDROOT
BRANCH   4  11
HETATM   11  C7  UNL     1      17.429 -13.370  22.232  1.00  0.00     0.257 C
BRANCH  11  12
HETATM   12  C8  UNL     1      18.726 -12.640  22.153  1.00  0.00     0.155 C
BRANCH  12  13
HETATM   13  N3  UNL     1      19.441 -12.889  23.393  1.00  0.00    -0.336 N
HETATM   14  C9  UNL     1      20.819 -12.847  23.814  1.00  0.00     0.223 C
HETATM   15  O1  UNL     1      21.888 -13.063  23.227  1.00  0.00    -0.273 OA
HETATM   16  C10 UNL     1      20.331 -12.456  25.150  1.00  0.00     0.140 C
HETATM   17  C11 UNL     1      19.120 -13.286  24.755  1.00  0.00     0.168 C
HETATM   18 BR1  UNL     1      19.401 -15.171  25.014  1.00  0.00    -0.068 Br
ENDBRANCH  12  13
ENDBRANCH  11  12
ENDBRANCH   4  11
BRANCH   1  19
HETATM   19  C4  UNL     1      13.486 -10.298  20.090  1.00  0.00     0.238 C
BRANCH  19  20
HETATM   20  C3  UNL     1      13.484  -9.329  21.231  1.00  0.00     0.028 C
BRANCH  20  21
HETATM   21  C2  UNL     1      12.024  -9.155  21.654  1.00  0.00    -0.003 C
HETATM   22  C1  UNL     1      11.966  -9.169  23.181  1.00  0.00     0.005 C
ENDBRANCH  20  21
ENDBRANCH  19  20
ENDBRANCH   1  19
BRANCH  10  23
HETATM   23  C18 UNL     1      14.551 -11.082  17.769  1.00  0.00     0.203 C
BRANCH  23  24
HETATM   24  O2  UNL     1      15.841 -10.756  17.284  1.00  0.00    -0.398 OA
ATOM     25  H2  UNL     1      15.858 -11.042  16.379  1.00  0.00     0.209 HD
ENDBRANCH  23  24
ENDBRANCH  10  23
TORSDOF 8
ENDMDL