MODEL 4
REMARK VINA RESULT: -6.300089939      3.623      6.075
REMARK  6 active torsions:
REMARK  status: ('A' for Active; 'I' for Inactive)
REMARK    1  A    between atoms: C4_5  and  S1_6
REMARK    2  A    between atoms: C7_11  and  C8_12
REMARK       I    between atoms: C8_12  and  N2_14
REMARK       I    between atoms: C9_16  and  N4_18
REMARK    3  A    between atoms: N4_18  and  C10_20
REMARK    4  A    between atoms: C10_20  and  C11_21
REMARK    5  A    between atoms: C11_21  and  C12_22
REMARK    6  A    between atoms: C12_22  and  C13_23
ROOT
HETATM    1  C1  UNL     1      18.323 -11.396  19.382  1.00  0.00     0.221 C
HETATM    2  N1  UNL     1      17.401 -12.010  19.741  1.00  0.00    -0.461 NA
HETATM    3  C2  UNL     1      16.273 -12.751  20.170  1.00  0.00     0.197 A
HETATM    4  C3  UNL     1      15.159 -11.786  20.436  1.00  0.00    -0.028 A
HETATM    5  C4  UNL     1      15.003 -10.742  21.244  1.00  0.00     0.115 C
HETATM    6  C6  UNL     1      14.263 -12.432  19.445  1.00  0.00     0.040 A
HETATM    7  C7  UNL     1      14.135 -13.911  19.412  1.00  0.00     0.095 A
HETATM    8  C14 UNL     1      15.451 -13.349  19.084  1.00  0.00     0.049 A
ENDROOT
BRANCH   5   9
HETATM    9  S1  UNL     1      13.517  -9.831  21.280  1.00  0.00     0.162 S
HETATM   10  C5  UNL     1      12.141 -10.813  21.796  1.00  0.00     0.166 C
HETATM   11  O1  UNL     1      13.655  -8.664  22.190  1.00  0.00    -0.224 OA
HETATM   12  O2  UNL     1      13.185  -9.300  19.892  1.00  0.00    -0.224 OA
ENDBRANCH   5   9
BRANCH   7  13
HETATM   13  C8  UNL     1      13.834 -14.550  20.696  1.00  0.00     0.229 C
HETATM   14  O3  UNL     1      13.146 -14.029  21.617  1.00  0.00    -0.273 OA
HETATM   15  N2  UNL     1      14.333 -15.850  20.962  1.00  0.00    -0.301 N
HETATM   16  C9  UNL     1      15.298 -16.014  21.791  1.00  0.00     0.190 C
ATOM     17  H2  UNL     1      13.923 -16.657  20.493  1.00  0.00     0.171 HD
HETATM   18  N3  UNL     1      15.768 -17.320  22.034  1.00  0.00    -0.063 NA
HETATM   19  N4  UNL     1      15.860 -14.899  22.436  1.00  0.00    -0.364 N
ATOM     20  H4  UNL     1      15.321 -14.039  22.538  1.00  0.00     0.162 HD
BRANCH  19  21
HETATM   21  C10 UNL     1      17.248 -14.980  22.969  1.00  0.00     0.122 C
BRANCH  21  22
HETATM   22  C11 UNL     1      17.503 -13.650  23.597  1.00  0.00     0.020 C
BRANCH  22  23
HETATM   23  C12 UNL     1      18.533 -13.543  24.643  1.00  0.00     0.012 C
BRANCH  23  24
HETATM   24  C13 UNL     1      19.828 -12.901  24.287  1.00  0.00     0.085 C
HETATM   25 BR1  UNL     1      20.709 -12.154  25.814  1.00  0.00    -0.097 Br
ENDBRANCH  23  24
ENDBRANCH  22  23
ENDBRANCH  21  22
ENDBRANCH  19  21
ENDBRANCH   7  13
TORSDOF 6
ENDMDL