MODEL 1
REMARK VINA RESULT: -6.971500514      0.000      0.000
REMARK  0 active torsions:
REMARK  status: ('A' for Active; 'I' for Inactive)
ROOT
HETATM    1  C1  UNL     1      -0.181 -20.616  11.991  1.00  0.00     0.015 C
HETATM    2  C2  UNL     1       1.155 -21.264  12.026  1.00  0.00    -0.048 C
HETATM    3  C3  UNL     1       0.699 -22.698  11.481  1.00  0.00     0.015 C
HETATM    4  C4  UNL     1       1.658 -21.695  13.364  1.00  0.00     0.011 C
HETATM    5  C5  UNL     1       1.756 -20.645  14.451  1.00  0.00     0.036 C
HETATM    6  C6  UNL     1       2.504 -19.502  13.868  1.00  0.00     0.160 C
HETATM    7  C7  UNL     1       2.584 -18.209  14.634  1.00  0.00     0.035 C
HETATM    8  C8  UNL     1       2.470 -17.127  13.539  1.00  0.00     0.008 C
HETATM    9  C9  UNL     1       3.657 -16.864  12.748  1.00  0.00     0.058 C
HETATM   10  C10 UNL     1       4.196 -17.905  11.842  1.00  0.00     0.047 A
HETATM   11  N1  UNL     1       5.300 -17.525  11.228  1.00  0.00    -0.333 N
ATOM     12  H1  UNL     1       5.754 -16.619  11.346  1.00  0.00     0.168 HD
HETATM   13  C11 UNL     1       5.761 -18.551  10.391  1.00  0.00     0.191 A
HETATM   14  N2  UNL     1       6.959 -18.451   9.571  1.00  0.00    -0.063 NA
HETATM   15  N3  UNL     1       4.984 -19.543  10.466  1.00  0.00    -0.326 N
ATOM     16  H3  UNL     1       5.093 -20.420   9.957  1.00  0.00     0.165 HD
HETATM   17  C12 UNL     1       3.914 -19.236  11.392  1.00  0.00     0.209 A
HETATM   18  C13 UNL     1       2.574 -19.520  10.720  1.00  0.00     0.071 C
HETATM   19  C14 UNL     1       2.137 -20.899  10.991  1.00  0.00     0.014 C
HETATM   20  O1  UNL     1       4.043 -20.215  12.382  1.00  0.00    -0.201 OA
HETATM   21  O2  UNL     1       3.785 -19.840  13.556  1.00  0.00    -0.233 OA
ENDROOT
TORSDOF 0
ENDMDL