MODEL 4
REMARK VINA RESULT: -6.648137490      1.902      5.953
REMARK  2 active torsions:
REMARK  status: ('A' for Active; 'I' for Inactive)
REMARK    1  A    between atoms: O1_1  and  C1_3
REMARK    2  A    between atoms: C1_3  and  O2_4
ROOT
HETATM    1  C1  UNL     1     -11.245 -19.555  17.366  1.00  0.00     0.164 C
HETATM    2  C2  UNL     1     -11.557 -20.976  17.676  1.00  0.00     0.068 C
HETATM    3  C3  UNL     1     -10.359 -21.831  17.954  1.00  0.00     0.006 C
HETATM    4  C4  UNL     1      -9.579 -22.197  16.735  1.00  0.00     0.006 C
HETATM    5  C5  UNL     1      -9.575 -21.130  15.671  1.00  0.00     0.074 C
HETATM    6  C6  UNL     1      -9.056 -19.811  16.157  1.00  0.00     0.234 C
HETATM    7  C7  UNL     1      -9.792 -19.234  17.307  1.00  0.00     0.142 C
HETATM    8  O3  UNL     1      -7.721 -20.026  16.573  1.00  0.00    -0.194 OA
HETATM    9  O4  UNL     1      -6.902 -20.140  15.578  1.00  0.00    -0.195 OA
HETATM   10  C8  UNL     1      -6.876 -19.012  14.747  1.00  0.00     0.229 C
HETATM   11  C9  UNL     1      -5.650 -18.202  15.126  1.00  0.00     0.074 C
HETATM   12  C10 UNL     1      -4.768 -17.910  13.938  1.00  0.00     0.006 C
HETATM   13  C11 UNL     1      -4.386 -19.139  13.167  1.00  0.00     0.000 C
HETATM   14  C12 UNL     1      -5.425 -20.219  13.211  1.00  0.00     0.006 C
HETATM   15  C13 UNL     1      -6.781 -19.535  13.326  1.00  0.00     0.074 C
HETATM   16  O5  UNL     1      -8.008 -18.234  14.936  1.00  0.00    -0.195 OA
HETATM   17  O6  UNL     1      -9.095 -18.922  15.083  1.00  0.00    -0.194 OA
ENDROOT
BRANCH   1  18
HETATM   18  O1  UNL     1     -11.803 -19.185  16.120  1.00  0.00    -0.365 OA
ATOM     19  H1  UNL     1     -12.716 -19.009  16.315  1.00  0.00     0.213 HD
ENDBRANCH   1  18
BRANCH   1  20
HETATM   20  O2  UNL     1     -11.830 -18.658  18.291  1.00  0.00    -0.365 OA
ATOM     21  H2  UNL     1     -11.803 -19.124  19.119  1.00  0.00     0.213 HD
ENDBRANCH   1  20
TORSDOF 2
ENDMDL