MODEL 1
REMARK VINA RESULT: -7.431576972      0.000      0.000
REMARK  3 active torsions:
REMARK  status: ('A' for Active; 'I' for Inactive)
REMARK    1  A    between atoms: C7_9  and  N2_10
REMARK    2  A    between atoms: N2_10  and  C8_12
REMARK    3  A    between atoms: C9_15  and  O1_16
ROOT
HETATM    1  C1  UNL     1      -5.142 -22.078  14.771  1.00  0.00     0.013 C
HETATM    2  C2  UNL     1      -4.611 -20.762  14.267  1.00  0.00     0.020 C
HETATM    3  C3  UNL     1      -3.823 -20.908  12.992  1.00  0.00     0.007 C
HETATM    4  C4  UNL     1      -4.880 -21.086  11.943  1.00  0.00     0.004 C
HETATM    5  C5  UNL     1      -6.117 -20.360  12.420  1.00  0.00     0.043 C
HETATM    6  C6  UNL     1      -5.794 -19.937  13.815  1.00  0.00     0.083 C
HETATM    7  N1  UNL     1      -6.845 -19.988  14.741  1.00  0.00    -0.360 N
ATOM      8  H1  UNL     1      -7.446 -20.812  14.758  1.00  0.00     0.162 HD
HETATM    9  C7  UNL     1      -7.068 -19.070  15.539  1.00  0.00     0.089 C
HETATM   10  C11 UNL     1      -6.182 -17.883  15.503  1.00  0.00     0.152 C
HETATM   11  S2  UNL     1      -5.375 -18.146  13.893  1.00  0.00    -0.130 SA
ENDROOT
BRANCH   9  12
HETATM   12  N2  UNL     1      -8.156 -19.130  16.491  1.00  0.00    -0.326 N
ATOM     13  H2  UNL     1      -7.974 -19.049  17.491  1.00  0.00     0.169 HD
BRANCH  12  14
HETATM   14  C8  UNL     1      -9.381 -19.291  16.047  1.00  0.00     0.151 A
HETATM   15  N3  UNL     1      -9.937 -18.738  14.973  1.00  0.00    -0.317 N
HETATM   16  C9  UNL     1     -11.191 -19.032  14.700  1.00  0.00     0.148 A
ATOM     17  H3  UNL     1      -9.406 -18.104  14.377  1.00  0.00     0.170 HD
HETATM   18  C10 UNL     1     -11.838 -19.892  15.546  1.00  0.00     0.109 A
HETATM   19  S1  UNL     1     -10.628 -20.243  16.695  1.00  0.00    -0.061 SA
BRANCH  16  20
HETATM   20  O1  UNL     1     -11.887 -18.497  13.572  1.00  0.00    -0.346 OA
ATOM     21  H1  UNL     1     -12.734 -18.817  13.289  1.00  0.00     0.219 HD
ENDBRANCH  16  20
ENDBRANCH  12  14
ENDBRANCH   9  12
TORSDOF 3
ENDMDL