MODEL 2
REMARK VINA RESULT: -6.407931727      2.362      3.547
REMARK  3 active torsions:
REMARK  status: ('A' for Active; 'I' for Inactive)
REMARK    1  A    between atoms: C8_8  and  O1_9
REMARK    2  A    between atoms: O1_9  and  O2_10
REMARK    3  A    between atoms: C11_16  and  O5_17
ROOT
HETATM    1  C1  UNL     1       0.103 -19.298  12.143  1.00  0.00     0.014 C
HETATM    2  C2  UNL     1      -1.221 -19.711  12.751  1.00  0.00     0.006 C
HETATM    3  C3  UNL     1      -2.094 -18.415  12.649  1.00  0.00     0.008 C
HETATM    4  C4  UNL     1      -3.429 -18.960  12.674  1.00  0.00     0.005 C
HETATM    5  C5  UNL     1      -4.792 -18.650  12.853  1.00  0.00    -0.010 C
HETATM    6  C6  UNL     1      -5.382 -18.791  14.276  1.00  0.00     0.010 C
HETATM    7  C7  UNL     1      -4.931 -20.038  14.982  1.00  0.00     0.075 C
HETATM    8  C8  UNL     1      -5.005 -21.329  14.217  1.00  0.00     0.236 C
HETATM    9  O3  UNL     1      -3.999 -22.216  14.480  1.00  0.00    -0.192 OA
HETATM   10  O4  UNL     1      -2.850 -22.161  13.980  1.00  0.00    -0.197 OA
HETATM   11  C9  UNL     1      -2.682 -21.898  12.647  1.00  0.00     0.110 C
HETATM   12  C10 UNL     1      -1.730 -20.931  12.135  1.00  0.00     0.016 C
HETATM   13  C11 UNL     1      -4.074 -21.954  11.983  1.00  0.00     0.187 C
HETATM   14  C12 UNL     1      -5.150 -21.180  12.743  1.00  0.00     0.093 C
HETATM   15  C13 UNL     1      -5.531 -19.853  12.194  1.00  0.00    -0.002 C
HETATM   16  C14 UNL     1      -6.975 -19.572  12.042  1.00  0.00     0.011 C
ENDROOT
BRANCH   8  17
HETATM   17  O1  UNL     1      -6.154 -21.988  14.759  1.00  0.00    -0.200 OA
BRANCH  17  18
HETATM   18  O2  UNL     1      -5.833 -23.115  15.306  1.00  0.00    -0.247 OA
ATOM     19  H2  UNL     1      -5.195 -22.991  15.999  1.00  0.00     0.253 HD
ENDBRANCH  17  18
ENDBRANCH   8  17
BRANCH  13  20
HETATM   20  O5  UNL     1      -4.498 -23.311  11.894  1.00  0.00    -0.388 OA
ATOM     21  H5  UNL     1      -5.349 -23.346  11.473  1.00  0.00     0.210 HD
ENDBRANCH  13  20
TORSDOF 3
ENDMDL