MODEL 2
REMARK VINA RESULT: -6.290776862      3.696      6.010
REMARK  2 active torsions:
REMARK  status: ('A' for Active; 'I' for Inactive)
REMARK    1  A    between atoms: C9_12  and  N2_13
REMARK    2  A    between atoms: N2_13  and  O1_15
ROOT
HETATM    1  C1  UNL     1      -4.665 -22.585  12.019  1.00  0.00     0.027 C
HETATM    2  C2  UNL     1      -3.993 -21.442  12.765  1.00  0.00     0.011 C
HETATM    3  C3  UNL     1      -2.506 -21.507  12.453  1.00  0.00     0.027 C
HETATM    4  C4  UNL     1      -4.498 -20.124  12.266  1.00  0.00     0.021 C
HETATM    5  C5  UNL     1      -5.930 -19.839  12.613  1.00  0.00     0.006 C
HETATM    6  C6  UNL     1      -5.981 -18.794  13.703  1.00  0.00     0.044 C
HETATM    7  C7  UNL     1      -6.855 -19.245  14.860  1.00  0.00     0.014 A
HETATM    8  C8  UNL     1      -6.971 -20.452  15.441  1.00  0.00     0.096 A
HETATM    9  N1  UNL     1      -7.828 -20.567  16.454  1.00  0.00    -0.318 N
ATOM     10  H1  UNL     1      -8.041 -21.399  17.005  1.00  0.00     0.175 HD
HETATM   11  S1  UNL     1      -8.476 -19.027  16.614  1.00  0.00     0.007 SA
HETATM   12  C9  UNL     1      -7.635 -18.240  15.368  1.00  0.00     0.120 A
HETATM   13  S2  UNL     1      -6.155 -22.059  15.116  1.00  0.00    -0.038 SA
HETATM   14  S3  UNL     1      -4.162 -21.621  14.558  1.00  0.00    -0.082 SA
ENDROOT
BRANCH  12  15
HETATM   15  N2  UNL     1      -7.692 -16.991  14.969  1.00  0.00    -0.261 N
ATOM     16  H2  UNL     1      -8.445 -16.652  14.370  1.00  0.00     0.195 HD
BRANCH  15  17
HETATM   17  O1  UNL     1      -6.676 -16.159  15.405  1.00  0.00    -0.289 OA
ATOM     18  H1  UNL     1      -6.277 -15.601  14.747  1.00  0.00     0.244 HD
ENDBRANCH  15  17
ENDBRANCH  12  15
TORSDOF 2
ENDMDL