MODEL 2
REMARK VINA RESULT: -6.338144079      6.870      7.786
REMARK  0 active torsions:
REMARK  status: ('A' for Active; 'I' for Inactive)
ROOT
HETATM    1  C1  UNL     1      -5.853 -22.663  15.642  1.00  0.00     0.049 C
HETATM    2  C2  UNL     1      -6.180 -21.174  15.630  1.00  0.00    -0.045 A
HETATM    3  C3  UNL     1      -6.938 -20.674  16.653  1.00  0.00     0.059 A
HETATM    4  S1  UNL     1      -7.040 -19.016  16.339  1.00  0.00    -0.076 SA
HETATM    5  C4  UNL     1      -6.097 -18.987  14.882  1.00  0.00     0.126 A
HETATM    6  C5  UNL     1      -5.731 -20.289  14.685  1.00  0.00    -0.000 A
HETATM    7  C6  UNL     1      -4.930 -20.566  13.465  1.00  0.00     0.015 C
HETATM    8  C7  UNL     1      -5.328 -21.795  12.681  1.00  0.00     0.017 C
HETATM    9  C8  UNL     1      -4.291 -21.806  11.568  1.00  0.00     0.005 C
HETATM   10  C9  UNL     1      -3.050 -21.347  12.254  1.00  0.00    -0.017 C
HETATM   11  C10 UNL     1      -2.147 -22.549  12.435  1.00  0.00     0.010 C
HETATM   12  C11 UNL     1      -3.476 -20.769  13.621  1.00  0.00     0.020 C
HETATM   13  C12 UNL     1      -5.079 -19.454  12.419  1.00  0.00     0.180 C
HETATM   14  C13 UNL     1      -6.376 -19.563  11.724  1.00  0.00     0.073 C
HETATM   15  N1  UNL     1      -7.386 -19.629  11.172  1.00  0.00    -0.196 NA
HETATM   16  C14 UNL     1      -4.999 -18.098  12.966  1.00  0.00     0.137 C
HETATM   17  N2  UNL     1      -4.278 -17.195  12.458  1.00  0.00    -0.382 N
ATOM     18  H21 UNL     1      -4.222 -16.250  12.838  1.00  0.00     0.158 HD
ATOM     19  H22 UNL     1      -3.704 -17.357  11.630  1.00  0.00     0.158 HD
HETATM   20  O1  UNL     1      -5.765 -17.882  14.070  1.00  0.00    -0.289 OA
ENDROOT
TORSDOF 0
ENDMDL