MODEL 5
REMARK VINA RESULT: -5.993773850      1.798      3.598
REMARK  2 active torsions:
REMARK  status: ('A' for Active; 'I' for Inactive)
REMARK    1  A    between atoms: O1_1  and  C1_3
REMARK    2  A    between atoms: C5_12  and  O2_13
ROOT
HETATM    1  C1  UNL     1       6.835 -13.843  12.087  1.00  0.00     0.171 A
HETATM    2  C2  UNL     1       7.242 -15.047  11.639  1.00  0.00     0.165 A
HETATM    3  N1  UNL     1       6.294 -15.953  11.890  1.00  0.00    -0.189 N
HETATM    4  C3  UNL     1       5.275 -15.321  12.502  1.00  0.00     0.682 A
HETATM    5  N2  UNL     1       5.637 -14.010  12.613  1.00  0.00    -0.169 N
ATOM      6  H2  UNL     1       5.070 -13.276  13.036  1.00  0.00     0.186 HD
HETATM    7  N3  UNL     1       4.139 -16.041  12.879  1.00  0.00    -0.223 N
ATOM      8  H3  UNL     1       4.084 -15.979  13.896  1.00  0.00     0.177 HD
HETATM    9  C4  UNL     1       3.190 -16.707  12.526  1.00  0.00     0.169 C
HETATM   10  C5  UNL     1       2.301 -17.189  13.674  1.00  0.00     0.136 C
HETATM   11  C6  UNL     1       1.644 -18.502  13.347  1.00  0.00     0.033 C
HETATM   12  C7  UNL     1       2.357 -19.715  13.828  1.00  0.00     0.002 C
HETATM   13  C8  UNL     1       2.435 -20.818  12.794  1.00  0.00     0.000 C
HETATM   14  C9  UNL     1       3.689 -20.693  11.994  1.00  0.00     0.000 C
HETATM   15  C10 UNL     1       3.477 -20.720  10.498  1.00  0.00     0.000 C
HETATM   16  C11 UNL     1       4.064 -19.534   9.784  1.00  0.00     0.000 C
HETATM   17  C12 UNL     1       5.491 -19.223  10.169  1.00  0.00     0.002 C
HETATM   18  C13 UNL     1       5.766 -17.740  10.244  1.00  0.00     0.021 C
HETATM   19  C14 UNL     1       6.287 -17.378  11.595  1.00  0.00     0.147 C
ENDROOT
BRANCH   1  20
HETATM   20  O1  UNL     1       7.570 -12.646  11.999  1.00  0.00    -0.345 OA
ATOM     21  H1  UNL     1       7.223 -11.802  11.733  1.00  0.00     0.219 HD
ENDBRANCH   1  20
BRANCH  10  22
HETATM   22  O2  UNL     1       3.009 -17.324  14.836  1.00  0.00    -0.394 OA
ATOM     23  H2  UNL     1       2.774 -18.120  15.298  1.00  0.00     0.210 HD
ENDBRANCH  10  22
TORSDOF 2
ENDMDL