MODEL 2
REMARK VINA RESULT: -7.453452581      2.261      5.817
REMARK  0 active torsions:
REMARK  status: ('A' for Active; 'I' for Inactive)
ROOT
HETATM    1  C1  UNL     1       1.747 -23.614  11.191  1.00  0.00     0.090 C
HETATM    2  C2  UNL     1       0.897 -22.444  11.554  1.00  0.00     0.094 A
HETATM    3  N1  UNL     1       1.304 -21.190  11.807  1.00  0.00    -0.327 N
ATOM      4  H1  UNL     1       2.269 -20.862  11.784  1.00  0.00     0.169 HD
HETATM    5  C3  UNL     1       0.215 -20.432  12.098  1.00  0.00     0.169 A
HETATM    6  C4  UNL     1       0.051 -19.101  12.427  1.00  0.00     0.147 A
HETATM    7  S1  UNL     1       1.351 -18.108  12.526  1.00  0.00    -0.056 SA
HETATM    8  N2  UNL     1      -1.192 -18.638  12.664  1.00  0.00    -0.344 N
ATOM      9  H2  UNL     1      -1.328 -17.657  12.909  1.00  0.00     0.167 HD
HETATM   10  C5  UNL     1      -2.263 -19.464  12.581  1.00  0.00     0.060 A
HETATM   11  C6  UNL     1      -2.062 -20.786  12.249  1.00  0.00     0.149 A
HETATM   12  N3  UNL     1      -0.826 -21.280  12.005  1.00  0.00    -0.217 N
HETATM   13  N4  UNL     1      -0.434 -22.487  11.682  1.00  0.00    -0.279 N
ATOM     14  H4  UNL     1      -1.029 -23.304  11.551  1.00  0.00     0.189 HD
HETATM   15  N5  UNL     1      -3.211 -21.616  12.173  1.00  0.00    -0.365 N
ATOM     16  H5  UNL     1      -3.182 -22.414  11.540  1.00  0.00     0.162 HD
HETATM   17  C7  UNL     1      -4.413 -21.403  12.933  1.00  0.00     0.025 C
HETATM   18  C8  UNL     1      -4.578 -22.401  14.061  1.00  0.00     0.038 C
HETATM   19  C9  UNL     1      -5.572 -21.656  11.964  1.00  0.00     0.038 C
HETATM   20  C10 UNL     1      -4.495 -20.026  13.531  1.00  0.00     0.040 C
HETATM   21  C11 UNL     1      -3.634 -19.017  12.825  1.00  0.00     0.038 C
HETATM   22  C12 UNL     1      -3.707 -17.694  13.536  1.00  0.00     0.016 C
ENDROOT
TORSDOF 0
ENDMDL