MODEL 5
REMARK VINA RESULT: -5.295498282      2.824      5.426
REMARK  0 active torsions:
REMARK  status: ('A' for Active; 'I' for Inactive)
ROOT
HETATM    1  N1  UNL     1       6.161 -13.514  12.002  1.00  0.00    -0.374 N
ATOM      2  H11 UNL     1       7.146 -13.271  11.895  1.00  0.00     0.158 HD
ATOM      3  H12 UNL     1       5.431 -12.804  11.948  1.00  0.00     0.158 HD
HETATM    4  C1  UNL     1       5.788 -14.723  12.210  1.00  0.00     0.175 C
HETATM    5  O1  UNL     1       4.432 -15.057  12.357  1.00  0.00    -0.331 OA
HETATM    6  C2  UNL     1       4.169 -16.264  13.036  1.00  0.00     0.178 C
HETATM    7  C3  UNL     1       2.723 -16.621  13.082  1.00  0.00     0.037 C
HETATM    8  C4  UNL     1       2.614 -18.010  13.706  1.00  0.00     0.076 C
HETATM    9  S1  UNL     1       1.938 -19.216  12.564  1.00  0.00    -0.169 SA
HETATM   10  C5  UNL     1       3.008 -19.558  11.174  1.00  0.00     0.075 C
HETATM   11  C6  UNL     1       4.200 -20.393  11.503  1.00  0.00     0.037 C
HETATM   12  C7  UNL     1       5.395 -19.824  10.746  1.00  0.00     0.233 C
HETATM   13  N2  UNL     1       6.616 -20.492  11.100  1.00  0.00    -0.075 N
ATOM     14  H21 UNL     1       6.918 -21.130  10.363  1.00  0.00     0.277 HD
ATOM     15  H22 UNL     1       6.465 -21.171  11.847  1.00  0.00     0.277 HD
HETATM   16  C8  UNL     1       7.664 -19.552  11.446  1.00  0.00     0.232 C
HETATM   17  C9  UNL     1       8.103 -18.773  10.237  1.00  0.00     0.028 C
HETATM   18  C10 UNL     1       8.679 -17.410  10.610  1.00  0.00     0.012 C
HETATM   19  C11 UNL     1       7.560 -16.382  10.597  1.00  0.00     0.083 C
HETATM   20  S2  UNL     1       7.072 -15.972  12.305  1.00  0.00    -0.087 SA
ENDROOT
TORSDOF 0
ENDMDL