MODEL 4
REMARK VINA RESULT: -5.364218645     11.314     12.863
REMARK  1 active torsions:
REMARK  status: ('A' for Active; 'I' for Inactive)
REMARK    1  A    between atoms: N3_17  and  O1_19
ROOT
HETATM    1  C1  UNL     1       7.262 -17.553   7.415  1.00  0.00     0.030 C
HETATM    2  C2  UNL     1       6.189 -17.711   8.465  1.00  0.00     0.120 C
HETATM    3  S1  UNL     1       6.068 -19.467   8.893  1.00  0.00    -0.104 SA
HETATM    4  C3  UNL     1       7.065 -19.679  10.359  1.00  0.00     0.060 C
HETATM    5  N1  UNL     1       7.693 -20.773  10.570  1.00  0.00    -0.396 N
ATOM      6  H11 UNL     1       8.263 -20.894  11.407  1.00  0.00     0.156 HD
ATOM      7  H12 UNL     1       7.597 -21.507   9.868  1.00  0.00     0.156 HD
HETATM    8  C4  UNL     1       7.207 -18.594  11.396  1.00  0.00     0.170 C
HETATM    9  C5  UNL     1       8.590 -18.228  11.537  1.00  0.00     0.072 C
HETATM   10  N2  UNL     1       9.702 -17.954  11.636  1.00  0.00    -0.196 NA
HETATM   11  C6  UNL     1       6.280 -17.436  11.073  1.00  0.00     0.084 C
HETATM   12  C7  UNL     1       4.869 -17.975  11.183  1.00  0.00     0.025 C
HETATM   13  C8  UNL     1       4.037 -17.439  12.278  1.00  0.00     0.002 C
HETATM   14  C9  UNL     1       4.211 -16.034  12.683  1.00  0.00     0.006 C
HETATM   15  C10 UNL     1       5.352 -15.314  12.006  1.00  0.00     0.056 C
HETATM   16  C11 UNL     1       6.465 -16.278  11.954  1.00  0.00     0.027 C
HETATM   17  N3  UNL     1       7.471 -16.025  12.668  1.00  0.00    -0.276 N
ATOM     18  H3  UNL     1       8.245 -16.688  12.638  1.00  0.00     0.193 HD
HETATM   19  C12 UNL     1       6.525 -16.956   9.679  1.00  0.00     0.156 C
HETATM   20  O2  UNL     1       7.040 -15.864   9.526  1.00  0.00    -0.295 OA
ENDROOT
BRANCH  17  21
HETATM   21  O1  UNL     1       7.608 -14.946  13.470  1.00  0.00    -0.290 OA
ATOM     22  H1  UNL     1       7.648 -14.044  13.175  1.00  0.00     0.244 HD
ENDBRANCH  17  21
TORSDOF 1
ENDMDL