MODEL 1
REMARK VINA RESULT: -7.122262219      0.000      0.000
REMARK  7 active torsions:
REMARK  status: ('A' for Active; 'I' for Inactive)
REMARK    1  A    between atoms: C1_2  and  C2_4
REMARK    2  A    between atoms: C2_4  and  N2_5
REMARK    3  A    between atoms: N3_8  and  C5_9
REMARK    4  A    between atoms: C5_9  and  C6_10
REMARK    5  A    between atoms: C6_10  and  C7_11
REMARK    6  A    between atoms: C7_11  and  C8_12
REMARK    7  A    between atoms: N4_16  and  C11_17
ROOT
HETATM    1  N2  UNL     1      14.821 -12.613  18.822  1.00  0.00     0.018 N
HETATM    2  C3  UNL     1      16.079 -12.760  19.586  1.00  0.00     0.280 C
HETATM    3  C4  UNL     1      16.039 -11.734  20.670  1.00  0.00     0.268 C
HETATM    4  N3  UNL     1      14.624 -11.402  20.761  1.00  0.00    -0.036 N
HETATM    5  C9  UNL     1      14.006 -12.464  21.502  1.00  0.00     0.284 C
HETATM    6  C10 UNL     1      12.780 -13.006  20.802  1.00  0.00     0.093 C
HETATM    7  N4  UNL     1      13.015 -13.956  19.817  1.00  0.00    -0.344 N
HETATM    8  C17 UNL     1      14.051 -13.811  18.914  1.00  0.00     0.304 C
HETATM    9  C18 UNL     1      14.245 -11.430  19.355  1.00  0.00     0.486 C
ENDROOT
BRANCH   7  10
HETATM   10  C11 UNL     1      12.571 -15.294  20.120  1.00  0.00     0.090 C
HETATM   11  C12 UNL     1      11.904 -15.950  18.941  1.00  0.00     0.026 C
HETATM   12  C13 UNL     1      11.969 -17.436  18.908  1.00  0.00     0.002 C
HETATM   13  C14 UNL     1      11.959 -17.927  20.347  1.00  0.00     0.000 C
HETATM   14  C15 UNL     1      13.349 -17.572  20.872  1.00  0.00     0.002 C
HETATM   15  C16 UNL     1      13.633 -16.102  20.780  1.00  0.00     0.026 C
ENDBRANCH   7  10
BRANCH   1  16
HETATM   16  C2  UNL     1      15.199 -12.509  17.430  1.00  0.00     0.282 C
BRANCH  16  17
HETATM   17  C1  UNL     1      15.683 -11.275  16.906  1.00  0.00     0.278 C
HETATM   18  N1  UNL     1      14.817 -10.552  15.987  1.00  0.00    -0.057 NA
HETATM   19  O1  UNL     1      16.769 -10.734  17.143  1.00  0.00    -0.270 OA
ENDBRANCH  16  17
ENDBRANCH   1  16
BRANCH   4  20
HETATM   20  C5  UNL     1      14.388 -10.080  21.257  1.00  0.00     0.240 C
BRANCH  20  21
HETATM   21  C6  UNL     1      13.279  -9.331  20.595  1.00  0.00     0.029 C
BRANCH  21  22
HETATM   22  C7  UNL     1      12.097  -9.340  21.552  1.00  0.00     0.012 C
BRANCH  22  23
HETATM   23  C8  UNL     1      12.547  -9.110  22.967  1.00  0.00     0.085 C
HETATM   24 BR1  UNL     1      11.370 -10.072  24.158  1.00  0.00    -0.097 Br
ENDBRANCH  22  23
ENDBRANCH  21  22
ENDBRANCH  20  21
ENDBRANCH   4  20
TORSDOF 7
ENDMDL