MODEL 1
REMARK VINA RESULT: -6.107534116      0.000      0.000
REMARK  10 active torsions:
REMARK  status: ('A' for Active; 'I' for Inactive)
REMARK    1  A    between atoms: C3_3  and  N1_4
REMARK    2  A    between atoms: N1_4  and  C4_5
REMARK    3  A    between atoms: C4_5  and  C5_6
REMARK    4  A    between atoms: C6_7  and  C7_8
REMARK    5  A    between atoms: C8_9  and  C9_10
REMARK    6  A    between atoms: C10_11  and  S1_12
REMARK    7  A    between atoms: S1_12  and  N2_14
REMARK    8  A    between atoms: S1_12  and  N3_20
REMARK    9  A    between atoms: N2_14  and  C11_16
REMARK   10  A    between atoms: C11_16  and  C12_17
ROOT
HETATM    1  C1  UNL     1      20.840 -12.075  25.821  1.00  0.00     0.013 C
HETATM    2  C2  UNL     1      21.278 -13.121  26.221  1.00  0.00    -0.089 C
HETATM    3  C3  UNL     1      21.836 -14.396  26.718  1.00  0.00     0.331 C
ENDROOT
BRANCH   3   4
HETATM    4  N1  UNL     1      21.801 -15.378  25.625  1.00  0.00    -0.044 N
HETATM    5  C16 UNL     1      23.106 -16.090  25.394  1.00  0.00     0.267 A
HETATM    6  C17 UNL     1      22.590 -15.140  24.452  1.00  0.00     0.267 A
BRANCH   4   7
HETATM    7  C4  UNL     1      20.621 -16.195  25.538  1.00  0.00     0.332 C
BRANCH   7   8
HETATM    8  C5  UNL     1      19.523 -15.504  24.857  1.00  0.00    -0.074 C
HETATM    9  C6  UNL     1      18.630 -14.921  24.282  1.00  0.00    -0.076 C
BRANCH   9  10
HETATM   10  C7  UNL     1      17.593 -14.214  23.592  1.00  0.00     0.073 C
HETATM   11  C8  UNL     1      17.819 -13.167  22.809  1.00  0.00     0.074 C
BRANCH  11  12
HETATM   12  C9  UNL     1      16.743 -12.498  22.144  1.00  0.00    -0.062 C
HETATM   13  C10 UNL     1      15.810 -11.946  21.585  1.00  0.00     0.026 C
BRANCH  13  14
HETATM   14  S1  UNL     1      14.228 -11.062  20.646  1.00  0.00     0.164 S
HETATM   15  O1  UNL     1      14.823 -11.256  19.143  1.00  0.00    -0.220 OA
BRANCH  14  16
HETATM   16  N2  UNL     1      12.956 -12.355  20.228  1.00  0.00    -0.304 N
ATOM     17  H2  UNL     1      11.997 -12.252  20.560  1.00  0.00     0.176 HD
BRANCH  16  18
HETATM   18  C11 UNL     1      13.311 -13.457  19.464  1.00  0.00     0.117 C
BRANCH  18  19
HETATM   19  C12 UNL     1      13.736 -14.589  20.351  1.00  0.00     0.017 C
HETATM   20  C13 UNL     1      12.967 -15.003  21.353  1.00  0.00     0.033 C
HETATM   21 BR1  UNL     1      15.410 -15.442  20.030  1.00  0.00    -0.051 Br
ENDBRANCH  18  19
ENDBRANCH  16  18
ENDBRANCH  14  16
BRANCH  14  22
HETATM   22  N3  UNL     1      13.313 -10.754  22.137  1.00  0.00    -0.226 NA
HETATM   23  C14 UNL     1      12.957  -9.378  22.452  1.00  0.00     0.128 C
HETATM   24  C15 UNL     1      12.106 -11.500  22.456  1.00  0.00     0.128 C
ENDBRANCH  14  22
ENDBRANCH  13  14
ENDBRANCH  11  12
ENDBRANCH   9  10
ENDBRANCH   7   8
ENDBRANCH   4   7
ENDBRANCH   3   4
TORSDOF 10
ENDMDL