MODEL 1
REMARK VINA RESULT: -6.273482175      0.000      0.000
REMARK  6 active torsions:
REMARK  status: ('A' for Active; 'I' for Inactive)
REMARK    1  A    between atoms: C4_9  and  C5_10
REMARK       I    between atoms: C5_10  and  N3_12
REMARK    2  A    between atoms: N3_12  and  C6_13
REMARK    3  A    between atoms: N3_12  and  C7_15
REMARK    4  A    between atoms: C7_15  and  C8_16
REMARK    5  A    between atoms: C8_16  and  C9_17
REMARK    6  A    between atoms: C9_17  and  N4_18
ROOT
HETATM    1  C5  UNL     1      20.225 -13.650  23.060  1.00  0.00     0.245 C
HETATM    2  O1  UNL     1      21.100 -13.080  22.311  1.00  0.00    -0.271 OA
HETATM    3  N3  UNL     1      18.876 -13.283  22.944  1.00  0.00    -0.341 N
ENDROOT
BRANCH   3   4
HETATM    4  C6  UNL     1      17.845 -13.902  23.741  1.00  0.00     0.210 C
HETATM    5 BR1  UNL     1      17.219 -15.583  23.039  1.00  0.00    -0.075 Br
ENDBRANCH   3   4
BRANCH   3   6
HETATM    6  C7  UNL     1      18.502 -12.259  22.006  1.00  0.00     0.128 C
BRANCH   6   7
HETATM    7  C8  UNL     1      18.031 -12.685  20.680  1.00  0.00     0.040 C
BRANCH   7   8
HETATM    8  C9  UNL     1      17.610 -11.634  19.712  1.00  0.00     0.128 C
BRANCH   8   9
HETATM    9  N4  UNL     1      16.182 -11.624  19.621  1.00  0.00    -0.371 N
HETATM   10  C10 UNL     1      15.444 -10.885  20.553  1.00  0.00     0.091 C
HETATM   11  C11 UNL     1      14.675 -11.789  21.490  1.00  0.00     0.281 C
HETATM   12  N5  UNL     1      13.796 -12.670  20.758  1.00  0.00    -0.066 N
HETATM   13  C12 UNL     1      12.428 -12.334  21.077  1.00  0.00     0.272 C
HETATM   14  C13 UNL     1      13.992 -14.057  21.164  1.00  0.00     0.272 C
HETATM   15  C14 UNL     1      14.034 -12.619  19.329  1.00  0.00     0.281 C
HETATM   16  C15 UNL     1      15.533 -12.764  19.122  1.00  0.00     0.091 C
ENDBRANCH   8   9
ENDBRANCH   7   8
ENDBRANCH   6   7
ENDBRANCH   3   6
BRANCH   1  17
HETATM   17  C4  UNL     1      20.787 -14.664  23.981  1.00  0.00     0.198 C
HETATM   18  C2  UNL     1      21.195 -14.018  25.305  1.00  0.00     0.111 C
HETATM   19  C1  UNL     1      21.984 -12.750  25.057  1.00  0.00     0.034 C
HETATM   20  N1  UNL     1      22.131 -15.003  25.828  1.00  0.00    -0.361 N
HETATM   21  C3  UNL     1      22.827 -15.465  24.676  1.00  0.00     0.168 C
ATOM     22  H1  UNL     1      22.258 -15.295  26.797  1.00  0.00     0.162 HD
HETATM   23  S1  UNL     1      24.233 -16.320  24.644  1.00  0.00    -0.041 SA
HETATM   24  N2  UNL     1      22.125 -15.072  23.513  1.00  0.00    -0.352 N
ATOM     25  H2  UNL     1      22.470 -15.070  22.553  1.00  0.00     0.162 HD
ENDBRANCH   1  17
TORSDOF 6
ENDMDL