MODEL 1
REMARK VINA RESULT: -8.004739017      0.000      0.000
REMARK  7 active torsions:
REMARK  status: ('A' for Active; 'I' for Inactive)
REMARK    1  A    between atoms: C4_9  and  C5_10
REMARK    2  A    between atoms: C5_10  and  S1_11
REMARK    3  A    between atoms: S1_11  and  C6_12
REMARK    4  A    between atoms: S1_11  and  C10_18
REMARK    5  A    between atoms: C6_12  and  C7_13
REMARK    6  A    between atoms: C7_13  and  N3_14
REMARK    7  A    between atoms: N4_24  and  O3_25
ROOT
HETATM    1  S1  UNL     1      15.310 -11.204  20.183  1.00  0.00    -0.161 SA
ENDROOT
BRANCH   1   2
HETATM    2  C5  UNL     1      14.112 -10.172  20.658  1.00  0.00     0.116 C
BRANCH   2   3
HETATM    3  C4  UNL     1      13.151 -10.671  21.682  1.00  0.00     0.044 A
HETATM    4  C2  UNL     1      12.277 -11.673  21.727  1.00  0.00     0.034 A
HETATM    5  C1  UNL     1      12.421 -12.991  21.001  1.00  0.00     0.070 C
HETATM    6  N1  UNL     1      11.283 -11.467  22.616  1.00  0.00    -0.302 N
HETATM    7  N2  UNL     1      11.528 -10.298  23.178  1.00  0.00    -0.266 N
ATOM      8  H1  UNL     1      10.500 -12.090  22.815  1.00  0.00     0.186 HD
HETATM    9  C3  UNL     1      12.662  -9.732  22.666  1.00  0.00     0.268 A
ATOM     10  H2  UNL     1      10.946  -9.873  23.901  1.00  0.00     0.190 HD
HETATM   11  O1  UNL     1      13.143  -8.668  22.972  1.00  0.00    -0.266 OA
ENDBRANCH   2   3
ENDBRANCH   1   2
BRANCH   1  12
HETATM   12  C6  UNL     1      15.136 -12.003  18.557  1.00  0.00     0.106 C
BRANCH  12  13
HETATM   13  C7  UNL     1      16.328 -11.537  17.732  1.00  0.00     0.320 C
BRANCH  13  14
HETATM   14  N3  UNL     1      15.926 -11.055  16.445  1.00  0.00     0.006 N
HETATM   15  C8  UNL     1      16.760 -10.239  15.673  1.00  0.00     0.355 C
HETATM   16  C9  UNL     1      15.752 -12.315  15.634  1.00  0.00     0.355 C
HETATM   17  O2  UNL     1      14.671 -10.486  16.452  1.00  0.00    -0.065 OA
ENDBRANCH  13  14
ENDBRANCH  12  13
ENDBRANCH   1  12
BRANCH   1  18
HETATM   18  C10 UNL     1      16.690 -11.693  20.951  1.00  0.00     0.089 A
HETATM   19  C11 UNL     1      17.984 -11.334  20.517  1.00  0.00     0.040 A
HETATM   20  C12 UNL     1      19.129 -11.781  21.073  1.00  0.00     0.023 A
HETATM   21  C13 UNL     1      19.075 -12.650  22.139  1.00  0.00     0.029 A
HETATM   22 BR1  UNL     1      20.679 -13.350  22.934  1.00  0.00    -0.050 Br
HETATM   23  C14 UNL     1      17.839 -13.010  22.578  1.00  0.00     0.143 A
HETATM   24  N4  UNL     1      16.708 -12.538  21.988  1.00  0.00    -0.229 N
BRANCH  24  25
HETATM   25  O3  UNL     1      15.521 -13.017  22.508  1.00  0.00    -0.282 OA
ATOM     26  H3  UNL     1      15.209 -13.880  22.262  1.00  0.00     0.245 HD
ENDBRANCH  24  25
ENDBRANCH   1  18
TORSDOF 7
ENDMDL