MODEL 5
REMARK VINA RESULT: -7.400872785      2.286      3.598
REMARK  7 active torsions:
REMARK  status: ('A' for Active; 'I' for Inactive)
REMARK    1  A    between atoms: C4_9  and  C5_10
REMARK    2  A    between atoms: C5_10  and  C6_11
REMARK    3  A    between atoms: N3_17  and  C11_18
REMARK    4  A    between atoms: C11_18  and  C12_19
REMARK    5  A    between atoms: C12_19  and  C13_20
REMARK    6  A    between atoms: C13_20  and  C14_21
REMARK    7  A    between atoms: C14_21  and  S1_22
ROOT
HETATM    1  C6  UNL     1      13.206 -12.719  21.432  1.00  0.00    -0.019 A
HETATM    2  C7  UNL     1      12.785 -14.053  21.374  1.00  0.00     0.022 A
HETATM    3  C8  UNL     1      13.640 -15.108  21.169  1.00  0.00    -0.027 A
HETATM    4  C9  UNL     1      13.170 -16.518  21.110  1.00  0.00     0.051 C
HETATM    5  C10 UNL     1      14.999 -14.805  21.014  1.00  0.00     0.087 A
HETATM    6 BR1  UNL     1      16.185 -16.262  20.729  1.00  0.00    -0.030 Br
HETATM    7  N3  UNL     1      15.432 -13.535  21.066  1.00  0.00    -0.350 N
HETATM    8  C16 UNL     1      14.580 -12.519  21.267  1.00  0.00     0.103 A
ENDROOT
BRANCH   1   9
HETATM    9  C5  UNL     1      12.270 -11.655  21.610  1.00  0.00     0.032 C
BRANCH   9  10
HETATM   10  C4  UNL     1      12.329 -10.582  22.354  1.00  0.00     0.061 A
HETATM   11  C2  UNL     1      13.005  -9.412  22.140  1.00  0.00     0.054 A
HETATM   12  C1  UNL     1      13.773  -9.016  21.167  1.00  0.00     0.045 C
HETATM   13  N1  UNL     1      12.731  -8.613  23.225  1.00  0.00    -0.298 N
HETATM   14  N2  UNL     1      11.939  -9.240  24.057  1.00  0.00    -0.265 N
ATOM     15  H1  UNL     1      13.092  -7.670  23.362  1.00  0.00     0.187 HD
HETATM   16  C3  UNL     1      11.662 -10.443  23.577  1.00  0.00     0.272 A
ATOM     17  H2  UNL     1      11.589  -8.861  24.937  1.00  0.00     0.190 HD
HETATM   18  O1  UNL     1      10.928 -11.306  24.127  1.00  0.00    -0.266 OA
ENDBRANCH   9  10
ENDBRANCH   1   9
BRANCH   7  19
HETATM   19  C11 UNL     1      16.832 -13.272  20.901  1.00  0.00     0.129 C
BRANCH  19  20
HETATM   20  C12 UNL     1      17.400 -12.464  22.070  1.00  0.00     0.021 C
BRANCH  20  21
HETATM   21  C13 UNL     1      17.783 -13.478  23.112  1.00  0.00     0.016 C
BRANCH  21  22
HETATM   22  C14 UNL     1      18.941 -14.343  22.801  1.00  0.00     0.140 C
BRANCH  22  23
HETATM   23  S1  UNL     1      20.516 -13.650  23.189  1.00  0.00     0.140 S
HETATM   24  C15 UNL     1      20.389 -12.693  24.683  1.00  0.00     0.161 C
HETATM   25  O2  UNL     1      21.473 -14.809  23.433  1.00  0.00    -0.228 OA
HETATM   26  O3  UNL     1      20.997 -12.816  22.073  1.00  0.00    -0.228 OA
ENDBRANCH  22  23
ENDBRANCH  21  22
ENDBRANCH  20  21
ENDBRANCH  19  20
ENDBRANCH   7  19
TORSDOF 7
ENDMDL