MODEL 3
REMARK VINA RESULT: -6.530368023      3.200      4.096
REMARK  7 active torsions:
REMARK  status: ('A' for Active; 'I' for Inactive)
REMARK       I    between atoms: C2_2  and  N1_4
REMARK    1  A    between atoms: N1_4  and  C3_5
REMARK       I    between atoms: N1_4  and  C12_16
REMARK    2  A    between atoms: C3_5  and  C4_6
REMARK    3  A    between atoms: C4_6  and  N2_7
REMARK    4  A    between atoms: N2_7  and  C7_10
REMARK    5  A    between atoms: C7_10  and  C8_11
REMARK    6  A    between atoms: C8_11  and  N3_12
REMARK       I    between atoms: C12_16  and  N4_18
REMARK    7  A    between atoms: N4_18  and  C13_20
ROOT
HETATM    1  C1  UNL     1      18.613 -11.201  20.571  1.00  0.00     0.117 C
HETATM    2  C2  UNL     1      17.179 -11.432  20.296  1.00  0.00     0.223 C
HETATM    3  O1  UNL     1      16.685 -10.930  19.267  1.00  0.00    -0.273 OA
HETATM    4  N1  UNL     1      16.363 -12.200  21.156  1.00  0.00    -0.268 N
HETATM    5  C12 UNL     1      14.998 -12.376  20.829  1.00  0.00     0.343 C
HETATM    6  O2  UNL     1      14.552 -11.844  19.787  1.00  0.00    -0.246 OA
HETATM    7  N4  UNL     1      14.107 -13.132  21.634  1.00  0.00    -0.141 N
ATOM      8  H4  UNL     1      14.002 -12.887  22.618  1.00  0.00     0.189 HD
ENDROOT
BRANCH   4   9
HETATM    9  C3  UNL     1      16.934 -12.803  22.375  1.00  0.00     0.164 C
BRANCH   9  10
HETATM   10  C4  UNL     1      17.383 -14.197  22.135  1.00  0.00     0.257 C
BRANCH  10  11
HETATM   11  N2  UNL     1      18.690 -14.518  22.604  1.00  0.00    -0.072 N
HETATM   12  C5  UNL     1      19.672 -14.630  21.542  1.00  0.00     0.272 C
HETATM   13  C6  UNL     1      18.646 -15.823  23.245  1.00  0.00     0.272 C
BRANCH  11  14
HETATM   14  C7  UNL     1      19.145 -13.569  23.604  1.00  0.00     0.264 C
BRANCH  14  15
HETATM   15  C8  UNL     1      20.583 -13.213  23.436  1.00  0.00     0.264 C
BRANCH  15  16
HETATM   16  N3  UNL     1      21.303 -13.156  24.692  1.00  0.00    -0.077 N
HETATM   17  C9  UNL     1      22.698 -12.908  24.374  1.00  0.00     0.271 C
HETATM   18  C10 UNL     1      20.859 -12.048  25.520  1.00  0.00     0.271 C
HETATM   19  C11 UNL     1      21.230 -14.376  25.447  1.00  0.00     0.271 C
ENDBRANCH  15  16
ENDBRANCH  14  15
ENDBRANCH  11  14
ENDBRANCH  10  11
ENDBRANCH   9  10
ENDBRANCH   4   9
BRANCH   7  20
HETATM   20  C13 UNL     1      13.419 -14.125  21.156  1.00  0.00     0.687 A
HETATM   21  N5  UNL     1      13.131 -15.297  21.762  1.00  0.00    -0.199 N
HETATM   22  C14 UNL     1      12.393 -16.075  20.946  1.00  0.00     0.144 A
ATOM     23  H5  UNL     1      13.429 -15.556  22.702  1.00  0.00     0.183 HD
HETATM   24  C15 UNL     1      12.213 -15.368  19.792  1.00  0.00     0.112 A
HETATM   25 BR1  UNL     1      11.226 -16.026  18.289  1.00  0.00    -0.029 Br
HETATM   26  N6  UNL     1      12.842 -14.195  19.943  1.00  0.00    -0.183 N
ATOM     27  H6  UNL     1      12.878 -13.460  19.238  1.00  0.00     0.185 HD
ENDBRANCH   7  20
TORSDOF 7
ENDMDL