MODEL 4
REMARK VINA RESULT: -6.793908443      2.661      7.350
REMARK  7 active torsions:
REMARK  status: ('A' for Active; 'I' for Inactive)
REMARK    1  A    between atoms: C3_3  and  O1_4
REMARK    2  A    between atoms: O1_4  and  C4_5
REMARK    3  A    between atoms: C7_8  and  C8_9
REMARK    4  A    between atoms: C9_12  and  C10_13
REMARK    5  A    between atoms: C10_13  and  C11_14
REMARK    6  A    between atoms: C11_14  and  N2_15
REMARK    7  A    between atoms: C17_23  and  O2_24
ROOT
HETATM    1  C1  UNL     1      12.428  -6.790  24.678  1.00  0.00     0.014 C
HETATM    2  C2  UNL     1      11.997  -7.875  24.348  1.00  0.00    -0.091 C
HETATM    3  C3  UNL     1      11.497  -9.182  23.934  1.00  0.00     0.270 C
ENDROOT
BRANCH   3   4
HETATM    4  O1  UNL     1      11.682  -9.370  22.538  1.00  0.00    -0.324 OA
BRANCH   4   5
HETATM    5  C4  UNL     1      12.439 -10.460  22.104  1.00  0.00     0.146 A
HETATM    6  C5  UNL     1      12.064 -11.760  22.389  1.00  0.00     0.057 A
HETATM    7  C6  UNL     1      12.867 -12.775  21.923  1.00  0.00     0.022 A
HETATM    8  C7  UNL     1      14.037 -12.553  21.179  1.00  0.00     0.045 A
HETATM    9  C17 UNL     1      14.329 -11.246  20.948  1.00  0.00     0.156 A
HETATM   10  N4  UNL     1      13.547 -10.212  21.400  1.00  0.00    -0.312 N
HETATM   11  C18 UNL     1      13.931  -8.845  21.107  1.00  0.00     0.160 C
BRANCH   8  12
HETATM   12  C8  UNL     1      14.813 -13.725  20.812  1.00  0.00     0.082 A
HETATM   13  N1  UNL     1      16.053 -13.977  21.364  1.00  0.00    -0.343 N
HETATM   14  C9  UNL     1      16.552 -15.125  20.934  1.00  0.00     0.086 A
ATOM     15  H1  UNL     1      16.526 -13.356  22.021  1.00  0.00     0.167 HD
HETATM   16  N3  UNL     1      15.665 -15.652  20.100  1.00  0.00    -0.333 N
HETATM   17  C15 UNL     1      15.742 -16.900  19.367  1.00  0.00     0.158 C
HETATM   18  C16 UNL     1      14.592 -14.806  20.016  1.00  0.00     0.111 A
HETATM   19 BR1  UNL     1      13.035 -15.192  18.991  1.00  0.00    -0.029 Br
BRANCH  14  20
HETATM   20  C10 UNL     1      17.873 -15.755  21.297  1.00  0.00     0.104 C
BRANCH  20  21
HETATM   21  C11 UNL     1      18.295 -15.284  22.672  1.00  0.00     0.243 C
BRANCH  21  22
HETATM   22  N2  UNL     1      19.459 -14.459  22.648  1.00  0.00    -0.078 N
HETATM   23  C12 UNL     1      20.563 -15.037  23.396  1.00  0.00     0.271 C
HETATM   24  C13 UNL     1      19.901 -14.157  21.292  1.00  0.00     0.271 C
HETATM   25  C14 UNL     1      19.128 -13.195  23.281  1.00  0.00     0.271 C
ENDBRANCH  21  22
ENDBRANCH  20  21
ENDBRANCH  14  20
ENDBRANCH   8  12
BRANCH   9  26
HETATM   26  O2  UNL     1      15.447 -10.885  20.243  1.00  0.00    -0.345 OA
ATOM     27  H2  UNL     1      15.384 -10.582  19.345  1.00  0.00     0.219 HD
ENDBRANCH   9  26
ENDBRANCH   4   5
ENDBRANCH   3   4
TORSDOF 7
ENDMDL