MODEL 2
REMARK VINA RESULT: -6.579805161      2.153      2.779
REMARK  7 active torsions:
REMARK  status: ('A' for Active; 'I' for Inactive)
REMARK    1  A    between atoms: C3_3  and  C4_4
REMARK    2  A    between atoms: C5_5  and  C6_6
REMARK    3  A    between atoms: C6_6  and  N1_7
REMARK    4  A    between atoms: N1_7  and  C7_8
REMARK    5  A    between atoms: C7_8  and  C8_9
REMARK    6  A    between atoms: C8_9  and  C9_10
REMARK    7  A    between atoms: C9_10  and  N2_11
ROOT
HETATM    1  C1  UNL     1      12.059  -7.531  24.641  1.00  0.00     0.113 C
HETATM    2  C2  UNL     1      12.457  -8.400  23.527  1.00  0.00    -0.097 C
HETATM    3  C3  UNL     1      12.789  -9.100  22.595  1.00  0.00    -0.015 C
ENDROOT
BRANCH   3   4
HETATM    4  C4  UNL     1      13.173  -9.905  21.486  1.00  0.00    -0.013 C
HETATM    5  C5  UNL     1      13.497 -10.575  20.530  1.00  0.00    -0.064 C
BRANCH   5   6
HETATM    6  C6  UNL     1      13.869 -11.389  19.361  1.00  0.00     0.334 C
BRANCH   6   7
HETATM    7  N1  UNL     1      15.165 -12.047  19.700  1.00  0.00    -0.036 N
HETATM    8  C13 UNL     1      15.651 -12.731  18.507  1.00  0.00     0.361 C
HETATM    9  N3  UNL     1      14.517 -13.641  18.282  1.00  0.00    -0.368 N
HETATM   10  C14 UNL     1      14.022 -14.002  19.568  1.00  0.00     0.045 C
ATOM     11  H3  UNL     1      14.155 -13.953  17.381  1.00  0.00     0.161 HD
HETATM   12  C15 UNL     1      13.118 -14.903  19.835  1.00  0.00     0.009 C
HETATM   13  C17 UNL     1      14.765 -13.119  20.545  1.00  0.00     0.298 C
HETATM   14  C16 UNL     1      12.744 -15.123  21.259  1.00  0.00     0.059 C
HETATM   15 BR1  UNL     1      12.329 -15.883  18.423  1.00  0.00    -0.054 Br
BRANCH   7  16
HETATM   16  C7  UNL     1      15.993 -11.043  20.212  1.00  0.00     0.242 C
BRANCH  16  17
HETATM   17  C8  UNL     1      17.008 -11.316  21.231  1.00  0.00     0.058 C
BRANCH  17  18
HETATM   18  C9  UNL     1      18.377 -11.716  20.772  1.00  0.00     0.275 C
BRANCH  18  19
HETATM   19  N2  UNL     1      18.616 -13.035  21.404  1.00  0.00     0.100 N
HETATM   20  C10 UNL     1      19.993 -13.006  21.830  1.00  0.00     0.286 C
HETATM   21  C11 UNL     1      20.217 -14.235  22.687  1.00  0.00     0.141 C
HETATM   22  S1  UNL     1      18.695 -14.192  23.652  1.00  0.00     0.045 S
HETATM   23  O1  UNL     1      19.049 -13.350  25.065  1.00  0.00    -0.256 OA
HETATM   24  C12 UNL     1      17.789 -13.058  22.589  1.00  0.00     0.380 C
ENDBRANCH  18  19
ENDBRANCH  17  18
ENDBRANCH  16  17
ENDBRANCH   7  16
ENDBRANCH   6   7
ENDBRANCH   5   6
ENDBRANCH   3   4
TORSDOF 7
ENDMDL