MODEL 5
REMARK VINA RESULT: -6.534611778      3.795      7.459
REMARK  8 active torsions:
REMARK  status: ('A' for Active; 'I' for Inactive)
REMARK    1  A    between atoms: C2_2  and  N1_3
REMARK       I    between atoms: N1_3  and  C3_4
REMARK    2  A    between atoms: N1_3  and  C5_7
REMARK    3  A    between atoms: C5_7  and  N2_9
REMARK    4  A    between atoms: N2_9  and  N3_11
REMARK    5  A    between atoms: N5_17  and  C8_18
REMARK    6  A    between atoms: C8_18  and  C9_19
REMARK    7  A    between atoms: C9_19  and  C10_20
REMARK    8  A    between atoms: C10_20  and  C11_21
ROOT
HETATM    1  N3  UNL     1      15.662 -11.975  21.998  1.00  0.00    -0.130 N
ATOM      2  H3  UNL     1      14.901 -12.384  22.540  1.00  0.00     0.205 HD
HETATM    3  C6  UNL     1      16.725 -12.607  22.151  1.00  0.00     0.701 A
HETATM    4  N4  UNL     1      16.693 -13.695  22.983  1.00  0.00    -0.186 N
ATOM      5  H4  UNL     1      15.815 -13.944  23.439  1.00  0.00     0.185 HD
HETATM    6  C7  UNL     1      17.773 -14.439  23.215  1.00  0.00     0.202 A
HETATM    7  N5  UNL     1      18.967 -14.158  22.638  1.00  0.00    -0.332 N
HETATM    8  C12 UNL     1      19.038 -13.114  21.827  1.00  0.00     0.098 A
HETATM    9  C13 UNL     1      20.305 -12.755  21.145  1.00  0.00     0.090 C
HETATM   10  N6  UNL     1      17.930 -12.354  21.592  1.00  0.00    -0.175 N
HETATM   11  C14 UNL     1      18.055 -11.212  20.701  1.00  0.00     0.177 C
ENDROOT
BRANCH   1  12
HETATM   12  N2  UNL     1      15.248 -10.884  21.300  1.00  0.00    -0.262 N
ATOM     13  H2  UNL     1      15.946 -10.384  20.749  1.00  0.00     0.190 HD
BRANCH  12  14
HETATM   14  C5  UNL     1      13.926 -10.393  21.283  1.00  0.00     0.196 C
HETATM   15  S1  UNL     1      13.555  -9.409  20.002  1.00  0.00    -0.039 SA
BRANCH  14  16
HETATM   16  N1  UNL     1      12.905 -10.641  22.217  1.00  0.00    -0.294 N
HETATM   17  C3  UNL     1      12.405  -9.732  23.185  1.00  0.00     0.222 C
HETATM   18  C4  UNL     1      11.302 -10.190  24.104  1.00  0.00     0.117 C
HETATM   19  O1  UNL     1      12.811  -8.556  23.345  1.00  0.00    -0.273 OA
BRANCH  16  20
HETATM   20  C2  UNL     1      12.254 -11.982  22.226  1.00  0.00     0.130 C
HETATM   21  C1  UNL     1      12.433 -12.697  20.927  1.00  0.00     0.027 C
ENDBRANCH  16  20
ENDBRANCH  14  16
ENDBRANCH  12  14
ENDBRANCH   1  12
BRANCH   7  22
HETATM   22  C8  UNL     1      20.077 -15.014  22.968  1.00  0.00     0.131 C
BRANCH  22  23
HETATM   23  C9  UNL     1      20.608 -14.745  24.363  1.00  0.00     0.021 C
BRANCH  23  24
HETATM   24  C10 UNL     1      22.005 -14.174  24.288  1.00  0.00     0.012 C
BRANCH  24  25
HETATM   25  C11 UNL     1      22.055 -12.732  24.695  1.00  0.00     0.085 C
HETATM   26 BR1  UNL     1      20.691 -12.354  26.021  1.00  0.00    -0.097 Br
ENDBRANCH  24  25
ENDBRANCH  23  24
ENDBRANCH  22  23
ENDBRANCH   7  22
TORSDOF 8
ENDMDL