MODEL 3
REMARK VINA RESULT: -6.739065680      4.158      6.886
REMARK  7 active torsions:
REMARK  status: ('A' for Active; 'I' for Inactive)
REMARK       I    between atoms: N1_2  and  C2_4
REMARK       I    between atoms: C2_4  and  N2_6
REMARK    1  A    between atoms: N2_6  and  C3_7
REMARK    2  A    between atoms: C8_12  and  C9_13
REMARK    3  A    between atoms: C9_13  and  C10_14
REMARK    4  A    between atoms: C10_14  and  C11_15
REMARK    5  A    between atoms: C11_15  and  C12_17
REMARK    6  A    between atoms: C12_17  and  N3_18
REMARK    7  A    between atoms: C12_17  and  O2_22
ROOT
HETATM    1  C1  UNL     1      13.402 -17.580  17.403  1.00  0.00     0.151 C
HETATM    2  N1  UNL     1      13.384 -16.802  18.611  1.00  0.00    -0.341 N
ATOM      3  H1  UNL     1      12.496 -16.446  18.967  1.00  0.00     0.163 HD
HETATM    4  C2  UNL     1      14.556 -16.530  19.301  1.00  0.00     0.415 C
HETATM    5  O1  UNL     1      15.652 -16.994  18.823  1.00  0.00    -0.239 OA
HETATM    6  N2  UNL     1      14.715 -15.782  20.505  1.00  0.00     0.019 N
HETATM    7  C6  UNL     1      13.477 -15.392  21.069  1.00  0.00     0.251 C
HETATM    8  C7  UNL     1      12.923 -14.102  20.512  1.00  0.00     0.040 C
HETATM    9  C8  UNL     1      13.820 -12.931  20.733  1.00  0.00    -0.007 C
HETATM   10  C13 UNL     1      13.999 -12.073  19.499  1.00  0.00     0.039 C
HETATM   11  C14 UNL     1      15.331 -11.397  19.804  1.00  0.00     0.238 C
HETATM   12  N4  UNL     1      16.111 -12.349  20.556  1.00  0.00    -0.068 N
HETATM   13  C15 UNL     1      17.192 -12.794  19.695  1.00  0.00     0.272 C
HETATM   14  C16 UNL     1      16.770 -11.719  21.712  1.00  0.00     0.272 C
HETATM   15  C17 UNL     1      15.236 -13.413  20.964  1.00  0.00     0.224 C
HETATM   16  C18 UNL     1      15.495 -14.596  20.113  1.00  0.00     0.284 C
ENDROOT
BRANCH   9  17
HETATM   17  C9  UNL     1      13.420 -12.048  21.865  1.00  0.00     0.013 C
BRANCH  17  18
HETATM   18  C10 UNL     1      11.971 -11.683  21.908  1.00  0.00     0.021 C
BRANCH  18  19
HETATM   19  C11 UNL     1      11.785 -10.287  22.510  1.00  0.00     0.114 C
HETATM   20 BR1  UNL     1      13.282  -9.146  22.158  1.00  0.00    -0.087 Br
BRANCH  19  21
HETATM   21  C12 UNL     1      11.507 -10.346  23.975  1.00  0.00     0.330 C
BRANCH  21  22
HETATM   22  N3  UNL     1      11.104  -9.019  24.402  1.00  0.00    -0.052 N
ATOM     23  H33 UNL     1      10.361  -9.036  25.101  1.00  0.00     0.277 HD
ATOM     24  H32 UNL     1      11.812  -8.553  24.968  1.00  0.00     0.277 HD
ATOM     25  H31 UNL     1      10.850  -8.489  23.568  1.00  0.00     0.277 HD
ENDBRANCH  21  22
BRANCH  21  26
HETATM   26  O2  UNL     1      10.544 -11.276  24.320  1.00  0.00    -0.369 OA
ATOM     27  H2  UNL     1      10.040 -11.036  25.088  1.00  0.00     0.212 HD
ENDBRANCH  21  26
ENDBRANCH  19  21
ENDBRANCH  18  19
ENDBRANCH  17  18
ENDBRANCH   9  17
BRANCH   6  28
HETATM   28  C3  UNL     1      15.523 -16.633  21.334  1.00  0.00     0.194 C
HETATM   29  C4  UNL     1      14.665 -17.325  22.373  1.00  0.00     0.041 C
HETATM   30  C5  UNL     1      16.678 -16.019  22.008  1.00  0.00     0.041 C
ENDBRANCH   6  28
TORSDOF 7
ENDMDL