MODEL 1
REMARK VINA RESULT: -6.991345046      0.000      0.000
REMARK  14 active torsions:
REMARK  status: ('A' for Active; 'I' for Inactive)
REMARK    1  A    between atoms: O1_2  and  C2_3
REMARK    2  A    between atoms: C2_3  and  C3_5
REMARK    3  A    between atoms: C5_10  and  S1_11
REMARK    4  A    between atoms: S1_11  and  C6_12
REMARK    5  A    between atoms: C6_12  and  C7_13
REMARK    6  A    between atoms: C7_13  and  C8_14
REMARK    7  A    between atoms: C8_14  and  S2_15
REMARK    8  A    between atoms: S2_15  and  C9_16
REMARK    9  A    between atoms: C9_16  and  C10_17
REMARK   10  A    between atoms: C12_19  and  O3_20
REMARK   11  A    between atoms: C13_22  and  O4_23
REMARK   12  A    between atoms: C14_25  and  O5_26
REMARK   13  A    between atoms: O5_26  and  C15_27
REMARK   14  A    between atoms: C19_31  and  O6_32
ROOT
HETATM    1  S2  UNL     1      33.688 -41.443  -3.216  1.00  0.00    -0.169 SA
ENDROOT
BRANCH   1   2
HETATM    2  C8  UNL     1      32.277 -42.386  -2.806  1.00  0.00     0.074 C
BRANCH   2   3
HETATM    3  C7  UNL     1      32.443 -43.862  -3.005  1.00  0.00     0.020 C
BRANCH   3   4
HETATM    4  C6  UNL     1      33.574 -44.488  -2.275  1.00  0.00     0.077 C
BRANCH   4   5
HETATM    5  S1  UNL     1      33.586 -46.263  -2.762  1.00  0.00    -0.135 SA
BRANCH   5   6
HETATM    6  C5  UNL     1      33.969 -47.291  -1.313  1.00  0.00     0.275 C
HETATM    7  C4  UNL     1      35.015 -46.557  -0.514  1.00  0.00     0.279 C
HETATM    8  N1  UNL     1      36.243 -46.920  -1.239  1.00  0.00    -0.034 N
HETATM    9  C3  UNL     1      36.034 -48.319  -1.581  1.00  0.00     0.481 C
ATOM     10  H12 UNL     1      37.106 -46.734  -0.728  1.00  0.00     0.280 HD
ATOM     11  H11 UNL     1      36.458 -46.318  -2.034  1.00  0.00     0.280 HD
HETATM   12  N2  UNL     1      34.628 -48.503  -1.723  1.00  0.00    -0.022 N
ATOM     13  H22 UNL     1      34.364 -48.794  -2.664  1.00  0.00     0.281 HD
ATOM     14  H21 UNL     1      34.288 -49.324  -1.223  1.00  0.00     0.281 HD
BRANCH   9  15
HETATM   15  C2  UNL     1      36.745 -48.683  -2.831  1.00  0.00     0.317 C
HETATM   16  O2  UNL     1      36.348 -49.647  -3.545  1.00  0.00    -0.261 OA
BRANCH  15  17
HETATM   17  O1  UNL     1      37.861 -47.986  -3.256  1.00  0.00    -0.323 OA
HETATM   18  C1  UNL     1      38.635 -48.397  -4.347  1.00  0.00     0.213 C
ENDBRANCH  15  17
ENDBRANCH   9  15
ENDBRANCH   5   6
ENDBRANCH   4   5
ENDBRANCH   3   4
ENDBRANCH   2   3
ENDBRANCH   1   2
BRANCH   1  19
HETATM   19  C9  UNL     1      34.755 -42.040  -4.470  1.00  0.00     0.081 C
BRANCH  19  20
HETATM   20  C10 UNL     1      34.609 -41.263  -5.778  1.00  0.00     0.029 C
HETATM   21  C11 UNL     1      33.214 -40.925  -6.152  1.00  0.00     0.042 C
HETATM   22  C12 UNL     1      33.119 -40.690  -7.651  1.00  0.00     0.150 C
HETATM   23  C13 UNL     1      34.458 -40.264  -8.205  1.00  0.00     0.178 C
HETATM   24  C14 UNL     1      35.439 -41.406  -8.160  1.00  0.00     0.182 C
HETATM   25  C19 UNL     1      35.258 -42.112  -6.849  1.00  0.00     0.154 C
BRANCH  22  26
HETATM   26  O3  UNL     1      32.663 -41.828  -8.268  1.00  0.00    -0.393 OA
ATOM     27  H3  UNL     1      33.381 -42.253  -8.724  1.00  0.00     0.210 HD
ENDBRANCH  22  26
BRANCH  23  28
HETATM   28  O4  UNL     1      34.267 -39.835  -9.520  1.00  0.00    -0.390 OA
ATOM     29  H4  UNL     1      33.912 -40.562 -10.018  1.00  0.00     0.210 HD
ENDBRANCH  23  28
BRANCH  24  30
HETATM   30  O5  UNL     1      36.704 -40.857  -8.170  1.00  0.00    -0.371 OA
BRANCH  30  31
HETATM   31  C15 UNL     1      37.544 -41.223  -9.168  1.00  0.00     0.051 C
HETATM   32  C16 UNL     1      37.046 -42.593  -9.663  1.00  0.00     0.045 C
HETATM   33  C17 UNL     1      38.984 -41.446  -8.773  1.00  0.00     0.045 C
HETATM   34  C18 UNL     1      37.489 -40.327 -10.387  1.00  0.00     0.045 C
ENDBRANCH  30  31
ENDBRANCH  24  30
BRANCH  25  35
HETATM   35  O6  UNL     1      34.613 -43.336  -6.932  1.00  0.00    -0.392 OA
ATOM     36  H6  UNL     1      35.231 -44.008  -7.195  1.00  0.00     0.210 HD
ENDBRANCH  25  35
ENDBRANCH  19  20
ENDBRANCH   1  19
TORSDOF 14
ENDMDL