MODEL 5
REMARK VINA RESULT: -8.157190757      2.127      3.198
REMARK  14 active torsions:
REMARK  status: ('A' for Active; 'I' for Inactive)
REMARK    1  A    between atoms: O1_1  and  C1_3
REMARK    2  A    between atoms: C1_3  and  C2_4
REMARK    3  A    between atoms: C3_5  and  C4_6
REMARK    4  A    between atoms: C4_6  and  O2_7
REMARK    5  A    between atoms: O2_7  and  C5_8
REMARK    6  A    between atoms: N1_11  and  C8_12
REMARK    7  A    between atoms: C8_12  and  C9_13
REMARK    8  A    between atoms: C12_17  and  O3_18
REMARK    9  A    between atoms: O3_18  and  C13_19
REMARK   10  A    between atoms: C14_21  and  C15_22
REMARK   11  A    between atoms: C15_22  and  O5_23
REMARK   12  A    between atoms: C16_25  and  O6_26
REMARK   13  A    between atoms: C17_28  and  O7_29
REMARK   14  A    between atoms: C18_31  and  O8_32
ROOT
HETATM    1  C9  UNL     1      34.005 -40.830  -7.828  1.00  0.00     0.092 A
HETATM    2  C10 UNL     1      32.622 -40.819  -7.885  1.00  0.00     0.064 A
HETATM    3  C11 UNL     1      31.914 -40.991  -6.723  1.00  0.00     0.069 A
HETATM    4  S1  UNL     1      30.268 -40.990  -6.703  1.00  0.00    -0.077 SA
HETATM    5  C12 UNL     1      32.591 -41.169  -5.526  1.00  0.00     0.115 A
HETATM    6  C19 UNL     1      33.962 -41.168  -5.545  1.00  0.00     0.181 A
HETATM    7  O9  UNL     1      34.621 -40.999  -6.691  1.00  0.00    -0.319 OA
ENDROOT
BRANCH   5   8
HETATM    8  O3  UNL     1      31.853 -41.336  -4.396  1.00  0.00    -0.314 OA
BRANCH   8   9
HETATM    9  C13 UNL     1      32.162 -42.178  -3.328  1.00  0.00     0.298 C
HETATM   10  O4  UNL     1      32.536 -43.413  -3.875  1.00  0.00    -0.348 OA
HETATM   11  C14 UNL     1      32.916 -44.308  -2.871  1.00  0.00     0.179 C
HETATM   12  C16 UNL     1      34.194 -43.794  -2.251  1.00  0.00     0.180 C
HETATM   13  C17 UNL     1      33.876 -42.485  -1.566  1.00  0.00     0.183 C
HETATM   14  C18 UNL     1      33.370 -41.537  -2.625  1.00  0.00     0.205 C
BRANCH  11  15
HETATM   15  C15 UNL     1      33.186 -45.642  -3.531  1.00  0.00     0.198 C
BRANCH  15  16
HETATM   16  O5  UNL     1      34.483 -45.738  -3.989  1.00  0.00    -0.398 OA
ATOM     17  H5  UNL     1      34.545 -46.270  -4.773  1.00  0.00     0.209 HD
ENDBRANCH  15  16
ENDBRANCH  11  15
BRANCH  12  18
HETATM   18  O6  UNL     1      34.645 -44.687  -1.291  1.00  0.00    -0.390 OA
ATOM     19  H6  UNL     1      34.660 -44.267  -0.439  1.00  0.00     0.210 HD
ENDBRANCH  12  18
BRANCH  13  20
HETATM   20  O7  UNL     1      34.960 -41.908  -0.950  1.00  0.00    -0.390 OA
ATOM     21  H7  UNL     1      35.235 -42.359  -0.160  1.00  0.00     0.210 HD
ENDBRANCH  13  20
BRANCH  14  22
HETATM   22  O8  UNL     1      32.924 -40.357  -2.068  1.00  0.00    -0.388 OA
ATOM     23  H8  UNL     1      32.720 -40.544  -1.160  1.00  0.00     0.210 HD
ENDBRANCH  14  22
ENDBRANCH   8   9
ENDBRANCH   5   8
BRANCH   1  24
HETATM   24  C8  UNL     1      34.743 -40.642  -9.103  1.00  0.00     0.127 C
BRANCH  24  25
HETATM   25  N1  UNL     1      36.123 -40.888  -8.970  1.00  0.00    -0.367 N
HETATM   26  C7  UNL     1      36.555 -42.156  -8.572  1.00  0.00     0.130 C
HETATM   27  C6  UNL     1      37.832 -42.625  -9.275  1.00  0.00     0.052 C
HETATM   28  C5  UNL     1      38.848 -41.528  -9.019  1.00  0.00     0.128 C
HETATM   29  C21 UNL     1      38.375 -40.321  -9.790  1.00  0.00     0.076 C
HETATM   30  C20 UNL     1      37.045 -39.881  -9.240  1.00  0.00     0.066 C
BRANCH  28  31
HETATM   31  O2  UNL     1      40.130 -41.896  -9.295  1.00  0.00    -0.382 OA
BRANCH  31  32
HETATM   32  C4  UNL     1      40.535 -43.102  -8.782  1.00  0.00     0.195 C
BRANCH  32  33
HETATM   33  C3  UNL     1      41.565 -43.758  -9.649  1.00  0.00    -0.003 C
HETATM   34  C2  UNL     1      41.470 -45.029 -10.007  1.00  0.00    -0.003 C
BRANCH  34  35
HETATM   35  C1  UNL     1      42.529 -45.611 -10.870  1.00  0.00     0.191 C
BRANCH  35  36
HETATM   36  O1  UNL     1      42.543 -47.010 -10.711  1.00  0.00    -0.397 OA
ATOM     37  H1  UNL     1      43.003 -47.405 -11.442  1.00  0.00     0.209 HD
ENDBRANCH  35  36
ENDBRANCH  34  35
ENDBRANCH  32  33
ENDBRANCH  31  32
ENDBRANCH  28  31
ENDBRANCH  24  25
ENDBRANCH   1  24
TORSDOF 14
ENDMDL