MODEL 4
REMARK VINA RESULT: -7.227956227      1.747      2.779
REMARK  14 active torsions:
REMARK  status: ('A' for Active; 'I' for Inactive)
REMARK    1  A    between atoms: N2_5  and  C3_6
REMARK    2  A    between atoms: C5_8  and  O1_9
REMARK    3  A    between atoms: C6_11  and  C7_12
REMARK    4  A    between atoms: C7_12  and  O2_13
REMARK    5  A    between atoms: C9_17  and  C10_18
REMARK    6  A    between atoms: C10_18  and  O4_20
REMARK    7  A    between atoms: C10_18  and  C12_22
REMARK    8  A    between atoms: C12_22  and  C13_23
REMARK    9  A    between atoms: C13_23  and  C14_24
REMARK   10  A    between atoms: C14_24  and  S1_25
REMARK   11  A    between atoms: S1_25  and  C15_26
REMARK   12  A    between atoms: C15_26  and  C16_27
REMARK   13  A    between atoms: C19_31  and  O6_32
REMARK   14  A    between atoms: C21_35  and  O7_36
ROOT
HETATM    1  C10 UNL     1      36.077 -42.001  -8.977  1.00  0.00     0.084 C
HETATM    2  C11 UNL     1      35.462 -42.014 -10.385  1.00  0.00     0.051 C
ENDROOT
BRANCH   1   3
HETATM    3  C9  UNL     1      37.527 -42.043  -9.012  1.00  0.00     0.016 A
HETATM    4  C2  UNL     1      38.433 -41.040  -9.290  1.00  0.00     0.033 A
HETATM    5  C1  UNL     1      38.058 -39.667  -9.621  1.00  0.00     0.070 C
HETATM    6  N1  UNL     1      39.677 -41.595  -9.190  1.00  0.00    -0.300 N
HETATM    7  N2  UNL     1      39.588 -42.852  -8.875  1.00  0.00    -0.273 N
ATOM      8  H1  UNL     1      40.552 -41.093  -9.343  1.00  0.00     0.187 HD
HETATM    9  C8  UNL     1      38.287 -43.165  -8.756  1.00  0.00     0.125 A
BRANCH   7  10
HETATM   10  C3  UNL     1      40.768 -43.713  -8.697  1.00  0.00     0.246 C
HETATM   11  C4  UNL     1      40.675 -44.888  -9.644  1.00  0.00     0.089 C
HETATM   12  C5  UNL     1      42.066 -45.045 -10.173  1.00  0.00     0.153 C
HETATM   13  C6  UNL     1      42.834 -44.099  -9.262  1.00  0.00     0.176 C
HETATM   14  O3  UNL     1      41.920 -43.077  -9.065  1.00  0.00    -0.355 OA
BRANCH  12  15
HETATM   15  O1  UNL     1      42.215 -44.584 -11.479  1.00  0.00    -0.393 OA
ATOM     16  H1  UNL     1      41.711 -45.081 -12.112  1.00  0.00     0.210 HD
ENDBRANCH  12  15
BRANCH  13  17
HETATM   17  C7  UNL     1      43.123 -44.871  -7.982  1.00  0.00     0.198 C
BRANCH  17  18
HETATM   18  O2  UNL     1      44.038 -44.170  -7.201  1.00  0.00    -0.398 OA
ATOM     19  H2  UNL     1      43.694 -43.309  -6.994  1.00  0.00     0.209 HD
ENDBRANCH  17  18
ENDBRANCH  13  17
ENDBRANCH   7  10
ENDBRANCH   1   3
BRANCH   1  20
HETATM   20  O4  UNL     1      35.593 -43.149  -8.353  1.00  0.00    -0.385 OA
ATOM     21  H4  UNL     1      34.670 -43.252  -8.551  1.00  0.00     0.211 HD
ENDBRANCH   1  20
BRANCH   1  22
HETATM   22  C12 UNL     1      35.480 -40.834  -8.262  1.00  0.00     0.043 C
BRANCH  22  23
HETATM   23  C13 UNL     1      34.283 -40.361  -9.066  1.00  0.00     0.013 C
BRANCH  23  24
HETATM   24  C14 UNL     1      32.989 -40.921  -8.487  1.00  0.00     0.074 C
BRANCH  24  25
HETATM   25  S1  UNL     1      32.798 -40.534  -6.748  1.00  0.00    -0.166 SA
BRANCH  25  26
HETATM   26  C15 UNL     1      33.825 -41.543  -5.680  1.00  0.00     0.108 C
BRANCH  26  27
HETATM   27  C16 UNL     1      33.405 -41.520  -4.226  1.00  0.00     0.160 C
HETATM   28  O5  UNL     1      32.058 -41.255  -4.197  1.00  0.00    -0.375 OA
HETATM   29  C17 UNL     1      31.250 -42.332  -3.938  1.00  0.00     0.146 C
HETATM   30  C18 UNL     1      29.812 -41.947  -4.128  1.00  0.00     0.042 C
HETATM   31  C19 UNL     1      31.532 -42.716  -2.479  1.00  0.00     0.149 C
HETATM   32  C20 UNL     1      32.926 -43.250  -2.441  1.00  0.00     0.068 C
HETATM   33  C21 UNL     1      33.858 -42.712  -3.465  1.00  0.00     0.150 C
BRANCH  31  34
HETATM   34  O6  UNL     1      31.381 -41.539  -1.749  1.00  0.00    -0.393 OA
ATOM     35  H6  UNL     1      32.146 -41.488  -1.188  1.00  0.00     0.210 HD
ENDBRANCH  31  34
BRANCH  33  36
HETATM   36  O7  UNL     1      35.098 -42.441  -2.840  1.00  0.00    -0.393 OA
ATOM     37  H7  UNL     1      35.794 -42.910  -3.286  1.00  0.00     0.210 HD
ENDBRANCH  33  36
ENDBRANCH  26  27
ENDBRANCH  25  26
ENDBRANCH  24  25
ENDBRANCH  23  24
ENDBRANCH  22  23
ENDBRANCH   1  22
TORSDOF 14
ENDMDL