MODEL 2
REMARK VINA RESULT: -7.246895503      1.823      2.338
REMARK  14 active torsions:
REMARK  status: ('A' for Active; 'I' for Inactive)
REMARK    1  A    between atoms: C4_4  and  C5_5
REMARK    2  A    between atoms: C5_5  and  O1_6
REMARK    3  A    between atoms: O1_6  and  C6_7
REMARK    4  A    between atoms: C6_7  and  C7_8
REMARK    5  A    between atoms: C7_8  and  C8_9
REMARK    6  A    between atoms: C8_9  and  C9_10
REMARK    7  A    between atoms: C9_10  and  O2_11
REMARK    8  A    between atoms: O2_11  and  C10_12
REMARK    9  A    between atoms: C13_17  and  C14_18
REMARK   10  A    between atoms: C14_18  and  O5_19
REMARK   11  A    between atoms: C15_21  and  O6_22
REMARK   12  A    between atoms: C19_27  and  O7_28
REMARK   13  A    between atoms: C20_30  and  O8_31
REMARK   14  A    between atoms: C22_34  and  O9_35
ROOT
HETATM    1  C10 UNL     1      39.216 -41.863  -8.972  1.00  0.00     0.176 C
HETATM    2  C11 UNL     1      40.746 -41.690  -8.993  1.00  0.00     0.206 C
HETATM    3  O3  UNL     1      41.263 -42.844  -8.428  1.00  0.00    -0.350 OA
HETATM    4  C12 UNL     1      41.182 -43.976  -9.205  1.00  0.00     0.200 C
HETATM    5  O4  UNL     1      39.983 -43.812  -9.961  1.00  0.00    -0.342 OA
HETATM    6  C13 UNL     1      39.012 -43.339  -9.045  1.00  0.00     0.179 C
HETATM    7  C15 UNL     1      42.356 -44.205 -10.102  1.00  0.00     0.184 C
HETATM    8  C16 UNL     1      43.314 -45.264  -9.786  1.00  0.00     0.018 C
HETATM    9  C17 UNL     1      44.728 -44.662  -9.710  1.00  0.00     0.012 C
HETATM   10  C18 UNL     1      43.157 -46.061  -8.519  1.00  0.00     0.048 C
HETATM   11  C19 UNL     1      42.271 -45.319  -7.616  1.00  0.00     0.096 A
HETATM   12  C20 UNL     1      40.981 -45.587  -7.091  1.00  0.00     0.165 A
HETATM   13  C21 UNL     1      40.957 -45.237  -8.456  1.00  0.00     0.119 A
ENDROOT
BRANCH   1  14
HETATM   14  O2  UNL     1      38.620 -41.104  -9.951  1.00  0.00    -0.381 OA
BRANCH  14  15
HETATM   15  C9  UNL     1      37.846 -40.086  -9.486  1.00  0.00     0.168 C
BRANCH  15  16
HETATM   16  C8  UNL     1      36.682 -39.713 -10.344  1.00  0.00     0.028 C
BRANCH  16  17
HETATM   17  C7  UNL     1      35.338 -40.026  -9.811  1.00  0.00     0.028 C
BRANCH  17  18
HETATM   18  C6  UNL     1      35.193 -39.976  -8.315  1.00  0.00     0.168 C
BRANCH  18  19
HETATM   19  O1  UNL     1      34.126 -40.810  -7.933  1.00  0.00    -0.386 OA
BRANCH  19  20
HETATM   20  C5  UNL     1      33.153 -40.893  -8.900  1.00  0.00     0.211 C
BRANCH  20  21
HETATM   21  C4  UNL     1      31.838 -40.953  -8.196  1.00  0.00     0.026 A
HETATM   22  C3  UNL     1      31.594 -40.966  -6.832  1.00  0.00     0.046 A
HETATM   23  C2  UNL     1      30.234 -41.026  -6.632  1.00  0.00     0.052 A
HETATM   24  C1  UNL     1      29.489 -41.062  -5.351  1.00  0.00     0.077 C
HETATM   25  O10 UNL     1      29.681 -41.049  -7.811  1.00  0.00    -0.292 OA
HETATM   26  C22 UNL     1      30.571 -41.007  -8.767  1.00  0.00     0.192 A
BRANCH  26  27
HETATM   27  O9  UNL     1      30.295 -41.017 -10.117  1.00  0.00    -0.340 OA
ATOM     28  H9  UNL     1      29.738 -40.398 -10.576  1.00  0.00     0.220 HD
ENDBRANCH  26  27
ENDBRANCH  20  21
ENDBRANCH  19  20
ENDBRANCH  18  19
ENDBRANCH  17  18
ENDBRANCH  16  17
ENDBRANCH  15  16
ENDBRANCH  14  15
ENDBRANCH   1  14
BRANCH   6  29
HETATM   29  C14 UNL     1      37.637 -43.814  -9.340  1.00  0.00     0.198 C
BRANCH  29  30
HETATM   30  O5  UNL     1      36.707 -43.105  -8.590  1.00  0.00    -0.398 OA
ATOM     31  H5  UNL     1      36.292 -43.674  -7.951  1.00  0.00     0.209 HD
ENDBRANCH  29  30
ENDBRANCH   6  29
BRANCH   7  32
HETATM   32  O6  UNL     1      43.034 -42.987 -10.359  1.00  0.00    -0.390 OA
ATOM     33  H6  UNL     1      43.801 -42.908  -9.805  1.00  0.00     0.210 HD
ENDBRANCH   7  32
BRANCH  11  34
HETATM   34  O7  UNL     1      42.858 -44.111  -7.207  1.00  0.00    -0.387 OA
ATOM     35  H7  UNL     1      43.091 -43.572  -7.954  1.00  0.00     0.210 HD
ENDBRANCH  11  34
BRANCH  12  36
HETATM   36  O8  UNL     1      40.696 -46.928  -6.743  1.00  0.00    -0.392 OA
ATOM     37  H8  UNL     1      40.009 -47.071  -6.103  1.00  0.00     0.210 HD
ENDBRANCH  12  36
TORSDOF 14
ENDMDL