MODEL 4
REMARK VINA RESULT: -6.974832204      3.639      6.661
REMARK  16 active torsions:
REMARK  status: ('A' for Active; 'I' for Inactive)
REMARK    1  A    between atoms: C2_2  and  C3_3
REMARK    2  A    between atoms: C3_3  and  C4_4
REMARK    3  A    between atoms: C4_4  and  C5_5
REMARK    4  A    between atoms: C5_5  and  C6_6
REMARK    5  A    between atoms: C6_6  and  C7_7
REMARK    6  A    between atoms: C7_7  and  C8_8
REMARK    7  A    between atoms: C8_8  and  O2_10
REMARK    8  A    between atoms: O2_10  and  C9_11
REMARK    9  A    between atoms: C10_13  and  C11_14
REMARK   10  A    between atoms: C11_14  and  O4_15
REMARK   11  A    between atoms: C12_17  and  O5_18
REMARK   12  A    between atoms: C13_20  and  O6_21
REMARK   13  A    between atoms: O6_21  and  C14_22
REMARK   14  A    between atoms: C18_27  and  O7_28
REMARK   15  A    between atoms: C19_30  and  O8_31
REMARK   16  A    between atoms: C20_33  and  O9_34
ROOT
HETATM    1  C9  UNL     1      31.395 -42.602  -3.289  1.00  0.00     0.301 C
HETATM    2  O3  UNL     1      32.282 -41.570  -3.055  1.00  0.00    -0.348 OA
HETATM    3  C10 UNL     1      33.126 -41.860  -2.010  1.00  0.00     0.179 C
HETATM    4  C12 UNL     1      34.125 -42.892  -2.561  1.00  0.00     0.180 C
HETATM    5  C13 UNL     1      33.343 -44.147  -2.808  1.00  0.00     0.187 C
HETATM    6  C20 UNL     1      31.857 -43.945  -2.881  1.00  0.00     0.205 C
ENDROOT
BRANCH   5   7
HETATM    7  O6  UNL     1      33.723 -45.095  -1.863  1.00  0.00    -0.371 OA
BRANCH   7   8
HETATM    8  C14 UNL     1      34.315 -46.215  -2.388  1.00  0.00     0.166 C
HETATM    9  C15 UNL     1      33.420 -47.401  -2.163  1.00  0.00     0.075 C
HETATM   10  C16 UNL     1      32.289 -47.121  -1.198  1.00  0.00     0.024 C
HETATM   11  S1  UNL     1      34.322 -48.847  -1.538  1.00  0.00    -0.159 SA
HETATM   12  C17 UNL     1      35.440 -48.295  -0.221  1.00  0.00     0.108 C
HETATM   13  C18 UNL     1      35.890 -46.898  -0.537  1.00  0.00     0.158 C
HETATM   14  C19 UNL     1      35.711 -46.491  -1.954  1.00  0.00     0.177 C
BRANCH  13  15
HETATM   15  O7  UNL     1      35.332 -46.032   0.380  1.00  0.00    -0.392 OA
ATOM     16  H7  UNL     1      36.031 -45.579   0.840  1.00  0.00     0.210 HD
ENDBRANCH  13  15
BRANCH  14  17
HETATM   17  O8  UNL     1      36.188 -47.553  -2.759  1.00  0.00    -0.390 OA
ATOM     18  H8  UNL     1      36.938 -47.221  -3.237  1.00  0.00     0.210 HD
ENDBRANCH  14  17
ENDBRANCH   7   8
ENDBRANCH   5   7
BRANCH   4  19
HETATM   19  O5  UNL     1      35.129 -43.122  -1.613  1.00  0.00    -0.390 OA
ATOM     20  H5  UNL     1      35.424 -44.022  -1.678  1.00  0.00     0.210 HD
ENDBRANCH   4  19
BRANCH   6  21
HETATM   21  O9  UNL     1      31.302 -44.870  -3.797  1.00  0.00    -0.388 OA
ATOM     22  H9  UNL     1      31.065 -45.645  -3.302  1.00  0.00     0.210 HD
ENDBRANCH   6  21
BRANCH   3  23
HETATM   23  C11 UNL     1      33.859 -40.639  -1.502  1.00  0.00     0.198 C
BRANCH  23  24
HETATM   24  O4  UNL     1      34.672 -40.192  -2.541  1.00  0.00    -0.398 OA
ATOM     25  H4  UNL     1      35.272 -40.900  -2.745  1.00  0.00     0.209 HD
ENDBRANCH  23  24
ENDBRANCH   3  23
BRANCH   1  26
HETATM   26  O2  UNL     1      31.016 -42.525  -4.656  1.00  0.00    -0.287 OA
BRANCH  26  27
HETATM   27  C8  UNL     1      30.257 -41.512  -5.182  1.00  0.00     0.261 C
HETATM   28  O1  UNL     1      29.408 -40.970  -4.419  1.00  0.00    -0.265 OA
BRANCH  27  29
HETATM   29  C7  UNL     1      30.328 -40.981  -6.559  1.00  0.00     0.111 C
BRANCH  29  30
HETATM   30  C6  UNL     1      31.682 -40.580  -7.022  1.00  0.00     0.010 C
BRANCH  30  31
HETATM   31  C5  UNL     1      32.079 -41.101  -8.374  1.00  0.00     0.000 C
BRANCH  31  32
HETATM   32  C4  UNL     1      33.542 -41.356  -8.507  1.00  0.00     0.000 C
BRANCH  32  33
HETATM   33  C3  UNL     1      34.271 -40.265  -9.253  1.00  0.00    -0.000 C
BRANCH  33  34
HETATM   34  C2  UNL     1      35.568 -39.995  -8.479  1.00  0.00    -0.005 C
HETATM   35  C1  UNL     1      36.724 -39.749  -9.441  1.00  0.00     0.005 C
ENDBRANCH  33  34
ENDBRANCH  32  33
ENDBRANCH  31  32
ENDBRANCH  30  31
ENDBRANCH  29  30
ENDBRANCH  27  29
ENDBRANCH  26  27
ENDBRANCH   1  26
TORSDOF 16
ENDMDL