MODEL 4
REMARK VINA RESULT: -7.071707461      0.931      1.586
REMARK  14 active torsions:
REMARK  status: ('A' for Active; 'I' for Inactive)
REMARK    1  A    between atoms: C2_2  and  C3_3
REMARK    2  A    between atoms: C3_3  and  C4_4
REMARK    3  A    between atoms: C5_5  and  O1_6
REMARK    4  A    between atoms: C6_9  and  C7_10
REMARK    5  A    between atoms: C8_11  and  C9_12
REMARK    6  A    between atoms: C9_12  and  C10_13
REMARK    7  A    between atoms: C10_13  and  N1_14
REMARK    8  A    between atoms: C16_21  and  O4_22
REMARK    9  A    between atoms: O4_22  and  C17_23
REMARK   10  A    between atoms: C18_25  and  C19_26
REMARK   11  A    between atoms: C19_26  and  O6_27
REMARK   12  A    between atoms: C20_29  and  O7_30
REMARK   13  A    between atoms: C21_32  and  O8_33
REMARK   14  A    between atoms: C22_35  and  O9_36
ROOT
HETATM    1  C4  UNL     1      30.910 -40.691  -7.306  1.00  0.00     0.036 A
HETATM    2  C5  UNL     1      30.643 -41.022  -8.599  1.00  0.00     0.193 A
HETATM    3  O2  UNL     1      31.755 -41.380  -9.144  1.00  0.00    -0.285 OA
HETATM    4  C6  UNL     1      32.772 -41.319  -8.308  1.00  0.00     0.112 A
HETATM    5  C16 UNL     1      32.271 -40.872  -7.090  1.00  0.00     0.117 A
ENDROOT
BRANCH   5   6
HETATM    6  O4  UNL     1      33.016 -40.677  -5.968  1.00  0.00    -0.314 OA
BRANCH   6   7
HETATM    7  C17 UNL     1      33.165 -41.540  -4.870  1.00  0.00     0.298 C
HETATM    8  O5  UNL     1      32.139 -41.276  -3.974  1.00  0.00    -0.348 OA
HETATM    9  C18 UNL     1      31.966 -42.355  -3.144  1.00  0.00     0.179 C
HETATM   10  C20 UNL     1      33.198 -43.171  -2.979  1.00  0.00     0.180 C
HETATM   11  C21 UNL     1      34.490 -42.390  -3.038  1.00  0.00     0.183 C
HETATM   12  C22 UNL     1      34.459 -41.333  -4.125  1.00  0.00     0.205 C
BRANCH   9  13
HETATM   13  C19 UNL     1      31.332 -41.974  -1.819  1.00  0.00     0.198 C
BRANCH  13  14
HETATM   14  O6  UNL     1      31.739 -40.715  -1.385  1.00  0.00    -0.398 OA
ATOM     15  H6  UNL     1      31.847 -40.680  -0.442  1.00  0.00     0.209 HD
ENDBRANCH  13  14
ENDBRANCH   9  13
BRANCH  10  16
HETATM   16  O7  UNL     1      33.227 -43.871  -1.766  1.00  0.00    -0.390 OA
ATOM     17  H7  UNL     1      33.353 -44.806  -1.884  1.00  0.00     0.210 HD
ENDBRANCH  10  16
BRANCH  11  18
HETATM   18  O8  UNL     1      34.805 -41.781  -1.829  1.00  0.00    -0.390 OA
ATOM     19  H8  UNL     1      34.372 -40.943  -1.717  1.00  0.00     0.210 HD
ENDBRANCH  11  18
BRANCH  12  20
HETATM   20  O9  UNL     1      34.529 -40.061  -3.550  1.00  0.00    -0.388 OA
ATOM     21  H9  UNL     1      33.986 -39.994  -2.773  1.00  0.00     0.210 HD
ENDBRANCH  12  20
ENDBRANCH   6   7
ENDBRANCH   5   6
BRANCH   1  22
HETATM   22  C3  UNL     1      29.985 -40.219  -6.251  1.00  0.00     0.046 C
BRANCH  22  23
HETATM   23  C2  UNL     1      29.319 -41.354  -5.505  1.00  0.00     0.000 C
HETATM   24  C1  UNL     1      28.773 -40.931  -4.169  1.00  0.00     0.005 C
ENDBRANCH  22  23
ENDBRANCH   1  22
BRANCH   4  25
HETATM   25  C7  UNL     1      34.128 -41.665  -8.657  1.00  0.00     0.036 C
HETATM   26  C8  UNL     1      34.664 -42.802  -8.249  1.00  0.00    -0.022 C
BRANCH  26  27
HETATM   27  C9  UNL     1      36.044 -43.173  -8.593  1.00  0.00     0.057 C
BRANCH  27  28
HETATM   28  C10 UNL     1      36.865 -42.192  -9.333  1.00  0.00     0.277 C
BRANCH  28  29
HETATM   29  N1  UNL     1      37.928 -41.568  -8.643  1.00  0.00     0.097 N
HETATM   30  C11 UNL     1      39.033 -42.452  -8.422  1.00  0.00     0.299 C
HETATM   31  C12 UNL     1      40.351 -41.779  -8.815  1.00  0.00     0.198 C
HETATM   32  O3  UNL     1      40.321 -41.262 -10.083  1.00  0.00    -0.387 OA
HETATM   33  C13 UNL     1      39.159 -40.625 -10.447  1.00  0.00     0.203 C
HETATM   34  C14 UNL     1      38.361 -40.312  -9.212  1.00  0.00     0.242 C
HETATM   35  C15 UNL     1      37.236 -39.387  -9.529  1.00  0.00     0.045 C
ENDBRANCH  28  29
ENDBRANCH  27  28
ENDBRANCH  26  27
ENDBRANCH   4  25
BRANCH   2  36
HETATM   36  O1  UNL     1      29.369 -40.961  -9.176  1.00  0.00    -0.340 OA
ATOM     37  H1  UNL     1      28.765 -41.693  -9.210  1.00  0.00     0.220 HD
ENDBRANCH   2  36
TORSDOF 14
ENDMDL