MODEL 4
REMARK VINA RESULT: -7.317174320      3.464      8.861
REMARK  13 active torsions:
REMARK  status: ('A' for Active; 'I' for Inactive)
REMARK    1  A    between atoms: C9_12  and  C10_13
REMARK    2  A    between atoms: C11_14  and  C12_15
REMARK    3  A    between atoms: C12_15  and  C13_16
REMARK    4  A    between atoms: C13_16  and  S1_17
REMARK    5  A    between atoms: S1_17  and  C14_18
REMARK    6  A    between atoms: C14_18  and  C15_19
REMARK    7  A    between atoms: C15_19  and  O4_20
REMARK    8  A    between atoms: O4_20  and  C16_21
REMARK    9  A    between atoms: C17_23  and  C18_24
REMARK   10  A    between atoms: C18_24  and  O6_25
REMARK   11  A    between atoms: C19_27  and  O7_28
REMARK   12  A    between atoms: C20_30  and  O8_31
REMARK   13  A    between atoms: C21_33  and  O9_34
ROOT
HETATM    1  C14 UNL     1      34.716 -41.875  -3.995  1.00  0.00     0.100 C
ENDROOT
BRANCH   1   2
HETATM    2  S1  UNL     1      33.066 -41.676  -3.393  1.00  0.00    -0.167 SA
BRANCH   2   3
HETATM    3  C13 UNL     1      32.339 -43.014  -2.512  1.00  0.00     0.077 C
BRANCH   3   4
HETATM    4  C12 UNL     1      32.022 -44.220  -3.311  1.00  0.00     0.037 C
BRANCH   4   5
HETATM    5  C11 UNL     1      33.119 -45.258  -3.215  1.00  0.00    -0.029 C
HETATM    6  C10 UNL     1      33.147 -46.185  -2.323  1.00  0.00    -0.019 C
BRANCH   6   7
HETATM    7  C9  UNL     1      34.066 -47.264  -2.030  1.00  0.00     0.073 C
HETATM    8  C2  UNL     1      35.350 -47.015  -1.400  1.00  0.00    -0.078 C
HETATM    9  C1  UNL     1      35.653 -46.162  -0.488  1.00  0.00     0.015 C
HETATM   10  C3  UNL     1      36.457 -47.967  -1.875  1.00  0.00     0.037 C
HETATM   11  C4  UNL     1      35.719 -49.308  -1.912  1.00  0.00     0.040 C
HETATM   12  C5  UNL     1      34.602 -49.368  -0.886  1.00  0.00     0.170 C
HETATM   13  O1  UNL     1      33.974 -50.622  -1.058  1.00  0.00    -0.290 OA
HETATM   14  C7  UNL     1      33.460 -48.411  -1.195  1.00  0.00     0.106 C
HETATM   15  C6  UNL     1      32.755 -50.489  -1.692  1.00  0.00     0.407 C
HETATM   16  O2  UNL     1      31.888 -51.359  -1.963  1.00  0.00    -0.229 OA
HETATM   17  O3  UNL     1      32.594 -49.146  -2.023  1.00  0.00    -0.283 OA
HETATM   18  C8  UNL     1      32.757 -47.938   0.022  1.00  0.00     0.050 C
ENDBRANCH   6   7
ENDBRANCH   4   5
ENDBRANCH   3   4
ENDBRANCH   2   3
ENDBRANCH   1   2
BRANCH   1  19
HETATM   19  C15 UNL     1      34.789 -42.081  -5.468  1.00  0.00     0.181 C
BRANCH  19  20
HETATM   20  O4  UNL     1      34.504 -40.951  -6.169  1.00  0.00    -0.358 OA
BRANCH  20  21
HETATM   21  C16 UNL     1      34.491 -41.051  -7.560  1.00  0.00     0.291 C
HETATM   22  O5  UNL     1      35.105 -39.878  -7.989  1.00  0.00    -0.348 OA
HETATM   23  C17 UNL     1      36.008 -39.946  -8.981  1.00  0.00     0.179 C
HETATM   24  C19 UNL     1      37.021 -41.074  -8.734  1.00  0.00     0.180 C
HETATM   25  C20 UNL     1      36.226 -42.333  -8.916  1.00  0.00     0.183 C
HETATM   26  C21 UNL     1      35.079 -42.326  -7.970  1.00  0.00     0.204 C
BRANCH  23  27
HETATM   27  C18 UNL     1      35.423 -40.028 -10.371  1.00  0.00     0.198 C
BRANCH  27  28
HETATM   28  O6  UNL     1      36.285 -39.458 -11.297  1.00  0.00    -0.398 OA
ATOM     29  H6  UNL     1      36.609 -38.623 -10.981  1.00  0.00     0.209 HD
ENDBRANCH  27  28
ENDBRANCH  23  27
BRANCH  24  30
HETATM   30  O7  UNL     1      38.065 -40.961  -9.643  1.00  0.00    -0.390 OA
ATOM     31  H7  UNL     1      38.728 -40.380  -9.289  1.00  0.00     0.210 HD
ENDBRANCH  24  30
BRANCH  25  32
HETATM   32  O8  UNL     1      36.997 -43.476  -8.696  1.00  0.00    -0.390 OA
ATOM     33  H8  UNL     1      36.769 -44.180  -9.293  1.00  0.00     0.210 HD
ENDBRANCH  25  32
BRANCH  26  34
HETATM   34  O9  UNL     1      34.047 -43.114  -8.560  1.00  0.00    -0.388 OA
ATOM     35  H9  UNL     1      33.296 -43.094  -7.978  1.00  0.00     0.210 HD
ENDBRANCH  26  34
ENDBRANCH  20  21
ENDBRANCH  19  20
ENDBRANCH   1  19
TORSDOF 13
ENDMDL