MODEL 5
REMARK VINA RESULT: -4.742887364      2.182      5.280
REMARK  15 active torsions:
REMARK  status: ('A' for Active; 'I' for Inactive)
REMARK    1  A    between atoms: C2_2  and  C3_3
REMARK    2  A    between atoms: C3_3  and  C4_4
REMARK    3  A    between atoms: C4_4  and  C5_5
REMARK    4  A    between atoms: C5_5  and  C6_6
REMARK    5  A    between atoms: C7_7  and  O1_8
REMARK    6  A    between atoms: O1_8  and  C8_9
REMARK    7  A    between atoms: C12_13  and  O2_14
REMARK    8  A    between atoms: O2_14  and  C13_15
REMARK    9  A    between atoms: C15_18  and  O4_19
REMARK   10  A    between atoms: C16_21  and  C17_22
REMARK   11  A    between atoms: C17_22  and  O5_23
REMARK   12  A    between atoms: C18_27  and  C19_28
REMARK   13  A    between atoms: C19_28  and  O8_29
REMARK   14  A    between atoms: C20_31  and  O9_32
REMARK   15  A    between atoms: C21_34  and  O10_35
ROOT
HETATM    1  C6  UNL     1      35.170 -40.843  -8.415  1.00  0.00     0.072 C
HETATM    2  C7  UNL     1      33.992 -41.444  -7.667  1.00  0.00     0.270 C
HETATM    3  O7  UNL     1      33.136 -42.110  -8.478  1.00  0.00    -0.351 OA
HETATM    4  C18 UNL     1      32.627 -41.550  -9.581  1.00  0.00     0.179 C
HETATM    5  C20 UNL     1      33.560 -40.576 -10.233  1.00  0.00     0.178 C
HETATM    6  C21 UNL     1      34.977 -40.978  -9.906  1.00  0.00     0.158 C
ENDROOT
BRANCH   2   7
HETATM    7  O1  UNL     1      33.337 -40.388  -7.052  1.00  0.00    -0.331 OA
BRANCH   7   8
HETATM    8  C8  UNL     1      32.777 -40.725  -5.821  1.00  0.00     0.263 C
HETATM    9  C9  UNL     1      31.288 -40.774  -5.903  1.00  0.00     0.061 C
HETATM   10  C10 UNL     1      30.623 -41.898  -5.203  1.00  0.00     0.007 C
HETATM   11  C11 UNL     1      30.458 -41.795  -3.741  1.00  0.00     0.035 C
HETATM   12  C12 UNL     1      31.159 -42.891  -2.964  1.00  0.00     0.163 C
HETATM   13  C15 UNL     1      32.533 -43.183  -3.447  1.00  0.00     0.178 C
HETATM   14  C16 UNL     1      33.262 -41.972  -3.970  1.00  0.00     0.179 C
HETATM   15  O6  UNL     1      33.242 -41.956  -5.361  1.00  0.00    -0.351 OA
BRANCH  12  16
HETATM   16  O2  UNL     1      31.112 -42.508  -1.597  1.00  0.00    -0.314 OA
BRANCH  16  17
HETATM   17  C13 UNL     1      30.817 -41.221  -1.181  1.00  0.00     0.255 C
HETATM   18  C14 UNL     1      29.537 -40.821  -0.578  1.00  0.00     0.126 C
HETATM   19  O3  UNL     1      31.722 -40.347  -1.339  1.00  0.00    -0.266 OA
ENDBRANCH  16  17
ENDBRANCH  12  16
BRANCH  13  20
HETATM   20  O4  UNL     1      33.275 -43.667  -2.358  1.00  0.00    -0.390 OA
ATOM     21  H4  UNL     1      34.167 -43.805  -2.654  1.00  0.00     0.210 HD
ENDBRANCH  13  20
BRANCH  14  22
HETATM   22  C17 UNL     1      34.735 -41.977  -3.549  1.00  0.00     0.198 C
BRANCH  22  23
HETATM   23  O5  UNL     1      35.475 -42.477  -4.602  1.00  0.00    -0.398 OA
ATOM     24  H5  UNL     1      35.080 -43.298  -4.872  1.00  0.00     0.209 HD
ENDBRANCH  22  23
ENDBRANCH  14  22
ENDBRANCH   7   8
ENDBRANCH   2   7
BRANCH   1  25
HETATM   25  C5  UNL     1      36.418 -41.550  -7.934  1.00  0.00     0.012 C
BRANCH  25  26
HETATM   26  C4  UNL     1      36.774 -42.765  -8.715  1.00  0.00     0.001 C
BRANCH  26  27
HETATM   27  C3  UNL     1      38.206 -42.688  -9.169  1.00  0.00    -0.000 C
BRANCH  27  28
HETATM   28  C2  UNL     1      38.746 -41.293  -9.204  1.00  0.00    -0.005 C
HETATM   29  C1  UNL     1      40.267 -41.319  -9.301  1.00  0.00     0.005 C
ENDBRANCH  27  28
ENDBRANCH  26  27
ENDBRANCH  25  26
ENDBRANCH   1  25
BRANCH   6  30
HETATM   30  O10 UNL     1      35.787 -40.004 -10.539  1.00  0.00    -0.392 OA
ATOM     31  H10 UNL     1      36.627 -39.989 -10.095  1.00  0.00     0.210 HD
ENDBRANCH   6  30
BRANCH   4  32
HETATM   32  C19 UNL     1      31.282 -40.906  -9.267  1.00  0.00     0.198 C
BRANCH  32  33
HETATM   33  O8  UNL     1      30.266 -41.574  -9.938  1.00  0.00    -0.398 OA
ATOM     34  H8  UNL     1      30.119 -41.175 -10.788  1.00  0.00     0.209 HD
ENDBRANCH  32  33
ENDBRANCH   4  32
BRANCH   5  35
HETATM   35  O9  UNL     1      33.288 -39.303  -9.686  1.00  0.00    -0.390 OA
ATOM     36  H9  UNL     1      33.831 -38.676 -10.147  1.00  0.00     0.210 HD
ENDBRANCH   5  35
TORSDOF 15
ENDMDL