MODEL 1
REMARK VINA RESULT: -8.107521534      0.000      0.000
REMARK  15 active torsions:
REMARK  status: ('A' for Active; 'I' for Inactive)
REMARK    1  A    between atoms: O1_2  and  C2_3
REMARK    2  A    between atoms: C2_3  and  C3_4
REMARK    3  A    between atoms: C2_3  and  C16_22
REMARK    4  A    between atoms: C4_5  and  C5_6
REMARK    5  A    between atoms: C5_6  and  C6_7
REMARK    6  A    between atoms: C7_9  and  O3_10
REMARK    7  A    between atoms: C8_12  and  O4_13
REMARK    8  A    between atoms: O4_13  and  C9_14
REMARK    9  A    between atoms: C9_14  and  C10_16
REMARK   10  A    between atoms: C16_22  and  C17_23
REMARK   11  A    between atoms: C18_25  and  C19_26
REMARK   12  A    between atoms: C19_26  and  O7_27
REMARK   13  A    between atoms: C20_29  and  O8_30
REMARK   14  A    between atoms: C21_32  and  O9_33
REMARK   15  A    between atoms: C22_35  and  O10_36
ROOT
HETATM    1  C2  UNL     1      33.342 -41.252  -5.975  1.00  0.00     0.146 C
ENDROOT
BRANCH   1   2
HETATM    2  O1  UNL     1      31.985 -41.564  -5.754  1.00  0.00    -0.387 OA
HETATM    3  C1  UNL     1      31.150 -40.821  -6.557  1.00  0.00     0.202 C
ENDBRANCH   1   2
BRANCH   1   4
HETATM    4  C3  UNL     1      33.307 -40.248  -7.093  1.00  0.00     0.001 C
HETATM    5  C4  UNL     1      33.907 -40.537  -8.231  1.00  0.00    -0.026 C
BRANCH   5   6
HETATM    6  C5  UNL     1      34.605 -41.799  -8.438  1.00  0.00     0.059 C
BRANCH   6   7
HETATM    7  C6  UNL     1      36.127 -41.702  -8.306  1.00  0.00     0.134 C
HETATM    8  O2  UNL     1      36.691 -42.933  -8.112  1.00  0.00    -0.353 OA
HETATM    9  C7  UNL     1      37.748 -43.110  -9.001  1.00  0.00     0.287 C
HETATM   10  C8  UNL     1      38.046 -41.770  -9.621  1.00  0.00     0.193 C
HETATM   11  C14 UNL     1      36.733 -41.034  -9.491  1.00  0.00     0.045 C
HETATM   12  C15 UNL     1      36.881 -39.545  -9.362  1.00  0.00     0.015 C
BRANCH   9  13
HETATM   13  O3  UNL     1      37.321 -44.031  -9.959  1.00  0.00    -0.369 OA
ATOM     14  H3  UNL     1      37.314 -43.577 -10.793  1.00  0.00     0.212 HD
ENDBRANCH   9  13
BRANCH  10  15
HETATM   15  O4  UNL     1      39.151 -41.127  -9.093  1.00  0.00    -0.307 OA
BRANCH  15  16
HETATM   16  C9  UNL     1      40.344 -41.701  -8.760  1.00  0.00     0.283 C
HETATM   17  O5  UNL     1      40.492 -42.002  -7.548  1.00  0.00    -0.260 OA
BRANCH  16  18
HETATM   18  C10 UNL     1      41.407 -41.970  -9.689  1.00  0.00     0.084 C
HETATM   19  C11 UNL     1      41.807 -43.157 -10.032  1.00  0.00    -0.082 C
HETATM   20  C12 UNL     1      42.944 -43.289 -11.025  1.00  0.00     0.043 C
HETATM   21  C13 UNL     1      41.169 -44.363  -9.474  1.00  0.00     0.043 C
ENDBRANCH  16  18
ENDBRANCH  15  16
ENDBRANCH  10  15
ENDBRANCH   6   7
ENDBRANCH   5   6
ENDBRANCH   1   4
BRANCH   1  22
HETATM   22  C16 UNL     1      33.923 -40.633  -4.755  1.00  0.00     0.070 C
BRANCH  22  23
HETATM   23  C17 UNL     1      34.334 -41.660  -3.744  1.00  0.00     0.156 C
HETATM   24  O6  UNL     1      34.194 -42.921  -4.243  1.00  0.00    -0.373 OA
HETATM   25  C18 UNL     1      33.656 -43.851  -3.396  1.00  0.00     0.176 C
HETATM   26  C20 UNL     1      32.321 -43.448  -2.817  1.00  0.00     0.180 C
HETATM   27  C21 UNL     1      32.301 -42.045  -2.313  1.00  0.00     0.180 C
HETATM   28  C22 UNL     1      33.667 -41.451  -2.404  1.00  0.00     0.178 C
BRANCH  25  29
HETATM   29  C19 UNL     1      33.392 -45.115  -4.226  1.00  0.00     0.198 C
BRANCH  29  30
HETATM   30  O7  UNL     1      32.910 -46.148  -3.437  1.00  0.00    -0.398 OA
ATOM     31  H7  UNL     1      32.195 -45.858  -2.884  1.00  0.00     0.209 HD
ENDBRANCH  29  30
ENDBRANCH  25  29
BRANCH  26  32
HETATM   32  O8  UNL     1      31.300 -43.732  -3.714  1.00  0.00    -0.390 OA
ATOM     33  H8  UNL     1      30.643 -43.047  -3.694  1.00  0.00     0.210 HD
ENDBRANCH  26  32
BRANCH  27  34
HETATM   34  O9  UNL     1      31.419 -41.302  -3.090  1.00  0.00    -0.390 OA
ATOM     35  H9  UNL     1      30.897 -40.750  -2.519  1.00  0.00     0.210 HD
ENDBRANCH  27  34
BRANCH  28  36
HETATM   36  O10 UNL     1      34.526 -41.894  -1.402  1.00  0.00    -0.390 OA
ATOM     37  H10 UNL     1      35.386 -42.040  -1.778  1.00  0.00     0.210 HD
ENDBRANCH  28  36
ENDBRANCH  22  23
ENDBRANCH   1  22
TORSDOF 15
ENDMDL