MODEL 2
REMARK VINA RESULT: -5.836035932      3.040      6.466
REMARK  15 active torsions:
REMARK  status: ('A' for Active; 'I' for Inactive)
REMARK    1  A    between atoms: O1_2  and  C2_3
REMARK    2  A    between atoms: C2_3  and  O2_4
REMARK    3  A    between atoms: C2_3  and  C3_6
REMARK    4  A    between atoms: C3_6  and  O3_7
REMARK    5  A    between atoms: O3_7  and  C4_8
REMARK    6  A    between atoms: C5_9  and  O4_10
REMARK    7  A    between atoms: O4_10  and  C6_11
REMARK    8  A    between atoms: C7_13  and  C8_14
REMARK    9  A    between atoms: C8_14  and  O6_15
REMARK   10  A    between atoms: C9_17  and  O7_18
REMARK   11  A    between atoms: C10_20  and  O8_21
REMARK   12  A    between atoms: C11_23  and  O9_24
REMARK   13  A    between atoms: C16_30  and  C17_31
REMARK   14  A    between atoms: C18_32  and  C19_33
REMARK   15  A    between atoms: C19_33  and  C21_35
ROOT
HETATM    1  C4  UNL     1      36.426 -41.882  -8.528  1.00  0.00     0.088 A
HETATM    2  C5  UNL     1      37.539 -42.265  -9.160  1.00  0.00     0.101 A
HETATM    3  C12 UNL     1      38.289 -41.359  -9.995  1.00  0.00     0.036 A
HETATM    4  C13 UNL     1      37.909 -40.111 -10.162  1.00  0.00    -0.019 A
HETATM    5  C14 UNL     1      36.721 -39.589  -9.514  1.00  0.00     0.018 A
HETATM    6  C15 UNL     1      35.885 -38.914 -10.611  1.00  0.00     0.015 C
HETATM    7  C16 UNL     1      35.919 -40.526  -8.677  1.00  0.00     0.075 A
ENDROOT
BRANCH   2   8
HETATM    8  O4  UNL     1      37.999 -43.598  -9.000  1.00  0.00    -0.315 OA
BRANCH   8   9
HETATM    9  C6  UNL     1      39.365 -43.743  -8.660  1.00  0.00     0.298 C
HETATM   10  O5  UNL     1      39.846 -44.862  -9.379  1.00  0.00    -0.348 OA
HETATM   11  C7  UNL     1      41.072 -45.178  -8.797  1.00  0.00     0.179 C
HETATM   12  C9  UNL     1      42.082 -44.191  -9.298  1.00  0.00     0.180 C
HETATM   13  C10 UNL     1      41.463 -42.892  -9.749  1.00  0.00     0.183 C
HETATM   14  C11 UNL     1      40.190 -42.562  -9.020  1.00  0.00     0.205 C
BRANCH  11  15
HETATM   15  C8  UNL     1      41.461 -46.608  -9.007  1.00  0.00     0.198 C
BRANCH  15  16
HETATM   16  O6  UNL     1      40.296 -47.374  -8.977  1.00  0.00    -0.398 OA
ATOM     17  H6  UNL     1      39.814 -47.201  -9.778  1.00  0.00     0.209 HD
ENDBRANCH  15  16
ENDBRANCH  11  15
BRANCH  12  18
HETATM   18  O7  UNL     1      43.053 -44.013  -8.330  1.00  0.00    -0.390 OA
ATOM     19  H7  UNL     1      43.902 -43.956  -8.753  1.00  0.00     0.210 HD
ENDBRANCH  12  18
BRANCH  13  20
HETATM   20  O8  UNL     1      42.399 -41.883  -9.522  1.00  0.00    -0.390 OA
ATOM     21  H8  UNL     1      41.958 -41.052  -9.653  1.00  0.00     0.210 HD
ENDBRANCH  13  20
BRANCH  14  22
HETATM   22  O9  UNL     1      40.540 -41.875  -7.855  1.00  0.00    -0.388 OA
ATOM     23  H9  UNL     1      40.636 -40.951  -8.055  1.00  0.00     0.210 HD
ENDBRANCH  14  22
ENDBRANCH   8   9
ENDBRANCH   2   8
BRANCH   1  24
HETATM   24  O3  UNL     1      35.825 -42.821  -7.767  1.00  0.00    -0.347 OA
BRANCH  24  25
HETATM   25  C3  UNL     1      34.686 -42.905  -7.013  1.00  0.00     0.235 C
BRANCH  25  26
HETATM   26  C2  UNL     1      34.960 -42.524  -5.537  1.00  0.00     0.280 C
BRANCH  26  27
HETATM   27  O1  UNL     1      34.329 -41.334  -5.225  1.00  0.00    -0.364 OA
HETATM   28  C1  UNL     1      34.329 -41.077  -3.860  1.00  0.00     0.204 C
ENDBRANCH  26  27
BRANCH  26  29
HETATM   29  O2  UNL     1      34.402 -43.527  -4.761  1.00  0.00    -0.369 OA
ATOM     30  H2  UNL     1      33.798 -44.021  -5.304  1.00  0.00     0.212 HD
ENDBRANCH  26  29
ENDBRANCH  25  26
ENDBRANCH  24  25
ENDBRANCH   1  24
BRANCH   7  31
HETATM   31  C17 UNL     1      34.536 -40.500  -9.280  1.00  0.00    -0.018 C
HETATM   32  C18 UNL     1      33.495 -40.488  -8.484  1.00  0.00    -0.025 C
BRANCH  32  33
HETATM   33  C19 UNL     1      32.086 -40.461  -8.958  1.00  0.00     0.007 C
HETATM   34  C20 UNL     1      31.900 -41.077 -10.307  1.00  0.00     0.014 C
BRANCH  33  35
HETATM   35  C21 UNL     1      31.198 -41.108  -7.913  1.00  0.00    -0.015 C
HETATM   36  C22 UNL     1      31.467 -40.548  -6.534  1.00  0.00     0.010 C
HETATM   37  C23 UNL     1      29.731 -40.851  -8.210  1.00  0.00     0.010 C
ENDBRANCH  33  35
ENDBRANCH  32  33
ENDBRANCH   7  31
TORSDOF 15
ENDMDL