MODEL 5
REMARK VINA RESULT: -5.597921986      7.489     11.107
REMARK  14 active torsions:
REMARK  status: ('A' for Active; 'I' for Inactive)
REMARK    1  A    between atoms: C2_2  and  C3_3
REMARK    2  A    between atoms: C3_3  and  C4_4
REMARK    3  A    between atoms: C4_4  and  C5_5
REMARK    4  A    between atoms: C5_5  and  C6_6
REMARK    5  A    between atoms: C6_6  and  O1_7
REMARK    6  A    between atoms: C6_6  and  C7_9
REMARK    7  A    between atoms: C8_11  and  O2_12
REMARK    8  A    between atoms: C10_14  and  O3_15
REMARK    9  A    between atoms: C13_19  and  O4_20
REMARK   10  A    between atoms: O4_20  and  C14_21
REMARK   11  A    between atoms: C16_24  and  C17_25
REMARK   12  A    between atoms: C17_25  and  O6_26
REMARK   13  A    between atoms: C18_28  and  O7_29
REMARK   14  A    between atoms: C19_31  and  O8_32
ROOT
HETATM    1  C7  UNL     1     -22.170   7.767 -30.981  1.00  0.00     0.111 C
HETATM    2  S1  UNL     1     -23.926   7.729 -30.441  1.00  0.00    -0.124 SA
HETATM    3  C8  UNL     1     -23.839   6.169 -29.530  1.00  0.00     0.219 C
HETATM    4  C10 UNL     1     -22.421   5.727 -29.667  1.00  0.00     0.120 C
HETATM    5  C11 UNL     1     -22.432   4.216 -29.789  1.00  0.00     0.049 C
HETATM    6  C12 UNL     1     -21.233   3.833 -30.626  1.00  0.00     0.064 C
HETATM    7  C13 UNL     1     -21.392   4.392 -32.041  1.00  0.00     0.261 C
HETATM    8  O9  UNL     1     -22.014   5.611 -32.038  1.00  0.00    -0.352 OA
HETATM    9  C20 UNL     1     -21.790   6.333 -30.860  1.00  0.00     0.178 C
ENDROOT
BRANCH   7  10
HETATM   10  O4  UNL     1     -20.139   4.379 -32.616  1.00  0.00    -0.351 OA
BRANCH  10  11
HETATM   11  C14 UNL     1     -20.215   4.147 -33.989  1.00  0.00     0.179 C
HETATM   12  C15 UNL     1     -19.343   2.994 -34.374  1.00  0.00     0.203 C
HETATM   13  O5  UNL     1     -18.910   3.003 -35.672  1.00  0.00    -0.378 OA
HETATM   14  C16 UNL     1     -19.710   3.819 -36.487  1.00  0.00     0.176 C
HETATM   15  C18 UNL     1     -19.358   5.241 -36.084  1.00  0.00     0.180 C
HETATM   16  C19 UNL     1     -19.864   5.434 -34.680  1.00  0.00     0.180 C
BRANCH  14  17
HETATM   17  C17 UNL     1     -19.333   3.600 -37.934  1.00  0.00     0.198 C
BRANCH  17  18
HETATM   18  O6  UNL     1     -17.998   3.262 -38.048  1.00  0.00    -0.398 OA
ATOM     19  H6  UNL     1     -17.634   3.592 -38.862  1.00  0.00     0.209 HD
ENDBRANCH  17  18
ENDBRANCH  14  17
BRANCH  15  20
HETATM   20  O7  UNL     1     -17.966   5.348 -36.081  1.00  0.00    -0.390 OA
ATOM     21  H7  UNL     1     -17.688   5.472 -35.182  1.00  0.00     0.210 HD
ENDBRANCH  15  20
BRANCH  16  22
HETATM   22  O8  UNL     1     -21.068   6.168 -34.791  1.00  0.00    -0.390 OA
ATOM     23  H8  UNL     1     -20.902   7.016 -34.395  1.00  0.00     0.210 HD
ENDBRANCH  16  22
ENDBRANCH  10  11
ENDBRANCH   7  10
BRANCH   4  24
HETATM   24  O3  UNL     1     -21.682   6.026 -28.516  1.00  0.00    -0.384 OA
ATOM     25  H3  UNL     1     -21.121   6.781 -28.653  1.00  0.00     0.210 HD
ENDBRANCH   4  24
BRANCH   1  26
HETATM   26  C6  UNL     1     -22.163   8.280 -32.410  1.00  0.00     0.134 C
BRANCH  26  27
HETATM   27  C5  UNL     1     -22.212   9.766 -32.370  1.00  0.00     0.033 C
BRANCH  27  28
HETATM   28  C4  UNL     1     -20.974  10.469 -31.963  1.00  0.00     0.002 C
BRANCH  28  29
HETATM   29  C3  UNL     1     -20.591  11.679 -32.729  1.00  0.00    -0.000 C
BRANCH  29  30
HETATM   30  C2  UNL     1     -19.785  12.691 -31.957  1.00  0.00    -0.005 C
HETATM   31  C1  UNL     1     -19.749  12.328 -30.466  1.00  0.00     0.005 C
ENDBRANCH  29  30
ENDBRANCH  28  29
ENDBRANCH  27  28
ENDBRANCH  26  27
BRANCH  26  32
HETATM   32  O1  UNL     1     -23.293   7.773 -33.027  1.00  0.00    -0.394 OA
ATOM     33  H1  UNL     1     -23.159   6.865 -33.273  1.00  0.00     0.210 HD
ENDBRANCH  26  32
ENDBRANCH   1  26
BRANCH   3  34
HETATM   34  O2  UNL     1     -24.085   6.461 -28.187  1.00  0.00    -0.377 OA
HETATM   35  C9  UNL     1     -25.156   5.705 -27.687  1.00  0.00     0.203 C
ENDBRANCH   3  34
TORSDOF 14
ENDMDL