MODEL 3
REMARK VINA RESULT: -6.973520774      1.406      3.236
REMARK  15 active torsions:
REMARK  status: ('A' for Active; 'I' for Inactive)
REMARK    1  A    between atoms: C2_2  and  O2_4
REMARK    2  A    between atoms: O2_4  and  C3_5
REMARK    3  A    between atoms: C9_11  and  O3_12
REMARK    4  A    between atoms: C10_14  and  C11_15
REMARK    5  A    between atoms: C11_15  and  O4_16
REMARK    6  A    between atoms: O4_16  and  C12_17
REMARK    7  A    between atoms: C12_17  and  C13_18
REMARK    8  A    between atoms: C13_18  and  O5_19
REMARK    9  A    between atoms: O5_19  and  C14_20
REMARK   10  A    between atoms: C14_20  and  C15_21
REMARK   11  A    between atoms: C15_21  and  O6_22
REMARK   12  A    between atoms: O6_22  and  C16_23
REMARK   13  A    between atoms: C19_27  and  O8_28
REMARK   14  A    between atoms: C20_30  and  O9_31
REMARK   15  A    between atoms: C21_33  and  O10_34
ROOT
HETATM    1  C13 UNL     1     -15.569  13.021 -29.164  1.00  0.00     0.193 C
ENDROOT
BRANCH   1   2
HETATM    2  C12 UNL     1     -14.733  12.226 -28.230  1.00  0.00     0.193 C
BRANCH   2   3
HETATM    3  O4  UNL     1     -15.162  11.161 -27.609  1.00  0.00    -0.388 OA
BRANCH   3   4
HETATM    4  C11 UNL     1     -14.619  10.326 -26.748  1.00  0.00     0.177 C
BRANCH   4   5
HETATM    5  C10 UNL     1     -13.394  10.772 -26.065  1.00  0.00     0.068 C
HETATM    6  C3  UNL     1     -13.338  10.245 -24.606  1.00  0.00     0.140 C
HETATM    7  C4  UNL     1     -12.306  11.153 -23.973  1.00  0.00     0.034 C
HETATM    8  C5  UNL     1     -10.969  10.960 -24.577  1.00  0.00     0.014 C
HETATM    9  C6  UNL     1     -10.898  10.410 -25.942  1.00  0.00    -0.021 C
HETATM   10  C7  UNL     1      -9.913  11.245 -26.781  1.00  0.00     0.017 C
HETATM   11  C8  UNL     1     -10.194   9.043 -25.839  1.00  0.00     0.017 C
HETATM   12  C9  UNL     1     -12.145  10.203 -26.696  1.00  0.00     0.134 C
BRANCH   6  13
HETATM   13  O2  UNL     1     -14.597  10.346 -23.999  1.00  0.00    -0.316 OA
BRANCH  13  14
HETATM   14  C2  UNL     1     -15.193   9.212 -23.421  1.00  0.00     0.255 C
HETATM   15  C1  UNL     1     -14.389   8.093 -22.887  1.00  0.00     0.126 C
HETATM   16  O1  UNL     1     -16.451   9.201 -23.382  1.00  0.00    -0.266 OA
ENDBRANCH  13  14
ENDBRANCH   6  13
BRANCH  12  17
HETATM   17  O3  UNL     1     -12.367   8.838 -27.003  1.00  0.00    -0.394 OA
ATOM     18  H3  UNL     1     -13.291   8.623 -27.036  1.00  0.00     0.210 HD
ENDBRANCH  12  17
ENDBRANCH   4   5
ENDBRANCH   3   4
ENDBRANCH   2   3
ENDBRANCH   1   2
BRANCH   1  19
HETATM   19  O5  UNL     1     -15.893  14.285 -28.691  1.00  0.00    -0.387 OA
BRANCH  19  20
HETATM   20  C14 UNL     1     -17.137  14.746 -29.012  1.00  0.00     0.194 C
BRANCH  20  21
HETATM   21  C15 UNL     1     -17.738  13.976 -30.190  1.00  0.00     0.197 C
BRANCH  21  22
HETATM   22  O6  UNL     1     -18.533  12.926 -29.726  1.00  0.00    -0.356 OA
BRANCH  22  23
HETATM   23  C16 UNL     1     -19.688  12.784 -30.490  1.00  0.00     0.291 C
HETATM   24  O7  UNL     1     -19.388  12.842 -31.813  1.00  0.00    -0.351 OA
HETATM   25  C17 UNL     1     -20.335  12.462 -32.705  1.00  0.00     0.152 C
HETATM   26  C18 UNL     1     -21.131  13.693 -33.112  1.00  0.00     0.042 C
HETATM   27  C19 UNL     1     -21.296  11.412 -32.285  1.00  0.00     0.178 C
HETATM   28  C20 UNL     1     -21.664  11.451 -30.824  1.00  0.00     0.183 C
HETATM   29  C21 UNL     1     -20.363  11.509 -30.048  1.00  0.00     0.204 C
BRANCH  27  30
HETATM   30  O8  UNL     1     -20.810  10.129 -32.551  1.00  0.00    -0.390 OA
ATOM     31  H8  UNL     1     -21.179   9.483 -31.961  1.00  0.00     0.210 HD
ENDBRANCH  27  30
BRANCH  28  32
HETATM   32  O9  UNL     1     -22.257  10.213 -30.526  1.00  0.00    -0.390 OA
ATOM     33  H9  UNL     1     -22.620  10.289 -29.651  1.00  0.00     0.210 HD
ENDBRANCH  28  32
BRANCH  29  34
HETATM   34  O10 UNL     1     -20.706  11.636 -28.704  1.00  0.00    -0.388 OA
ATOM     35  H10 UNL     1     -20.267  10.949 -28.216  1.00  0.00     0.210 HD
ENDBRANCH  29  34
ENDBRANCH  22  23
ENDBRANCH  21  22
ENDBRANCH  20  21
ENDBRANCH  19  20
ENDBRANCH   1  19
TORSDOF 15
ENDMDL