MODEL 3
REMARK VINA RESULT: -6.672105136      0.911      2.138
REMARK  14 active torsions:
REMARK  status: ('A' for Active; 'I' for Inactive)
REMARK    1  A    between atoms: C2_2  and  C3_3
REMARK    2  A    between atoms: C3_3  and  C4_4
REMARK    3  A    between atoms: C4_4  and  C5_5
REMARK    4  A    between atoms: C6_6  and  C7_7
REMARK    5  A    between atoms: C10_10  and  O1_11
REMARK    6  A    between atoms: N1_14  and  C12_15
REMARK    7  A    between atoms: C14_17  and  C15_18
REMARK    8  A    between atoms: C15_18  and  O2_19
REMARK    9  A    between atoms: O2_19  and  C16_20
REMARK   10  A    between atoms: C17_22  and  C18_23
REMARK   11  A    between atoms: C18_23  and  O4_24
REMARK   12  A    between atoms: C19_26  and  O5_27
REMARK   13  A    between atoms: C20_29  and  O6_30
REMARK   14  A    between atoms: C21_32  and  O7_33
ROOT
HETATM    1  C12 UNL     1     -19.256  14.001 -30.513  1.00  0.00     0.232 C
HETATM    2  C13 UNL     1     -19.870  12.860 -29.796  1.00  0.00     0.088 C
HETATM    3  C14 UNL     1     -20.124  11.674 -30.653  1.00  0.00     0.152 C
HETATM    4  O8  UNL     1     -19.965  11.786 -31.994  1.00  0.00    -0.359 OA
HETATM    5  C22 UNL     1     -19.485  12.963 -32.478  1.00  0.00     0.341 C
HETATM    6  O9  UNL     1     -18.573  13.579 -31.625  1.00  0.00    -0.342 OA
ENDROOT
BRANCH   3   7
HETATM    7  C15 UNL     1     -21.591  11.246 -30.438  1.00  0.00     0.203 C
BRANCH   7   8
HETATM    8  O2  UNL     1     -21.969  10.324 -31.381  1.00  0.00    -0.356 OA
BRANCH   8   9
HETATM    9  C16 UNL     1     -22.031   9.025 -30.919  1.00  0.00     0.291 C
HETATM   10  O3  UNL     1     -22.200   8.175 -31.968  1.00  0.00    -0.348 OA
HETATM   11  C17 UNL     1     -22.549   6.884 -31.692  1.00  0.00     0.179 C
HETATM   12  C19 UNL     1     -23.621   6.726 -30.640  1.00  0.00     0.180 C
HETATM   13  C20 UNL     1     -23.363   7.530 -29.413  1.00  0.00     0.183 C
HETATM   14  C21 UNL     1     -23.059   8.953 -29.833  1.00  0.00     0.204 C
BRANCH  11  15
HETATM   15  C18 UNL     1     -21.365   5.961 -31.428  1.00  0.00     0.198 C
BRANCH  15  16
HETATM   16  O4  UNL     1     -20.276   6.242 -32.208  1.00  0.00    -0.398 OA
ATOM     17  H4  UNL     1     -19.741   5.479 -32.395  1.00  0.00     0.209 HD
ENDBRANCH  15  16
ENDBRANCH  11  15
BRANCH  12  18
HETATM   18  O5  UNL     1     -24.830   7.051 -31.206  1.00  0.00    -0.390 OA
ATOM     19  H5  UNL     1     -25.107   6.325 -31.753  1.00  0.00     0.210 HD
ENDBRANCH  12  18
BRANCH  13  20
HETATM   20  O6  UNL     1     -24.568   7.579 -28.682  1.00  0.00    -0.390 OA
ATOM     21  H6  UNL     1     -24.740   8.491 -28.481  1.00  0.00     0.210 HD
ENDBRANCH  13  20
BRANCH  14  22
HETATM   22  O7  UNL     1     -22.549   9.646 -28.725  1.00  0.00    -0.388 OA
ATOM     23  H7  UNL     1     -21.826  10.181 -29.032  1.00  0.00     0.210 HD
ENDBRANCH  14  22
ENDBRANCH   8   9
ENDBRANCH   7   8
ENDBRANCH   3   7
BRANCH   1  24
HETATM   24  N1  UNL     1     -18.500  14.902 -29.669  1.00  0.00    -0.330 N
HETATM   25  C5  UNL     1     -17.199  14.849 -29.344  1.00  0.00     0.023 A
HETATM   26  C6  UNL     1     -16.933  15.940 -28.487  1.00  0.00     0.003 A
HETATM   27  C10 UNL     1     -18.073  16.647 -28.298  1.00  0.00     0.089 A
HETATM   28  C11 UNL     1     -19.053  15.959 -29.065  1.00  0.00     0.130 A
BRANCH  25  29
HETATM   29  C4  UNL     1     -16.274  13.847 -29.819  1.00  0.00     0.058 C
BRANCH  29  30
HETATM   30  C3  UNL     1     -16.080  12.620 -28.982  1.00  0.00     0.006 C
BRANCH  30  31
HETATM   31  C2  UNL     1     -14.571  12.355 -28.769  1.00  0.00    -0.004 C
HETATM   32  C1  UNL     1     -14.366  11.564 -27.503  1.00  0.00     0.005 C
ENDBRANCH  30  31
ENDBRANCH  29  30
ENDBRANCH  25  29
BRANCH  26  33
HETATM   33  C7  UNL     1     -15.598  16.167 -27.902  1.00  0.00     0.015 C
HETATM   34  C8  UNL     1     -15.210  17.594 -27.715  1.00  0.00     0.015 C
HETATM   35  C9  UNL     1     -15.476  15.451 -26.560  1.00  0.00     0.015 C
ENDBRANCH  26  33
BRANCH  27  36
HETATM   36  O1  UNL     1     -18.350  17.774 -27.565  1.00  0.00    -0.359 OA
ATOM     37  H1  UNL     1     -18.336  18.699 -27.783  1.00  0.00     0.217 HD
ENDBRANCH  27  36
ENDBRANCH   1  24
TORSDOF 14
ENDMDL