MODEL 3
REMARK VINA RESULT: -8.066909239      1.157      2.215
REMARK  14 active torsions:
REMARK  status: ('A' for Active; 'I' for Inactive)
REMARK       I    between atoms: C1_2  and  N1_3
REMARK    1  A    between atoms: C1_2  and  O2_12
REMARK    2  A    between atoms: N1_3  and  C2_5
REMARK    3  A    between atoms: O2_12  and  C9_13
REMARK    4  A    between atoms: C9_13  and  C10_14
REMARK    5  A    between atoms: C10_14  and  C11_15
REMARK    6  A    between atoms: C11_15  and  C12_16
REMARK    7  A    between atoms: C12_16  and  C13_17
REMARK    8  A    between atoms: C13_17  and  N2_18
REMARK    9  A    between atoms: C15_20  and  C16_21
REMARK   10  A    between atoms: C17_23  and  C18_24
REMARK   11  A    between atoms: C18_24  and  O4_25
REMARK   12  A    between atoms: C19_27  and  O5_28
REMARK   13  A    between atoms: C20_30  and  O6_31
REMARK   14  A    between atoms: C21_33  and  O7_34
ROOT
HETATM    1  N2  UNL     1     -15.550  13.480 -28.426  1.00  0.00    -0.285 N
HETATM    2  C14 UNL     1     -14.637  13.265 -27.464  1.00  0.00     0.136 A
HETATM    3  C15 UNL     1     -14.269  11.936 -27.430  1.00  0.00     0.072 A
HETATM    4  N3  UNL     1     -15.001  11.368 -28.414  1.00  0.00    -0.284 N
ATOM      5  H3  UNL     1     -14.976  10.381 -28.668  1.00  0.00     0.184 HD
HETATM    6  N4  UNL     1     -15.755  12.284 -28.996  1.00  0.00    -0.020 NA
ENDROOT
BRANCH   1   7
HETATM    7  C13 UNL     1     -16.155  14.739 -28.746  1.00  0.00     0.146 C
BRANCH   7   8
HETATM    8  C12 UNL     1     -16.184  15.703 -27.593  1.00  0.00     0.022 C
BRANCH   8   9
HETATM    9  C11 UNL     1     -17.458  16.469 -27.585  1.00  0.00     0.004 C
BRANCH   9  10
HETATM   10  C10 UNL     1     -18.107  16.570 -28.943  1.00  0.00     0.027 C
BRANCH  10  11
HETATM   11  C9  UNL     1     -19.321  15.732 -29.095  1.00  0.00     0.180 C
BRANCH  11  12
HETATM   12  O2  UNL     1     -19.424  15.007 -30.291  1.00  0.00    -0.304 OA
BRANCH  12  13
HETATM   13  C1  UNL     1     -19.659  13.670 -30.352  1.00  0.00     0.360 C
HETATM   14  O1  UNL     1     -18.759  12.830 -30.006  1.00  0.00    -0.239 OA
HETATM   15  N1  UNL     1     -20.883  13.090 -30.791  1.00  0.00    -0.332 N
ATOM     16  H1  UNL     1     -21.641  13.708 -31.080  1.00  0.00     0.165 HD
BRANCH  15  17
HETATM   17  C2  UNL     1     -21.094  11.645 -30.842  1.00  0.00     0.087 C
HETATM   18  C3  UNL     1     -22.238  11.347 -30.030  1.00  0.00     0.026 C
HETATM   19  C4  UNL     1     -22.457  10.003 -29.328  1.00  0.00     0.013 C
HETATM   20  C5  UNL     1     -22.512   8.824 -30.362  1.00  0.00     0.080 C
HETATM   21  C6  UNL     1     -21.922   9.319 -31.534  1.00  0.00    -0.183 C
HETATM   22  C7  UNL     1     -21.328   9.867 -32.677  1.00  0.00     0.082 C
HETATM   23  C8  UNL     1     -21.047  11.371 -32.343  1.00  0.00     0.036 C
ENDBRANCH  15  17
ENDBRANCH  12  13
ENDBRANCH  11  12
ENDBRANCH  10  11
ENDBRANCH   9  10
ENDBRANCH   8   9
ENDBRANCH   7   8
ENDBRANCH   1   7
BRANCH   3  24
HETATM   24  C16 UNL     1     -13.297  11.246 -26.538  1.00  0.00     0.205 C
HETATM   25  O3  UNL     1     -12.751  10.196 -27.245  1.00  0.00    -0.367 OA
HETATM   26  C17 UNL     1     -11.792   9.491 -26.545  1.00  0.00     0.177 C
HETATM   27  C19 UNL     1     -11.734   9.790 -25.091  1.00  0.00     0.180 C
HETATM   28  C20 UNL     1     -13.071   9.986 -24.440  1.00  0.00     0.181 C
HETATM   29  C21 UNL     1     -14.061  10.675 -25.350  1.00  0.00     0.184 C
BRANCH  26  30
HETATM   30  C18 UNL     1     -11.967   8.022 -26.863  1.00  0.00     0.198 C
BRANCH  30  31
HETATM   31  O4  UNL     1     -13.329   7.701 -26.843  1.00  0.00    -0.398 OA
ATOM     32  H4  UNL     1     -13.477   6.989 -26.231  1.00  0.00     0.209 HD
ENDBRANCH  30  31
ENDBRANCH  26  30
BRANCH  27  33
HETATM   33  O5  UNL     1     -10.851  10.854 -24.817  1.00  0.00    -0.390 OA
ATOM     34  H5  UNL     1     -11.309  11.600 -24.446  1.00  0.00     0.210 HD
ENDBRANCH  27  33
BRANCH  28  35
HETATM   35  O6  UNL     1     -13.615   8.835 -23.915  1.00  0.00    -0.390 OA
ATOM     36  H6  UNL     1     -13.267   8.594 -23.064  1.00  0.00     0.210 HD
ENDBRANCH  28  35
BRANCH  29  37
HETATM   37  O7  UNL     1     -14.972   9.730 -25.842  1.00  0.00    -0.390 OA
ATOM     38  H7  UNL     1     -14.948   8.976 -25.265  1.00  0.00     0.210 HD
ENDBRANCH  29  37
ENDBRANCH   3  24
TORSDOF 14
ENDMDL