MODEL 2
REMARK VINA RESULT: -5.643472226      9.949     12.423
REMARK  15 active torsions:
REMARK  status: ('A' for Active; 'I' for Inactive)
REMARK    1  A    between atoms: C2_2  and  C3_3
REMARK    2  A    between atoms: C3_3  and  C4_4
REMARK    3  A    between atoms: C4_4  and  C5_5
REMARK    4  A    between atoms: C5_5  and  C6_6
REMARK    5  A    between atoms: C6_6  and  O2_8
REMARK    6  A    between atoms: O2_8  and  C7_9
REMARK    7  A    between atoms: C8_10  and  C9_11
REMARK    8  A    between atoms: C9_11  and  O3_12
REMARK    9  A    between atoms: O3_12  and  C10_13
REMARK   10  A    between atoms: C11_15  and  C12_16
REMARK   11  A    between atoms: C12_16  and  O5_17
REMARK   12  A    between atoms: C13_19  and  O6_20
REMARK   13  A    between atoms: C14_22  and  O7_23
REMARK   14  A    between atoms: C15_25  and  O8_26
REMARK   15  A    between atoms: C17_29  and  O9_31
ROOT
HETATM    1  C7  UNL     1     -12.261  10.578 -26.466  1.00  0.00     0.151 C
HETATM    2  C8  UNL     1     -12.769  10.607 -25.060  1.00  0.00     0.044 C
HETATM    3  C16 UNL     1     -11.911  11.461 -24.148  1.00  0.00     0.058 C
HETATM    4  C17 UNL     1     -10.707  10.682 -23.698  1.00  0.00     0.103 C
HETATM    5  C18 UNL     1      -9.542  11.592 -23.381  1.00  0.00     0.058 C
HETATM    6  S1  UNL     1     -10.293   9.438 -24.919  1.00  0.00    -0.125 SA
HETATM    7  C19 UNL     1     -10.849  10.027 -26.541  1.00  0.00     0.076 C
HETATM    8  C20 UNL     1      -9.862  11.045 -27.062  1.00  0.00     0.024 C
ENDROOT
BRANCH   2   9
HETATM    9  C9  UNL     1     -14.224  10.832 -24.910  1.00  0.00     0.178 C
BRANCH   9  10
HETATM   10  O3  UNL     1     -15.005   9.769 -24.557  1.00  0.00    -0.358 OA
BRANCH  10  11
HETATM   11  C10 UNL     1     -14.519   9.073 -23.457  1.00  0.00     0.291 C
HETATM   12  O4  UNL     1     -15.255   9.462 -22.343  1.00  0.00    -0.348 OA
HETATM   13  C11 UNL     1     -14.668   9.142 -21.133  1.00  0.00     0.179 C
HETATM   14  C13 UNL     1     -14.000   7.819 -21.183  1.00  0.00     0.180 C
HETATM   15  C14 UNL     1     -14.556   6.889 -22.258  1.00  0.00     0.183 C
HETATM   16  C15 UNL     1     -14.512   7.572 -23.618  1.00  0.00     0.204 C
BRANCH  13  17
HETATM   17  C12 UNL     1     -13.804  10.258 -20.600  1.00  0.00     0.198 C
BRANCH  17  18
HETATM   18  O5  UNL     1     -14.115  11.490 -21.111  1.00  0.00    -0.398 OA
ATOM     19  H5  UNL     1     -13.408  12.122 -21.044  1.00  0.00     0.209 HD
ENDBRANCH  17  18
ENDBRANCH  13  17
BRANCH  14  20
HETATM   20  O6  UNL     1     -12.611   7.897 -21.316  1.00  0.00    -0.390 OA
ATOM     21  H6  UNL     1     -12.147   7.177 -20.905  1.00  0.00     0.210 HD
ENDBRANCH  14  20
BRANCH  15  22
HETATM   22  O7  UNL     1     -13.824   5.718 -22.345  1.00  0.00    -0.390 OA
ATOM     23  H7  UNL     1     -14.370   4.983 -22.599  1.00  0.00     0.210 HD
ENDBRANCH  15  22
BRANCH  16  24
HETATM   24  O8  UNL     1     -15.548   7.066 -24.360  1.00  0.00    -0.388 OA
ATOM     25  H8  UNL     1     -15.524   6.125 -24.490  1.00  0.00     0.210 HD
ENDBRANCH  16  24
ENDBRANCH  10  11
ENDBRANCH   9  10
ENDBRANCH   2   9
BRANCH   1  26
HETATM   26  O2  UNL     1     -12.223  11.837 -27.107  1.00  0.00    -0.314 OA
BRANCH  26  27
HETATM   27  C6  UNL     1     -12.966  12.084 -28.276  1.00  0.00     0.259 C
HETATM   28  O1  UNL     1     -12.291  12.477 -29.260  1.00  0.00    -0.265 OA
BRANCH  27  29
HETATM   29  C5  UNL     1     -14.430  11.894 -28.336  1.00  0.00     0.111 C
BRANCH  29  30
HETATM   30  C4  UNL     1     -15.190  13.185 -28.185  1.00  0.00     0.010 C
BRANCH  30  31
HETATM   31  C3  UNL     1     -16.083  13.499 -29.351  1.00  0.00     0.000 C
BRANCH  31  32
HETATM   32  C2  UNL     1     -16.986  14.666 -29.122  1.00  0.00    -0.005 C
HETATM   33  C1  UNL     1     -16.503  15.535 -27.980  1.00  0.00     0.005 C
ENDBRANCH  31  32
ENDBRANCH  30  31
ENDBRANCH  29  30
ENDBRANCH  27  29
ENDBRANCH  26  27
ENDBRANCH   1  26
BRANCH   4  34
HETATM   34  O9  UNL     1     -11.067   9.995 -22.519  1.00  0.00    -0.380 OA
ATOM     35  H9  UNL     1     -10.292   9.542 -22.206  1.00  0.00     0.211 HD
ENDBRANCH   4  34
TORSDOF 15
ENDMDL