MODEL 1
REMARK VINA RESULT: -5.447809145      0.000      0.000
REMARK  15 active torsions:
REMARK  status: ('A' for Active; 'I' for Inactive)
REMARK    1  A    between atoms: C2_2  and  C3_3
REMARK    2  A    between atoms: C3_3  and  C4_4
REMARK    3  A    between atoms: C4_4  and  C5_5
REMARK    4  A    between atoms: C5_5  and  C6_6
REMARK    5  A    between atoms: C6_6  and  O1_7
REMARK    6  A    between atoms: C7_10  and  O3_11
REMARK    7  A    between atoms: C7_10  and  C8_13
REMARK    8  A    between atoms: C8_13  and  C9_14
REMARK    9  A    between atoms: C13_18  and  O4_19
REMARK   10  A    between atoms: C14_21  and  O5_22
REMARK   11  A    between atoms: O5_22  and  C15_23
REMARK   12  A    between atoms: C18_27  and  O7_28
REMARK   13  A    between atoms: O7_28  and  C19_29
REMARK   14  A    between atoms: C21_32  and  O9_33
REMARK   15  A    between atoms: C22_35  and  O10_36
ROOT
HETATM    1  C6  UNL     1     -21.249   6.326 -33.182  1.00  0.00     0.194 C
HETATM    2  O2  UNL     1     -21.486   7.634 -33.449  1.00  0.00    -0.317 OA
HETATM    3  C7  UNL     1     -22.072   8.296 -32.344  1.00  0.00     0.168 C
HETATM    4  C12 UNL     1     -23.468   7.800 -32.303  1.00  0.00     0.102 C
HETATM    5  C13 UNL     1     -23.636   6.303 -32.395  1.00  0.00     0.157 C
HETATM    6  C14 UNL     1     -22.486   5.522 -32.877  1.00  0.00     0.216 C
ENDROOT
BRANCH   6   7
HETATM    7  O5  UNL     1     -22.134   4.497 -32.054  1.00  0.00    -0.345 OA
BRANCH   7   8
HETATM    8  C15 UNL     1     -22.682   4.473 -30.816  1.00  0.00     0.292 C
HETATM    9  O6  UNL     1     -23.330   3.339 -30.413  1.00  0.00    -0.351 OA
HETATM   10  C16 UNL     1     -24.282   3.694 -29.462  1.00  0.00     0.152 C
HETATM   11  C17 UNL     1     -24.592   2.514 -28.560  1.00  0.00     0.042 C
HETATM   12  C18 UNL     1     -23.964   4.882 -28.641  1.00  0.00     0.191 C
HETATM   13  C21 UNL     1     -22.522   5.252 -28.538  1.00  0.00     0.183 C
HETATM   14  C22 UNL     1     -21.686   4.785 -29.697  1.00  0.00     0.204 C
BRANCH  12  15
HETATM   15  O7  UNL     1     -24.489   4.772 -27.319  1.00  0.00    -0.311 OA
BRANCH  15  16
HETATM   16  C19 UNL     1     -25.323   5.720 -26.754  1.00  0.00     0.255 C
HETATM   17  C20 UNL     1     -26.372   5.461 -25.767  1.00  0.00     0.126 C
HETATM   18  O8  UNL     1     -25.146   6.922 -27.141  1.00  0.00    -0.266 OA
ENDBRANCH  15  16
ENDBRANCH  12  15
BRANCH  13  19
HETATM   19  O9  UNL     1     -22.356   6.659 -28.486  1.00  0.00    -0.390 OA
ATOM     20  H9  UNL     1     -21.605   6.935 -28.997  1.00  0.00     0.210 HD
ENDBRANCH  13  19
BRANCH  14  21
HETATM   21  O10 UNL     1     -21.030   3.613 -29.291  1.00  0.00    -0.388 OA
ATOM     22  H10 UNL     1     -20.241   3.484 -29.803  1.00  0.00     0.210 HD
ENDBRANCH  14  21
ENDBRANCH   7   8
ENDBRANCH   6   7
BRANCH   1  23
HETATM   23  C5  UNL     1     -20.562   5.743 -34.428  1.00  0.00     0.071 C
BRANCH  23  24
HETATM   24  C4  UNL     1     -21.490   5.959 -35.622  1.00  0.00     0.005 C
BRANCH  24  25
HETATM   25  C3  UNL     1     -20.592   6.197 -36.817  1.00  0.00    -0.000 C
BRANCH  25  26
HETATM   26  C2  UNL     1     -21.351   6.852 -37.956  1.00  0.00    -0.005 C
HETATM   27  C1  UNL     1     -20.676   8.160 -38.324  1.00  0.00     0.005 C
ENDBRANCH  25  26
ENDBRANCH  24  25
ENDBRANCH  23  24
ENDBRANCH   1  23
BRANCH   1  28
HETATM   28  O1  UNL     1     -20.299   6.219 -32.174  1.00  0.00    -0.363 OA
ATOM     29  H1  UNL     1     -20.495   5.394 -31.745  1.00  0.00     0.213 HD
ENDBRANCH   1  28
BRANCH   5  30
HETATM   30  O4  UNL     1     -24.796   6.070 -33.142  1.00  0.00    -0.393 OA
ATOM     31  H4  UNL     1     -25.104   5.203 -32.908  1.00  0.00     0.210 HD
ENDBRANCH   5  30
BRANCH   3  32
HETATM   32  O3  UNL     1     -21.459   7.991 -31.143  1.00  0.00    -0.365 OA
ATOM     33  H3  UNL     1     -22.076   7.864 -30.432  1.00  0.00     0.213 HD
ENDBRANCH   3  32
BRANCH   3  34
HETATM   34  C8  UNL     1     -21.946   9.746 -32.602  1.00  0.00     0.072 C
BRANCH  34  35
HETATM   35  C9  UNL     1     -21.061  10.591 -31.794  1.00  0.00    -0.018 C
HETATM   36  C10 UNL     1     -21.637  11.188 -30.554  1.00  0.00     0.009 C
HETATM   37  C11 UNL     1     -20.536  11.762 -32.653  1.00  0.00     0.009 C
ENDBRANCH  34  35
ENDBRANCH   3  34
TORSDOF 15
ENDMDL