MODEL 3
REMARK VINA RESULT: -6.123482781      3.069      4.913
REMARK  13 active torsions:
REMARK  status: ('A' for Active; 'I' for Inactive)
REMARK    1  A    between atoms: C6_8  and  C7_9
REMARK    2  A    between atoms: C7_9  and  C8_10
REMARK    3  A    between atoms: C8_10  and  C9_11
REMARK    4  A    between atoms: C9_11  and  C10_12
REMARK    5  A    between atoms: C10_12  and  C11_13
REMARK    6  A    between atoms: C11_13  and  C12_14
REMARK    7  A    between atoms: C12_14  and  N1_15
REMARK    8  A    between atoms: C13_16  and  C14_17
REMARK    9  A    between atoms: C15_19  and  C16_20
REMARK   10  A    between atoms: C16_20  and  O4_21
REMARK   11  A    between atoms: C17_23  and  O5_24
REMARK   12  A    between atoms: C18_26  and  O6_27
REMARK   13  A    between atoms: C19_29  and  O7_30
ROOT
HETATM    1  N1  UNL     1     -21.552   5.033 -31.329  1.00  0.00    -0.309 N
HETATM    2  C13 UNL     1     -21.235   4.800 -30.009  1.00  0.00     0.132 A
HETATM    3  N2  UNL     1     -19.901   4.760 -29.971  1.00  0.00    -0.284 N
ATOM      4  H2  UNL     1     -19.350   4.603 -29.127  1.00  0.00     0.188 HD
HETATM    5  N3  UNL     1     -19.396   4.949 -31.161  1.00  0.00    -0.275 N
ATOM      6  H3  UNL     1     -18.404   4.965 -31.399  1.00  0.00     0.189 HD
HETATM    7  C20 UNL     1     -20.441   5.122 -32.030  1.00  0.00     0.194 A
HETATM    8  S1  UNL     1     -20.199   5.351 -33.656  1.00  0.00    -0.039 SA
ENDROOT
BRANCH   2   9
HETATM    9  C14 UNL     1     -22.191   4.606 -28.867  1.00  0.00     0.222 C
HETATM   10  O3  UNL     1     -21.759   5.338 -27.832  1.00  0.00    -0.365 OA
HETATM   11  C15 UNL     1     -22.040   4.990 -26.565  1.00  0.00     0.177 C
HETATM   12  C17 UNL     1     -23.026   3.879 -26.367  1.00  0.00     0.180 C
HETATM   13  C18 UNL     1     -22.715   2.719 -27.276  1.00  0.00     0.181 C
HETATM   14  C19 UNL     1     -22.380   3.142 -28.675  1.00  0.00     0.185 C
BRANCH  11  15
HETATM   15  C16 UNL     1     -20.786   4.777 -25.704  1.00  0.00     0.198 C
BRANCH  15  16
HETATM   16  O4  UNL     1     -20.282   5.950 -25.215  1.00  0.00    -0.398 OA
ATOM     17  H4  UNL     1     -19.971   6.527 -25.902  1.00  0.00     0.209 HD
ENDBRANCH  15  16
ENDBRANCH  11  15
BRANCH  12  18
HETATM   18  O5  UNL     1     -24.303   4.382 -26.540  1.00  0.00    -0.390 OA
ATOM     19  H5  UNL     1     -24.623   4.698 -25.703  1.00  0.00     0.210 HD
ENDBRANCH  12  18
BRANCH  13  20
HETATM   20  O6  UNL     1     -23.843   1.875 -27.232  1.00  0.00    -0.390 OA
ATOM     21  H6  UNL     1     -23.523   0.999 -27.410  1.00  0.00     0.210 HD
ENDBRANCH  13  20
BRANCH  14  22
HETATM   22  O7  UNL     1     -21.226   2.454 -29.060  1.00  0.00    -0.390 OA
ATOM     23  H7  UNL     1     -21.400   1.936 -29.838  1.00  0.00     0.210 HD
ENDBRANCH  14  22
ENDBRANCH   2   9
BRANCH   1  24
HETATM   24  C12 UNL     1     -22.932   5.124 -31.763  1.00  0.00     0.133 C
BRANCH  24  25
HETATM   25  C11 UNL     1     -23.602   6.422 -31.574  1.00  0.00     0.020 C
BRANCH  25  26
HETATM   26  C10 UNL     1     -23.152   7.619 -32.305  1.00  0.00     0.002 C
BRANCH  26  27
HETATM   27  C9  UNL     1     -22.230   8.546 -31.553  1.00  0.00     0.000 C
BRANCH  27  28
HETATM   28  C8  UNL     1     -21.480   9.450 -32.538  1.00  0.00     0.001 C
BRANCH  28  29
HETATM   29  C7  UNL     1     -21.685  10.906 -32.182  1.00  0.00     0.012 C
BRANCH  29  30
HETATM   30  C6  UNL     1     -20.338  11.499 -31.889  1.00  0.00     0.053 C
HETATM   31  C2  UNL     1     -20.240  12.103 -30.556  1.00  0.00     0.014 C
HETATM   32  C1  UNL     1     -20.891  11.716 -29.482  1.00  0.00     0.025 C
HETATM   33  C3  UNL     1     -19.279  13.204 -30.691  1.00  0.00     0.289 C
HETATM   34  O1  UNL     1     -18.869  13.912 -29.724  1.00  0.00    -0.260 OA
HETATM   35  O2  UNL     1     -18.948  13.282 -32.034  1.00  0.00    -0.312 OA
HETATM   36  C4  UNL     1     -19.985  12.648 -32.798  1.00  0.00     0.136 C
HETATM   37  C5  UNL     1     -21.114  13.638 -32.930  1.00  0.00     0.041 C
ENDBRANCH  29  30
ENDBRANCH  28  29
ENDBRANCH  27  28
ENDBRANCH  26  27
ENDBRANCH  25  26
ENDBRANCH  24  25
ENDBRANCH   1  24
TORSDOF 13
ENDMDL