MODEL 4
REMARK VINA RESULT: -5.445292921      1.319      1.850
REMARK  14 active torsions:
REMARK  status: ('A' for Active; 'I' for Inactive)
REMARK    1  A    between atoms: C2_2  and  C3_3
REMARK    2  A    between atoms: C3_3  and  C4_4
REMARK    3  A    between atoms: C4_4  and  C5_5
REMARK    4  A    between atoms: C5_5  and  C6_6
REMARK    5  A    between atoms: C6_6  and  O1_7
REMARK    6  A    between atoms: C6_6  and  C12_19
REMARK    7  A    between atoms: O1_7  and  C7_8
REMARK    8  A    between atoms: C10_13  and  O4_14
REMARK    9  A    between atoms: C11_16  and  O5_17
REMARK   10  A    between atoms: C13_20  and  O6_21
REMARK   11  A    between atoms: C14_23  and  O7_25
REMARK   12  A    between atoms: C16_27  and  O8_28
REMARK   13  A    between atoms: C16_27  and  C17_30
REMARK   14  A    between atoms: C20_34  and  O10_36
ROOT
HETATM    1  C12 UNL     1     -22.500   6.074 -33.540  1.00  0.00     0.081 C
HETATM    2  C13 UNL     1     -21.217   6.335 -34.375  1.00  0.00     0.165 C
HETATM    3  C14 UNL     1     -20.700   4.950 -34.717  1.00  0.00     0.118 C
HETATM    4  C15 UNL     1     -19.324   5.108 -35.326  1.00  0.00     0.052 C
HETATM    5  C16 UNL     1     -21.681   4.273 -35.624  1.00  0.00     0.153 C
HETATM    6  C19 UNL     1     -22.982   4.972 -35.770  1.00  0.00     0.087 C
HETATM    7  C20 UNL     1     -23.547   5.573 -34.493  1.00  0.00     0.068 C
HETATM    8  C21 UNL     1     -24.379   4.475 -33.868  1.00  0.00     0.047 C
ENDROOT
BRANCH   1   9
HETATM    9  C6  UNL     1     -22.818   7.295 -32.753  1.00  0.00     0.134 C
BRANCH   9  10
HETATM   10  C5  UNL     1     -21.546   8.133 -32.513  1.00  0.00     0.032 C
BRANCH  10  11
HETATM   11  C4  UNL     1     -21.735   9.590 -32.649  1.00  0.00     0.002 C
BRANCH  11  12
HETATM   12  C3  UNL     1     -21.658  10.193 -31.236  1.00  0.00    -0.000 C
BRANCH  12  13
HETATM   13  C2  UNL     1     -20.812  11.433 -31.248  1.00  0.00    -0.005 C
HETATM   14  C1  UNL     1     -20.495  11.854 -32.664  1.00  0.00     0.005 C
ENDBRANCH  12  13
ENDBRANCH  11  12
ENDBRANCH  10  11
ENDBRANCH   9  10
BRANCH   9  15
HETATM   15  O1  UNL     1     -23.208   7.017 -31.445  1.00  0.00    -0.353 OA
BRANCH  15  16
HETATM   16  C7  UNL     1     -22.300   6.326 -30.698  1.00  0.00     0.296 C
HETATM   17  O2  UNL     1     -22.345   4.933 -30.991  1.00  0.00    -0.329 OA
HETATM   18  C8  UNL     1     -22.952   4.222 -29.985  1.00  0.00     0.262 C
HETATM   19  C9  UNL     1     -23.250   2.790 -30.358  1.00  0.00     0.071 C
HETATM   20  O3  UNL     1     -22.294   4.282 -28.766  1.00  0.00    -0.329 OA
HETATM   21  C10 UNL     1     -21.410   5.351 -28.674  1.00  0.00     0.293 C
HETATM   22  C11 UNL     1     -22.146   6.570 -29.261  1.00  0.00     0.228 C
BRANCH  21  23
HETATM   23  O4  UNL     1     -20.212   5.123 -29.298  1.00  0.00    -0.368 OA
ATOM     24  H4  UNL     1     -19.557   5.787 -29.114  1.00  0.00     0.212 HD
ENDBRANCH  21  23
BRANCH  22  25
HETATM   25  O5  UNL     1     -23.307   6.663 -28.510  1.00  0.00    -0.386 OA
ATOM     26  H5  UNL     1     -23.309   7.287 -27.794  1.00  0.00     0.210 HD
ENDBRANCH  22  25
ENDBRANCH  15  16
ENDBRANCH   9  15
ENDBRANCH   1   9
BRANCH   2  27
HETATM   27  O6  UNL     1     -21.422   7.012 -35.523  1.00  0.00    -0.392 OA
ATOM     28  H6  UNL     1     -20.754   7.657 -35.727  1.00  0.00     0.210 HD
ENDBRANCH   2  27
BRANCH   7  29
HETATM   29  O10 UNL     1     -24.436   6.568 -34.883  1.00  0.00    -0.385 OA
HETATM   30  C22 UNL     1     -25.233   6.223 -35.941  1.00  0.00     0.202 C
ENDBRANCH   7  29
BRANCH   3  31
HETATM   31  O7  UNL     1     -20.551   4.267 -33.515  1.00  0.00    -0.384 OA
ATOM     32  H7  UNL     1     -20.307   3.376 -33.733  1.00  0.00     0.210 HD
ENDBRANCH   3  31
BRANCH   5  33
HETATM   33  O8  UNL     1     -21.866   2.967 -35.111  1.00  0.00    -0.379 OA
ATOM     34  H8  UNL     1     -22.793   2.883 -34.917  1.00  0.00     0.211 HD
ENDBRANCH   5  33
BRANCH   5  35
HETATM   35  C17 UNL     1     -21.058   4.131 -36.965  1.00  0.00     0.160 C
HETATM   36  C18 UNL     1     -20.413   2.872 -37.409  1.00  0.00     0.094 C
HETATM   37  O9  UNL     1     -21.070   5.072 -37.739  1.00  0.00    -0.295 OA
ENDBRANCH   5  35
TORSDOF 14
ENDMDL