MODEL 1
REMARK VINA RESULT: -5.941930620      0.000      0.000
REMARK  15 active torsions:
REMARK  status: ('A' for Active; 'I' for Inactive)
REMARK    1  A    between atoms: C2_2  and  C3_3
REMARK    2  A    between atoms: C3_3  and  N1_4
REMARK    3  A    between atoms: C6_7  and  S1_8
REMARK    4  A    between atoms: S1_8  and  C7_9
REMARK    5  A    between atoms: C7_9  and  C8_10
REMARK    6  A    between atoms: C9_12  and  C10_13
REMARK    7  A    between atoms: C10_13  and  N2_14
REMARK    8  A    between atoms: C10_13  and  O2_18
REMARK    9  A    between atoms: C11_20  and  O3_21
REMARK   10  A    between atoms: O3_21  and  C12_22
REMARK   11  A    between atoms: C12_22  and  C13_24
REMARK   12  A    between atoms: C13_24  and  C15_26
REMARK   13  A    between atoms: C17_28  and  C18_29
REMARK   14  A    between atoms: C18_29  and  N3_30
REMARK   15  A    between atoms: C19_34  and  O5_35
ROOT
HETATM    1  C8  UNL     1     -21.682   8.756 -31.498  1.00  0.00     0.160 C
HETATM    2  O1  UNL     1     -22.697   8.558 -30.561  1.00  0.00    -0.370 OA
HETATM    3  C9  UNL     1     -22.443   7.412 -29.844  1.00  0.00     0.208 C
HETATM    4  C11 UNL     1     -21.678   6.360 -30.629  1.00  0.00     0.173 C
HETATM    5  C17 UNL     1     -21.928   6.405 -32.082  1.00  0.00     0.074 C
HETATM    6  C19 UNL     1     -22.016   7.823 -32.653  1.00  0.00     0.156 C
ENDROOT
BRANCH   1   7
HETATM    7  C7  UNL     1     -21.612  10.194 -31.950  1.00  0.00     0.108 C
BRANCH   7   8
HETATM    8  S1  UNL     1     -21.810  11.360 -30.610  1.00  0.00    -0.162 SA
BRANCH   8   9
HETATM    9  C6  UNL     1     -20.421  12.481 -30.465  1.00  0.00     0.050 C
HETATM   10  C5  UNL     1     -20.837  13.809 -29.831  1.00  0.00     0.034 C
HETATM   11  C4  UNL     1     -19.649  14.764 -29.899  1.00  0.00     0.118 C
HETATM   12  N1  UNL     1     -18.478  14.017 -30.193  1.00  0.00    -0.409 N
HETATM   13  C21 UNL     1     -18.395  13.436 -31.483  1.00  0.00     0.118 C
HETATM   14  C20 UNL     1     -19.766  12.809 -31.781  1.00  0.00     0.034 C
BRANCH  12  15
HETATM   15  C3  UNL     1     -17.270  14.429 -29.574  1.00  0.00     0.143 C
BRANCH  15  16
HETATM   16  C2  UNL     1     -17.575  15.577 -28.685  1.00  0.00    -0.018 C
HETATM   17  C1  UNL     1     -16.743  16.037 -27.759  1.00  0.00     0.008 C
ENDBRANCH  15  16
ENDBRANCH  12  15
ENDBRANCH   8   9
ENDBRANCH   7   8
ENDBRANCH   1   7
BRANCH   6  18
HETATM   18  O5  UNL     1     -23.306   7.995 -33.102  1.00  0.00    -0.392 OA
ATOM     19  H5  UNL     1     -23.440   7.611 -33.961  1.00  0.00     0.210 HD
ENDBRANCH   6  18
BRANCH   3  20
HETATM   20  C10 UNL     1     -23.716   6.872 -29.257  1.00  0.00     0.348 C
BRANCH  20  21
HETATM   21  N2  UNL     1     -24.844   6.936 -30.108  1.00  0.00    -0.050 N
ATOM     22  H23 UNL     1     -24.652   7.548 -30.901  1.00  0.00     0.277 HD
ATOM     23  H22 UNL     1     -24.969   6.048 -30.594  1.00  0.00     0.277 HD
ATOM     24  H21 UNL     1     -25.715   7.212 -29.654  1.00  0.00     0.277 HD
ENDBRANCH  20  21
BRANCH  20  25
HETATM   25  O2  UNL     1     -23.980   7.597 -28.095  1.00  0.00    -0.368 OA
ATOM     26  H2  UNL     1     -23.836   7.015 -27.358  1.00  0.00     0.212 HD
ENDBRANCH  20  25
ENDBRANCH   3  20
BRANCH   5  27
HETATM   27  C18 UNL     1     -20.821   5.734 -32.853  1.00  0.00     0.239 C
BRANCH  27  28
HETATM   28  N3  UNL     1     -19.620   5.496 -32.100  1.00  0.00    -0.079 N
ATOM     29  H33 UNL     1     -19.090   4.730 -32.515  1.00  0.00     0.274 HD
ATOM     30  H32 UNL     1     -18.960   6.262 -32.237  1.00  0.00     0.274 HD
ATOM     31  H31 UNL     1     -19.765   5.328 -31.105  1.00  0.00     0.274 HD
ENDBRANCH  27  28
ENDBRANCH   5  27
BRANCH   4  32
HETATM   32  O3  UNL     1     -22.098   5.102 -30.110  1.00  0.00    -0.312 OA
BRANCH  32  33
HETATM   33  C12 UNL     1     -21.352   4.312 -29.278  1.00  0.00     0.263 C
HETATM   34  O4  UNL     1     -20.096   4.482 -29.195  1.00  0.00    -0.265 OA
BRANCH  33  35
HETATM   35  C13 UNL     1     -21.974   3.258 -28.468  1.00  0.00     0.081 C
HETATM   36  C14 UNL     1     -23.445   3.173 -28.752  1.00  0.00     0.020 C
BRANCH  35  37
HETATM   37  C15 UNL     1     -21.756   3.432 -26.978  1.00  0.00     0.010 C
HETATM   38  C16 UNL     1     -22.440   4.679 -26.492  1.00  0.00     0.006 C
ENDBRANCH  35  37
ENDBRANCH  33  35
ENDBRANCH  32  33
ENDBRANCH   4  32
TORSDOF 15
ENDMDL