MODEL 4
REMARK VINA RESULT: -6.087098605      1.941      4.543
REMARK  14 active torsions:
REMARK  status: ('A' for Active; 'I' for Inactive)
REMARK    1  A    between atoms: C2_2  and  C3_3
REMARK    2  A    between atoms: C3_3  and  C4_4
REMARK    3  A    between atoms: C4_4  and  C5_5
REMARK    4  A    between atoms: C5_5  and  C6_6
REMARK    5  A    between atoms: C9_9  and  S1_10
REMARK    6  A    between atoms: S1_10  and  C10_11
REMARK    7  A    between atoms: C11_13  and  O2_14
REMARK    8  A    between atoms: O2_14  and  C12_15
REMARK    9  A    between atoms: C14_18  and  O4_19
REMARK   10  A    between atoms: C16_22  and  O5_23
REMARK   11  A    between atoms: C17_25  and  O6_26
REMARK   12  A    between atoms: C18_28  and  O7_29
REMARK   13  A    between atoms: C19_31  and  C20_32
REMARK   14  A    between atoms: C20_32  and  O8_33
ROOT
HETATM    1  C10 UNL     1     -22.205   8.383 -31.514  1.00  0.00     0.195 C
HETATM    2  O1  UNL     1     -21.544   7.292 -32.071  1.00  0.00    -0.342 OA
HETATM    3  C11 UNL     1     -22.367   6.198 -32.056  1.00  0.00     0.295 C
HETATM    4  C17 UNL     1     -23.218   6.079 -30.813  1.00  0.00     0.202 C
HETATM    5  C18 UNL     1     -22.536   6.806 -29.698  1.00  0.00     0.161 C
HETATM    6  C19 UNL     1     -22.404   8.260 -30.031  1.00  0.00     0.080 C
ENDROOT
BRANCH   1   7
HETATM    7  S1  UNL     1     -21.429   9.963 -31.955  1.00  0.00    -0.130 SA
BRANCH   7   8
HETATM    8  C9  UNL     1     -21.057  10.950 -30.492  1.00  0.00     0.076 C
HETATM    9  C8  UNL     1     -19.754  11.737 -30.655  1.00  0.00     0.055 C
HETATM   10  C5  UNL     1     -20.252  13.129 -30.765  1.00  0.00     0.061 C
HETATM   11  O9  UNL     1     -21.442  13.202 -30.051  1.00  0.00    -0.379 OA
HETATM   12  C21 UNL     1     -22.093  11.988 -30.234  1.00  0.00     0.184 C
BRANCH  10  13
HETATM   13  C4  UNL     1     -19.316  14.192 -30.350  1.00  0.00     0.038 C
BRANCH  13  14
HETATM   14  C3  UNL     1     -17.898  13.864 -30.145  1.00  0.00     0.002 C
BRANCH  14  15
HETATM   15  C2  UNL     1     -17.206  14.743 -29.135  1.00  0.00    -0.004 C
HETATM   16  C1  UNL     1     -18.057  15.904 -28.706  1.00  0.00     0.005 C
ENDBRANCH  14  15
ENDBRANCH  13  14
ENDBRANCH  10  13
BRANCH  10  17
HETATM   17  C6  UNL     1     -20.643  13.417 -32.229  1.00  0.00     0.033 C
HETATM   18  C7  UNL     1     -19.682  12.727 -33.169  1.00  0.00     0.008 C
ENDBRANCH  10  17
ENDBRANCH   7   8
ENDBRANCH   1   7
BRANCH   6  19
HETATM   19  C20 UNL     1     -23.571   9.085 -29.537  1.00  0.00     0.174 C
BRANCH  19  20
HETATM   20  O8  UNL     1     -23.273   9.501 -28.241  1.00  0.00    -0.400 OA
ATOM     21  H8  UNL     1     -22.736   8.827 -27.841  1.00  0.00     0.209 HD
ENDBRANCH  19  20
ENDBRANCH   6  19
BRANCH   3  22
HETATM   22  O2  UNL     1     -21.699   4.992 -32.203  1.00  0.00    -0.326 OA
BRANCH  22  23
HETATM   23  C12 UNL     1     -20.343   5.061 -32.023  1.00  0.00     0.291 C
HETATM   24  O3  UNL     1     -19.739   4.404 -33.111  1.00  0.00    -0.356 OA
HETATM   25  C13 UNL     1     -20.262   3.107 -33.108  1.00  0.00     0.202 C
HETATM   26  C14 UNL     1     -19.539   2.349 -32.017  1.00  0.00     0.144 C
HETATM   27  C15 UNL     1     -19.845   2.982 -30.703  1.00  0.00     0.070 C
HETATM   28  C16 UNL     1     -19.888   4.465 -30.710  1.00  0.00     0.175 C
BRANCH  26  29
HETATM   29  O4  UNL     1     -18.189   2.272 -32.314  1.00  0.00    -0.393 OA
ATOM     30  H4  UNL     1     -17.677   2.508 -31.549  1.00  0.00     0.210 HD
ENDBRANCH  26  29
BRANCH  28  31
HETATM   31  O5  UNL     1     -18.679   4.999 -30.286  1.00  0.00    -0.391 OA
ATOM     32  H5  UNL     1     -18.787   5.851 -29.881  1.00  0.00     0.210 HD
ENDBRANCH  28  31
ENDBRANCH  22  23
ENDBRANCH   3  22
BRANCH   5  33
HETATM   33  O7  UNL     1     -23.195   6.590 -28.485  1.00  0.00    -0.392 OA
ATOM     34  H7  UNL     1     -23.331   5.662 -28.333  1.00  0.00     0.210 HD
ENDBRANCH   5  33
BRANCH   4  35
HETATM   35  O6  UNL     1     -24.521   6.525 -31.030  1.00  0.00    -0.388 OA
ATOM     36  H6  UNL     1     -24.712   7.314 -30.537  1.00  0.00     0.210 HD
ENDBRANCH   4  35
TORSDOF 14
ENDMDL