MODEL 2
REMARK VINA RESULT: -6.734011956      1.661      5.361
REMARK  5 active torsions:
REMARK  status: ('A' for Active; 'I' for Inactive)
REMARK    1  A    between atoms: N1_2  and  C2_5
REMARK    2  A    between atoms: C2_5  and  C3_6
REMARK    3  A    between atoms: C3_6  and  N2_7
REMARK    4  A    between atoms: N2_7  and  C4_9
REMARK    5  A    between atoms: C5_12  and  N4_13
ROOT
HETATM    1  C4  UNL     1      17.085   2.097  13.913  1.00  0.00     0.125 A
HETATM    2  N3  UNL     1      17.118   3.300  13.330  1.00  0.00    -0.176 N
ATOM      3  H3  UNL     1      17.679   3.411  12.486  1.00  0.00     0.186 HD
HETATM    4  C5  UNL     1      16.440   4.392  13.806  1.00  0.00     0.682 A
HETATM    5  N5  UNL     1      15.717   4.199  14.920  1.00  0.00    -0.195 N
ATOM      6  H5  UNL     1      15.200   4.990  15.302  1.00  0.00     0.184 HD
HETATM    7  C11 UNL     1      15.636   3.003  15.568  1.00  0.00     0.036 A
HETATM    8  C12 UNL     1      16.333   1.929  15.055  1.00  0.00     0.009 A
HETATM    9  C13 UNL     1      16.442   0.521  15.532  1.00  0.00     0.044 C
HETATM   10  C14 UNL     1      15.819   0.476  16.934  1.00  0.00     0.005 C
HETATM   11  C15 UNL     1      14.346   0.620  16.754  1.00  0.00     0.001 C
HETATM   12  C16 UNL     1      13.802   1.992  16.931  1.00  0.00     0.006 C
HETATM   13  C17 UNL     1      14.777   3.111  16.740  1.00  0.00     0.058 C
ENDROOT
BRANCH   1  14
HETATM   14  N2  UNL     1      17.721   1.081  13.458  1.00  0.00    -0.374 N
ATOM     15  H2  UNL     1      18.016   0.388  14.147  1.00  0.00     0.161 HD
BRANCH  14  16
HETATM   16  C3  UNL     1      18.062   0.807  12.104  1.00  0.00     0.148 C
BRANCH  16  17
HETATM   17  C2  UNL     1      16.999  -0.036  11.403  1.00  0.00     0.251 C
BRANCH  17  18
HETATM   18  N1  UNL     1      17.006  -1.398  11.946  1.00  0.00    -0.077 N
HETATM   19  C1  UNL     1      18.155  -2.139  11.429  1.00  0.00     0.267 C
ATOM     20  H12 UNL     1      16.126  -1.884  11.768  1.00  0.00     0.276 HD
ATOM     21  H11 UNL     1      16.975  -1.402  12.965  1.00  0.00     0.276 HD
ENDBRANCH  17  18
ENDBRANCH  16  17
ENDBRANCH  14  16
ENDBRANCH   1  14
BRANCH   4  22
HETATM   22  N4  UNL     1      16.546   5.626  13.111  1.00  0.00    -0.218 N
HETATM   23  C6  UNL     1      17.746   6.434  13.272  1.00  0.00     0.141 C
HETATM   24  C7  UNL     1      18.432   6.689  11.941  1.00  0.00     0.020 C
HETATM   25  C8  UNL     1      17.383   7.310  11.038  1.00  0.00     0.003 C
HETATM   26  C9  UNL     1      16.181   6.416  10.894  1.00  0.00     0.020 C
HETATM   27  C10 UNL     1      15.533   6.143  12.243  1.00  0.00     0.141 C
ENDBRANCH   4  22
TORSDOF 5
ENDMDL