MODEL 2
REMARK VINA RESULT: -7.302861999      2.871      3.754
REMARK  4 active torsions:
REMARK  status: ('A' for Active; 'I' for Inactive)
REMARK    1  A    between atoms: C4_8  and  C5_9
REMARK    2  A    between atoms: C5_9  and  C6_10
REMARK    3  A    between atoms: C6_10  and  C7_11
REMARK    4  A    between atoms: C7_11  and  N3_12
ROOT
HETATM    1  C1  UNL     1      14.360   2.938  16.958  1.00  0.00     0.069 C
HETATM    2  C2  UNL     1      15.260   2.309  15.968  1.00  0.00     0.017 A
HETATM    3  N1  UNL     1      15.744   3.027  14.932  1.00  0.00    -0.344 N
ATOM      4  H1  UNL     1      15.482   4.009  14.840  1.00  0.00     0.167 HD
HETATM    5  C3  UNL     1      16.572   2.474  14.010  1.00  0.00     0.138 A
HETATM    6  N2  UNL     1      17.183   2.921  12.920  1.00  0.00    -0.330 N
ATOM      7  H2  UNL     1      17.124   3.870  12.552  1.00  0.00     0.168 HD
HETATM    8  C4  UNL     1      17.909   1.893  12.370  1.00  0.00     0.083 A
HETATM    9  N4  UNL     1      17.735   0.821  13.129  1.00  0.00    -0.340 N
ATOM     10  H4  UNL     1      18.151  -0.097  12.970  1.00  0.00     0.167 HD
HETATM   11  C12 UNL     1      16.918   1.148  14.144  1.00  0.00     0.129 A
HETATM   12  C13 UNL     1      16.428   0.392  15.206  1.00  0.00     0.210 A
HETATM   13  O2  UNL     1      16.757  -0.812  15.307  1.00  0.00    -0.285 OA
HETATM   14  C14 UNL     1      15.589   0.983  16.128  1.00  0.00     0.013 A
HETATM   15  C15 UNL     1      15.040   0.233  17.271  1.00  0.00     0.054 C
ENDROOT
BRANCH   8  16
HETATM   16  C5  UNL     1      18.657   2.131  11.127  1.00  0.00     0.078 C
BRANCH  16  17
HETATM   17  C6  UNL     1      20.146   2.158  11.256  1.00  0.00     0.038 C
BRANCH  17  18
HETATM   18  C7  UNL     1      20.605   3.491  11.708  1.00  0.00     0.273 C
BRANCH  18  19
HETATM   19  N3  UNL     1      21.344   4.242  10.726  1.00  0.00     0.092 N
HETATM   20  C8  UNL     1      21.941   3.284   9.813  1.00  0.00     0.298 C
HETATM   21  C9  UNL     1      23.317   3.715   9.359  1.00  0.00     0.198 C
HETATM   22  O1  UNL     1      24.206   3.878  10.398  1.00  0.00    -0.388 OA
HETATM   23  C10 UNL     1      23.571   4.206  11.607  1.00  0.00     0.198 C
HETATM   24  C11 UNL     1      22.384   5.054  11.275  1.00  0.00     0.298 C
ENDBRANCH  18  19
ENDBRANCH  17  18
ENDBRANCH  16  17
ENDBRANCH   8  16
TORSDOF 4
ENDMDL