MODEL 3
REMARK VINA RESULT: -6.770490862      2.543      4.474
REMARK  6 active torsions:
REMARK  status: ('A' for Active; 'I' for Inactive)
REMARK    1  A    between atoms: C2_2  and  C3_4
REMARK    2  A    between atoms: C3_4  and  N1_5
REMARK    3  A    between atoms: C6_8  and  C7_9
REMARK    4  A    between atoms: C6_8  and  C8_12
REMARK    5  A    between atoms: C7_9  and  O2_10
REMARK    6  A    between atoms: C8_12  and  O3_13
ROOT
HETATM    1  N1  UNL     1      17.360   2.119  13.378  1.00  0.00    -0.401 N
HETATM    2  C4  UNL     1      18.461   2.497  12.572  1.00  0.00     0.118 C
HETATM    3  C5  UNL     1      18.861   3.943  12.617  1.00  0.00     0.034 C
HETATM    4  C6  UNL     1      17.902   4.839  13.305  1.00  0.00     0.017 C
HETATM    5  C13 UNL     1      17.487   4.375  14.666  1.00  0.00     0.001 C
HETATM    6  C14 UNL     1      16.111   3.806  14.769  1.00  0.00     0.007 C
HETATM    7  C15 UNL     1      16.281   2.446  15.468  1.00  0.00     0.025 C
HETATM    8  C16 UNL     1      17.587   2.042  14.779  1.00  0.00     0.080 C
HETATM    9  C17 UNL     1      18.406   3.274  15.215  1.00  0.00     0.030 C
ENDROOT
BRANCH   4  10
HETATM   10  C7  UNL     1      16.707   5.016  12.364  1.00  0.00     0.177 C
BRANCH  10  11
HETATM   11  O2  UNL     1      17.045   4.842  11.043  1.00  0.00    -0.400 OA
ATOM     12  H2  UNL     1      17.894   5.212  10.832  1.00  0.00     0.209 HD
ENDBRANCH  10  11
ENDBRANCH   4  10
BRANCH   4  13
HETATM   13  C8  UNL     1      18.500   6.212  13.466  1.00  0.00     0.068 C
HETATM   14  C9  UNL     1      18.260   6.846  14.814  1.00  0.00     0.038 C
HETATM   15  C10 UNL     1      19.235   8.016  14.780  1.00  0.00     0.003 C
HETATM   16  C11 UNL     1      20.260   7.711  13.745  1.00  0.00     0.003 C
HETATM   17  C12 UNL     1      19.989   6.271  13.353  1.00  0.00     0.038 C
BRANCH  13  18
HETATM   18  O3  UNL     1      17.956   7.115  12.538  1.00  0.00    -0.389 OA
ATOM     19  H3  UNL     1      17.013   7.177  12.632  1.00  0.00     0.210 HD
ENDBRANCH  13  18
ENDBRANCH   4  13
BRANCH   1  20
HETATM   20  C3  UNL     1      16.587   1.031  12.879  1.00  0.00     0.195 C
BRANCH  20  21
HETATM   21  C2  UNL     1      16.198   1.131  11.459  1.00  0.00     0.140 C
HETATM   22  C1  UNL     1      16.555   0.050  10.519  1.00  0.00     0.092 C
HETATM   23  O1  UNL     1      15.592   2.096  11.075  1.00  0.00    -0.297 OA
ENDBRANCH  20  21
ENDBRANCH   1  20
TORSDOF 6
ENDMDL