MODEL 1
REMARK VINA RESULT: -7.197474804      0.000      0.000
REMARK  5 active torsions:
REMARK  status: ('A' for Active; 'I' for Inactive)
REMARK    1  A    between atoms: N4_11  and  C6_12
REMARK    2  A    between atoms: C6_12  and  C7_13
REMARK    3  A    between atoms: C7_13  and  C8_14
REMARK    4  A    between atoms: N5_19  and  C13_20
REMARK    5  A    between atoms: C13_20  and  S1_24
ROOT
HETATM    1  C1  UNL     1      20.470   1.841  11.196  1.00  0.00     0.147 C
HETATM    2  N1  UNL     1      19.514   0.817  11.208  1.00  0.00    -0.378 N
ATOM      3  H1  UNL     1      19.927  -0.102  11.372  1.00  0.00     0.160 HD
HETATM    4  C2  UNL     1      18.257   0.769  11.064  1.00  0.00     0.140 A
HETATM    5  C3  UNL     1      17.602  -0.485  11.141  1.00  0.00     0.106 A
HETATM    6  C4  UNL     1      18.192  -1.769  11.367  1.00  0.00     0.104 C
HETATM    7  N2  UNL     1      18.656  -2.819  11.542  1.00  0.00    -0.191 NA
HETATM    8  C5  UNL     1      16.276  -0.215  10.955  1.00  0.00     0.134 A
HETATM    9  N3  UNL     1      16.135   1.080  10.780  1.00  0.00    -0.306 N
ATOM     10  H3  UNL     1      15.243   1.547  10.620  1.00  0.00     0.186 HD
HETATM   11  N4  UNL     1      17.331   1.713  10.841  1.00  0.00    -0.276 N
ENDROOT
BRANCH  11  12
HETATM   12  C6  UNL     1      17.503   3.146  10.672  1.00  0.00     0.153 C
BRANCH  12  13
HETATM   13  C7  UNL     1      17.113   3.803  11.970  1.00  0.00     0.047 C
BRANCH  13  14
HETATM   14  C8  UNL     1      18.261   4.407  12.706  1.00  0.00     0.088 C
HETATM   15  C9  UNL     1      18.339   5.877  12.277  1.00  0.00     0.025 C
HETATM   16  C10 UNL     1      19.084   6.702  13.296  1.00  0.00     0.004 C
HETATM   17  C11 UNL     1      18.289   6.801  14.563  1.00  0.00     0.020 C
HETATM   18  C12 UNL     1      17.389   5.571  14.711  1.00  0.00     0.125 C
HETATM   19  N5  UNL     1      18.077   4.417  14.138  1.00  0.00    -0.357 N
BRANCH  19  20
HETATM   20  C13 UNL     1      18.504   3.412  15.014  1.00  0.00     0.135 C
HETATM   21  N6  UNL     1      19.728   3.321  15.354  1.00  0.00    -0.380 N
ATOM     22  H62 UNL     1      20.420   3.979  14.994  1.00  0.00     0.158 HD
ATOM     23  H61 UNL     1      20.039   2.589  15.992  1.00  0.00     0.158 HD
BRANCH  20  24
HETATM   24  S1  UNL     1      17.303   2.269  15.641  1.00  0.00    -0.099 SA
HETATM   25  C14 UNL     1      17.087   0.838  14.544  1.00  0.00     0.099 C
ENDBRANCH  20  24
ENDBRANCH  19  20
ENDBRANCH  13  14
ENDBRANCH  12  13
ENDBRANCH  11  12
TORSDOF 5
ENDMDL