MODEL 1
REMARK VINA RESULT: -7.260754572      0.000      0.000
REMARK  5 active torsions:
REMARK  status: ('A' for Active; 'I' for Inactive)
REMARK    1  A    between atoms: C2_2  and  N1_3
REMARK    2  A    between atoms: N2_6  and  C5_7
REMARK    3  A    between atoms: C5_7  and  C6_8
REMARK    4  A    between atoms: C7_10  and  N3_11
REMARK    5  A    between atoms: C8_16  and  C9_17
ROOT
HETATM    1  C6  UNL     1      17.495   3.630  12.584  1.00  0.00     0.117 A
HETATM    2  O1  UNL     1      17.043   4.742  12.123  1.00  0.00    -0.276 OA
HETATM    3  C7  UNL     1      17.106   4.706  10.828  1.00  0.00     0.222 A
HETATM    4  N4  UNL     1      17.573   3.533  10.418  1.00  0.00    -0.323 N
ATOM      5  H4  UNL     1      17.701   3.248   9.447  1.00  0.00     0.169 HD
HETATM    6  C8  UNL     1      17.847   2.795  11.482  1.00  0.00     0.052 A
ENDROOT
BRANCH   1   7
HETATM    7  C5  UNL     1      17.709   3.191  13.957  1.00  0.00     0.129 C
BRANCH   7   8
HETATM    8  N2  UNL     1      16.838   2.388  14.642  1.00  0.00    -0.364 N
HETATM    9  C4  UNL     1      17.510   1.659  15.679  1.00  0.00     0.158 C
HETATM   10  C3  UNL     1      16.661   0.444  15.995  1.00  0.00     0.293 C
HETATM   11  N1  UNL     1      15.365   0.853  16.404  1.00  0.00     0.094 N
HETATM   12  C17 UNL     1      14.951   2.182  16.138  1.00  0.00     0.317 C
HETATM   13  C16 UNL     1      15.523   2.767  14.872  1.00  0.00     0.093 C
BRANCH  11  14
HETATM   14  C2  UNL     1      15.275   0.688  17.851  1.00  0.00     0.268 C
HETATM   15  C1  UNL     1      14.879   1.922  18.585  1.00  0.00     0.037 C
ENDBRANCH  11  14
ENDBRANCH   7   8
ENDBRANCH   1   7
BRANCH   6  16
HETATM   16  C9  UNL     1      18.079   1.365  11.633  1.00  0.00     0.043 C
HETATM   17  C10 UNL     1      18.810   0.680  10.509  1.00  0.00     0.016 C
HETATM   18  C11 UNL     1      18.066  -0.626  10.371  1.00  0.00    -0.013 C
HETATM   19  C12 UNL     1      17.965  -1.387  11.667  1.00  0.00     0.005 C
HETATM   20  C15 UNL     1      16.654  -0.004  10.322  1.00  0.00     0.010 C
HETATM   21  C13 UNL     1      16.959  -0.626  12.534  1.00  0.00     0.006 C
HETATM   22  C14 UNL     1      16.743   0.610  11.721  1.00  0.00    -0.004 C
ENDBRANCH   6  16
BRANCH   3  23
HETATM   23  N3  UNL     1      16.734   5.750  10.110  1.00  0.00    -0.365 N
ATOM     24  H32 UNL     1      16.496   6.692  10.420  1.00  0.00     0.159 HD
ATOM     25  H31 UNL     1      16.647   5.676   9.096  1.00  0.00     0.159 HD
ENDBRANCH   3  23
TORSDOF 5
ENDMDL