MODEL 1
REMARK VINA RESULT: -7.995802120      0.000      0.000
REMARK  5 active torsions:
REMARK  status: ('A' for Active; 'I' for Inactive)
REMARK    1  A    between atoms: C5_5  and  N1_6
REMARK    2  A    between atoms: N1_6  and  C6_7
REMARK    3  A    between atoms: N1_6  and  C12_14
REMARK    4  A    between atoms: C6_7  and  C7_8
REMARK    5  A    between atoms: C16_21  and  O2_22
ROOT
HETATM    1  N1  UNL     1      17.406   2.327  13.539  1.00  0.00    -0.358 N
ENDROOT
BRANCH   1   2
HETATM    2  C5  UNL     1      16.880   2.717  14.771  1.00  0.00     0.117 C
HETATM    3  C4  UNL     1      15.446   3.076  14.873  1.00  0.00     0.028 C
HETATM    4  C3  UNL     1      14.801   2.719  16.206  1.00  0.00     0.006 C
HETATM    5  C2  UNL     1      14.841   1.259  16.532  1.00  0.00    -0.016 C
HETATM    6  C1  UNL     1      14.887   1.175  18.065  1.00  0.00     0.010 C
HETATM    7  C17 UNL     1      16.166   0.656  16.059  1.00  0.00     0.038 C
HETATM    8  C16 UNL     1      17.134   1.796  15.951  1.00  0.00     0.141 C
BRANCH   8   9
HETATM    9  O2  UNL     1      18.443   1.439  16.152  1.00  0.00    -0.393 OA
ATOM     10  H2  UNL     1      18.669   1.193  17.042  1.00  0.00     0.210 HD
ENDBRANCH   8   9
ENDBRANCH   1   2
BRANCH   1  11
HETATM   11  C6  UNL     1      18.403   3.050  12.913  1.00  0.00     0.069 C
BRANCH  11  12
HETATM   12  C7  UNL     1      18.512   4.503  12.816  1.00  0.00     0.028 C
HETATM   13  C8  UNL     1      19.351   5.023  14.001  1.00  0.00     0.036 C
HETATM   14  C9  UNL     1      19.619   6.465  13.885  1.00  0.00     0.168 C
HETATM   15  O1  UNL     1      18.554   7.257  13.473  1.00  0.00    -0.391 OA
HETATM   16  C10 UNL     1      17.984   6.811  12.312  1.00  0.00     0.168 C
HETATM   17  C11 UNL     1      17.386   5.414  12.671  1.00  0.00     0.036 C
ENDBRANCH  11  12
ENDBRANCH   1  11
BRANCH   1  18
HETATM   18  C12 UNL     1      16.766   1.432  12.671  1.00  0.00     0.016 C
HETATM   19  C13 UNL     1      17.148  -0.002  12.612  1.00  0.00     0.082 C
HETATM   20  C14 UNL     1      16.657  -0.416  11.243  1.00  0.00     0.238 C
HETATM   21  N2  UNL     1      15.860   0.675  10.718  1.00  0.00    -0.070 N
HETATM   22  C15 UNL     1      16.422   1.894  11.282  1.00  0.00     0.284 C
ATOM     23  H22 UNL     1      15.805   0.686   9.700  1.00  0.00     0.277 HD
ATOM     24  H21 UNL     1      14.860   0.569  10.894  1.00  0.00     0.277 HD
ENDBRANCH   1  18
TORSDOF 5
ENDMDL