MODEL 3
REMARK VINA RESULT: -6.998630283      2.630      6.387
REMARK  5 active torsions:
REMARK  status: ('A' for Active; 'I' for Inactive)
REMARK    1  A    between atoms: C2_2  and  C4_4
REMARK    2  A    between atoms: C5_7  and  N2_8
REMARK    3  A    between atoms: N2_8  and  C6_10
REMARK    4  A    between atoms: C6_10  and  C7_11
REMARK    5  A    between atoms: C10_14  and  N3_15
ROOT
HETATM    1  C4  UNL     1      18.447   0.980  10.881  1.00  0.00     0.104 A
HETATM    2  N1  UNL     1      17.903   1.932  11.677  1.00  0.00    -0.180 N
ATOM      3  H1  UNL     1      16.965   1.801  12.056  1.00  0.00     0.185 HD
HETATM    4  C5  UNL     1      18.588   3.043  11.967  1.00  0.00     0.683 A
HETATM    5  N4  UNL     1      19.831   3.201  11.454  1.00  0.00    -0.141 N
ATOM      6  H4  UNL     1      20.355   4.048  11.675  1.00  0.00     0.189 HD
HETATM    7  C15 UNL     1      20.399   2.265  10.655  1.00  0.00     0.339 A
HETATM    8  O1  UNL     1      21.543   2.395  10.176  1.00  0.00    -0.246 OA
HETATM    9  N5  UNL     1      19.687   1.152  10.378  1.00  0.00    -0.297 N
ATOM     10  H5  UNL     1      20.091   0.431   9.779  1.00  0.00     0.172 HD
ENDROOT
BRANCH   4  11
HETATM   11  N2  UNL     1      18.129   3.984  12.714  1.00  0.00    -0.225 N
ATOM     12  H2  UNL     1      18.772   4.717  13.010  1.00  0.00     0.177 HD
BRANCH  11  13
HETATM   13  C6  UNL     1      16.769   4.064  13.157  1.00  0.00     0.142 C
BRANCH  13  14
HETATM   14  C7  UNL     1      16.680   3.968  14.690  1.00  0.00     0.004 C
HETATM   15  C8  UNL     1      15.253   3.978  15.073  1.00  0.00     0.008 C
HETATM   16  C9  UNL     1      14.849   3.046  16.161  1.00  0.00     0.036 C
HETATM   17  C10 UNL     1      15.464   1.696  15.865  1.00  0.00     0.222 C
HETATM   18  C13 UNL     1      16.935   1.851  16.053  1.00  0.00     0.036 C
HETATM   19  C14 UNL     1      17.543   2.904  15.223  1.00  0.00     0.008 C
BRANCH  17  20
HETATM   20  N3  UNL     1      14.879   0.633  16.600  1.00  0.00     0.084 N
HETATM   21  C11 UNL     1      15.725   0.323  17.729  1.00  0.00     0.309 C
HETATM   22  C12 UNL     1      13.507   0.842  16.967  1.00  0.00     0.309 C
ENDBRANCH  17  20
ENDBRANCH  13  14
ENDBRANCH  11  13
ENDBRANCH   4  11
BRANCH   1  23
HETATM   23  C2  UNL     1      17.692  -0.243  10.561  1.00  0.00     0.046 C
HETATM   24  C1  UNL     1      18.220  -1.456  11.296  1.00  0.00     0.017 C
HETATM   25  C3  UNL     1      16.227  -0.044  10.866  1.00  0.00     0.017 C
ENDBRANCH   1  23
TORSDOF 5
ENDMDL