MODEL 3
REMARK VINA RESULT: -6.964627057      1.443      2.069
REMARK  6 active torsions:
REMARK  status: ('A' for Active; 'I' for Inactive)
REMARK    1  A    between atoms: C2_2  and  C3_3
REMARK    2  A    between atoms: C9_11  and  N2_12
REMARK    3  A    between atoms: C14_19  and  N4_20
REMARK    4  A    between atoms: N4_20  and  C15_22
REMARK    5  A    between atoms: C15_22  and  C16_23
REMARK    6  A    between atoms: C16_23  and  O1_24
ROOT
HETATM    1  C3  UNL     1      17.063   2.466  14.805  1.00  0.00    -0.019 C
HETATM    2  C4  UNL     1      17.495   3.593  14.331  1.00  0.00    -0.046 C
HETATM    3  C5  UNL     1      16.847   4.878  14.630  1.00  0.00     0.040 C
HETATM    4  C6  UNL     1      17.722   6.086  14.404  1.00  0.00     0.011 C
HETATM    5  C7  UNL     1      19.199   5.794  14.421  1.00  0.00     0.059 C
HETATM    6  C8  UNL     1      19.548   4.699  13.486  1.00  0.00     0.041 A
HETATM    7  N1  UNL     1      20.635   4.767  12.715  1.00  0.00    -0.194 N
ATOM      8  H1  UNL     1      21.260   5.569  12.788  1.00  0.00     0.184 HD
HETATM    9  C9  UNL     1      20.915   3.766  11.826  1.00  0.00     0.682 A
HETATM   10  N3  UNL     1      20.068   2.728  11.760  1.00  0.00    -0.176 N
ATOM     11  H3  UNL     1      20.269   1.977  11.100  1.00  0.00     0.186 HD
HETATM   12  C14 UNL     1      18.948   2.631  12.538  1.00  0.00     0.129 A
HETATM   13  C17 UNL     1      18.665   3.631  13.430  1.00  0.00     0.037 A
ENDROOT
BRANCH  12  14
HETATM   14  N4  UNL     1      18.142   1.642  12.435  1.00  0.00    -0.373 N
ATOM     15  H4  UNL     1      17.803   1.160  13.268  1.00  0.00     0.161 HD
BRANCH  14  16
HETATM   16  C15 UNL     1      17.721   1.225  11.123  1.00  0.00     0.147 C
BRANCH  16  17
HETATM   17  C16 UNL     1      16.287   0.701  11.189  1.00  0.00     0.183 C
BRANCH  17  18
HETATM   18  O1  UNL     1      15.382   1.758  11.206  1.00  0.00    -0.399 OA
ATOM     19  H1  UNL     1      15.538   2.317  11.959  1.00  0.00     0.209 HD
ENDBRANCH  17  18
ENDBRANCH  16  17
ENDBRANCH  14  16
ENDBRANCH  12  14
BRANCH   9  20
HETATM   20  N2  UNL     1      22.080   3.856  11.011  1.00  0.00    -0.218 N
HETATM   21  C10 UNL     1      23.375   4.316  11.526  1.00  0.00     0.141 C
HETATM   22  C11 UNL     1      24.226   4.562  10.304  1.00  0.00     0.022 C
HETATM   23  C12 UNL     1      23.670   3.591   9.316  1.00  0.00     0.022 C
HETATM   24  C13 UNL     1      22.199   3.529   9.611  1.00  0.00     0.141 C
ENDBRANCH   9  20
BRANCH   1  25
HETATM   25  C2  UNL     1      15.876   2.368  15.682  1.00  0.00     0.023 C
HETATM   26  C1  UNL     1      16.095   1.178  16.629  1.00  0.00     0.009 C
ENDBRANCH   1  25
TORSDOF 6
ENDMDL