MODEL 3
REMARK VINA RESULT: -7.091855978      1.935      3.132
REMARK  5 active torsions:
REMARK  status: ('A' for Active; 'I' for Inactive)
REMARK    1  A    between atoms: C1_2  and  O2_3
REMARK    2  A    between atoms: C1_2  and  C14_16
REMARK    3  A    between atoms: O2_3  and  C2_4
REMARK    4  A    between atoms: C16_18  and  C17_19
REMARK    5  A    between atoms: C17_19  and  O3_20
ROOT
HETATM    1  C2  UNL     1      17.511   2.975  12.606  1.00  0.00     0.072 C
HETATM    2  C3  UNL     1      17.227   3.322  14.079  1.00  0.00     0.043 C
HETATM    3  C4  UNL     1      18.138   4.281  14.715  1.00  0.00    -0.011 C
HETATM    4  C5  UNL     1      17.491   5.648  14.756  1.00  0.00     0.005 C
HETATM    5  C6  UNL     1      18.049   6.607  13.779  1.00  0.00     0.001 C
HETATM    6  C7  UNL     1      17.452   6.445  12.391  1.00  0.00     0.005 C
HETATM    7  C8  UNL     1      17.950   5.240  11.632  1.00  0.00    -0.011 C
HETATM    8  C9  UNL     1      19.406   4.997  11.832  1.00  0.00     0.009 C
HETATM    9  C10 UNL     1      19.753   3.955  12.815  1.00  0.00    -0.011 C
HETATM   10  C11 UNL     1      19.555   4.247  14.265  1.00  0.00     0.009 C
HETATM   11  C12 UNL     1      19.023   2.711  12.495  1.00  0.00     0.043 C
HETATM   12  C13 UNL     1      17.057   4.019  11.720  1.00  0.00     0.043 C
ENDROOT
BRANCH   1  13
HETATM   13  O2  UNL     1      17.039   1.667  12.481  1.00  0.00    -0.308 OA
BRANCH  13  14
HETATM   14  C1  UNL     1      16.238   1.097  11.532  1.00  0.00     0.290 C
HETATM   15  O1  UNL     1      15.210   1.684  11.215  1.00  0.00    -0.263 OA
BRANCH  14  16
HETATM   16  C14 UNL     1      16.637  -0.203  10.909  1.00  0.00     0.287 C
HETATM   17  C15 UNL     1      18.107  -0.417  10.626  1.00  0.00     0.078 C
HETATM   18  C16 UNL     1      17.693  -1.873  10.979  1.00  0.00     0.212 C
HETATM   19  N1  UNL     1      16.865  -1.193  12.004  1.00  0.00    -0.055 N
ATOM     20  H12 UNL     1      17.223  -0.933  12.923  1.00  0.00     0.278 HD
ATOM     21  H11 UNL     1      16.106  -1.656  12.502  1.00  0.00     0.278 HD
BRANCH  18  22
HETATM   22  C17 UNL     1      18.740  -2.730  11.584  1.00  0.00     0.197 C
BRANCH  22  23
HETATM   23  O3  UNL     1      18.363  -4.061  11.488  1.00  0.00    -0.399 OA
ATOM     24  H3  UNL     1      17.799  -4.285  12.218  1.00  0.00     0.209 HD
ENDBRANCH  22  23
ENDBRANCH  18  22
ENDBRANCH  14  16
ENDBRANCH  13  14
ENDBRANCH   1  13
TORSDOF 5
ENDMDL