MODEL 5
REMARK VINA RESULT: -6.609164736      2.846      5.747
REMARK  8 active torsions:
REMARK  status: ('A' for Active; 'I' for Inactive)
REMARK    1  A    between atoms: C2_2  and  C4_4
REMARK    2  A    between atoms: C4_4  and  C5_5
REMARK    3  A    between atoms: C5_5  and  C6_6
REMARK    4  A    between atoms: C5_5  and  N2_13
REMARK    5  A    between atoms: C6_6  and  O1_7
REMARK    6  A    between atoms: N1_9  and  O2_11
REMARK    7  A    between atoms: N2_13  and  C8_15
REMARK    8  A    between atoms: C8_15  and  N3_17
ROOT
HETATM    1  C5  UNL     1      17.213   1.184  12.611  1.00  0.00     0.163 C
ENDROOT
BRANCH   1   2
HETATM    2  C4  UNL     1      17.112  -0.258  12.331  1.00  0.00     0.037 C
BRANCH   2   3
HETATM    3  C2  UNL     1      17.987  -0.848  11.304  1.00  0.00    -0.020 C
HETATM    4  C1  UNL     1      18.377  -2.285  11.441  1.00  0.00     0.009 C
HETATM    5  C3  UNL     1      19.325  -0.074  11.210  1.00  0.00     0.009 C
ENDBRANCH   2   3
ENDBRANCH   1   2
BRANCH   1   6
HETATM    6  C6  UNL     1      16.497   2.054  11.700  1.00  0.00     0.159 C
HETATM    7  N1  UNL     1      16.990   3.173  11.221  1.00  0.00    -0.249 N
ATOM      8  H1  UNL     1      17.931   3.445  11.508  1.00  0.00     0.196 HD
BRANCH   6   9
HETATM    9  O1  UNL     1      15.203   1.761  11.258  1.00  0.00    -0.347 OA
ATOM     10  H1  UNL     1      15.033   1.425  10.386  1.00  0.00     0.219 HD
ENDBRANCH   6   9
BRANCH   7  11
HETATM   11  O2  UNL     1      16.321   3.989  10.367  1.00  0.00    -0.288 OA
ATOM     12  H2  UNL     1      16.093   4.889  10.565  1.00  0.00     0.244 HD
ENDBRANCH   7  11
ENDBRANCH   1   6
BRANCH   1  13
HETATM   13  N2  UNL     1      16.893   1.484  14.023  1.00  0.00    -0.350 N
HETATM   14  C7  UNL     1      16.797   0.342  14.881  1.00  0.00     0.153 C
BRANCH  13  15
HETATM   15  C8  UNL     1      16.697   2.787  14.470  1.00  0.00     0.172 C
HETATM   16  S1  UNL     1      15.147   3.042  15.100  1.00  0.00    -0.041 SA
BRANCH  15  17
HETATM   17  N3  UNL     1      17.564   3.883  14.477  1.00  0.00    -0.357 N
HETATM   18  C9  UNL     1      18.973   3.872  14.310  1.00  0.00     0.132 C
HETATM   19  C10 UNL     1      19.558   5.259  14.118  1.00  0.00     0.098 C
HETATM   20  C11 UNL     1      18.697   6.159  13.360  1.00  0.00     0.130 C
HETATM   21  O3  UNL     1      19.137   7.084  12.708  1.00  0.00    -0.298 OA
HETATM   22  C12 UNL     1      17.218   5.960  13.367  1.00  0.00     0.098 C
HETATM   23  C13 UNL     1      16.951   5.221  14.684  1.00  0.00     0.132 C
ENDBRANCH  15  17
ENDBRANCH  13  15
ENDBRANCH   1  13
TORSDOF 8
ENDMDL