MODEL 5
REMARK VINA RESULT: -6.091049093      3.550      5.056
REMARK  4 active torsions:
REMARK  status: ('A' for Active; 'I' for Inactive)
REMARK    1  A    between atoms: C2_2  and  C3_3
REMARK    2  A    between atoms: C3_3  and  N1_4
REMARK    3  A    between atoms: C7_8  and  C8_9
REMARK    4  A    between atoms: N3_13  and  C10_15
ROOT
HETATM    1  C8  UNL     1      17.914   3.369  13.855  1.00  0.00     0.106 A
HETATM    2  N2  UNL     1      18.088   4.602  14.311  1.00  0.00    -0.329 N
ATOM      3  H2  UNL     1      17.449   4.946  15.028  1.00  0.00     0.168 HD
HETATM    4  C9  UNL     1      19.095   5.449  13.866  1.00  0.00     0.126 A
HETATM    5  N3  UNL     1      19.140   6.587  14.389  1.00  0.00    -0.368 N
ATOM      6  H3  UNL     1      18.409   6.734  15.086  1.00  0.00     0.161 HD
HETATM    7  C14 UNL     1      19.938   4.982  12.914  1.00  0.00     0.093 A
HETATM    8 CL1  UNL     1      21.274   5.875  12.209  1.00  0.00    -0.079 Cl
HETATM    9  C15 UNL     1      19.759   3.682  12.430  1.00  0.00     0.117 A
HETATM   10  N5  UNL     1      18.760   2.938  12.918  1.00  0.00    -0.352 N
ATOM     11  H5  UNL     1      18.640   1.991  12.556  1.00  0.00     0.166 HD
ENDROOT
BRANCH   5  12
HETATM   12  C10 UNL     1      19.952   7.677  14.232  1.00  0.00     0.110 C
HETATM   13  C11 UNL     1      19.947   8.595  15.505  1.00  0.00     0.054 C
HETATM   14  C12 UNL     1      20.669   9.795  14.884  1.00  0.00     0.234 C
HETATM   15  N4  UNL     1      20.324   9.805  13.477  1.00  0.00    -0.073 N
HETATM   16  C13 UNL     1      19.379   8.735  13.273  1.00  0.00     0.257 C
ATOM     17  H42 UNL     1      19.983  10.709  13.153  1.00  0.00     0.277 HD
ATOM     18  H41 UNL     1      21.136   9.746  12.864  1.00  0.00     0.277 HD
ENDBRANCH   5  12
BRANCH   1  19
HETATM   19  C7  UNL     1      16.800   2.555  14.413  1.00  0.00     0.156 C
HETATM   20  N1  UNL     1      16.481   1.387  13.688  1.00  0.00    -0.362 N
HETATM   21  C4  UNL     1      16.812   0.205  14.372  1.00  0.00     0.064 C
HETATM   22  C5  UNL     1      17.144   0.600  15.797  1.00  0.00     0.047 C
HETATM   23  C6  UNL     1      17.200   2.091  15.782  1.00  0.00     0.038 C
BRANCH  20  24
HETATM   24  C3  UNL     1      16.533   1.419  12.285  1.00  0.00     0.063 C
BRANCH  24  25
HETATM   25  C2  UNL     1      16.746   0.127  11.566  1.00  0.00     0.040 C
HETATM   26  C1  UNL     1      18.064   0.015  10.853  1.00  0.00     0.010 C
ENDBRANCH  24  25
ENDBRANCH  20  24
ENDBRANCH   1  19
TORSDOF 4
ENDMDL