MODEL 5
REMARK VINA RESULT: -6.710303821      2.972      4.538
REMARK  5 active torsions:
REMARK  status: ('A' for Active; 'I' for Inactive)
REMARK       I    between atoms: N1_2  and  C2_4
REMARK    1  A    between atoms: C2_4  and  C3_6
REMARK    2  A    between atoms: C3_6  and  S1_7
REMARK    3  A    between atoms: S1_7  and  C4_8
REMARK    4  A    between atoms: C4_8  and  C5_9
REMARK    5  A    between atoms: C7_12  and  O3_13
ROOT
HETATM    1  C3  UNL     1      16.684   2.331  13.732  1.00  0.00     0.090 C
HETATM    2  C10 UNL     1      15.341   2.933  14.136  1.00  0.00     0.030 C
HETATM    3  C11 UNL     1      15.121   3.056  15.592  1.00  0.00     0.002 C
HETATM    4  C12 UNL     1      15.472   1.799  16.383  1.00  0.00     0.000 C
HETATM    5  C13 UNL     1      16.992   1.714  16.171  1.00  0.00     0.002 C
HETATM    6  C14 UNL     1      17.190   1.312  14.753  1.00  0.00     0.030 C
ENDROOT
BRANCH   1   7
HETATM    7  C2  UNL     1      16.316   1.469  12.543  1.00  0.00     0.236 C
HETATM    8  N1  UNL     1      17.005   0.214  12.412  1.00  0.00    -0.364 N
HETATM    9  C1  UNL     1      16.725  -0.712  11.339  1.00  0.00     0.149 C
ATOM     10  H1  UNL     1      17.716  -0.032  13.101  1.00  0.00     0.161 HD
HETATM   11  O1  UNL     1      15.477   1.766  11.690  1.00  0.00    -0.272 OA
ENDBRANCH   1   7
BRANCH   1  12
HETATM   12  S1  UNL     1      17.894   3.459  13.304  1.00  0.00    -0.126 SA
BRANCH  12  13
HETATM   13  C4  UNL     1      18.512   3.943  11.779  1.00  0.00     0.120 A
HETATM   14  C7  UNL     1      17.640   4.419  10.634  1.00  0.00     0.171 A
HETATM   15  C8  UNL     1      18.478   5.393  11.358  1.00  0.00     0.087 A
HETATM   16  C9  UNL     1      19.700   5.961  10.672  1.00  0.00     0.037 C
HETATM   17 CL1  UNL     1      17.567   6.576  12.283  1.00  0.00    -0.115 Cl
BRANCH  13  18
HETATM   18  C5  UNL     1      19.744   3.235  11.278  1.00  0.00     0.146 C
HETATM   19  C6  UNL     1      20.122   2.616  10.055  1.00  0.00     0.093 C
HETATM   20  O2  UNL     1      20.623   3.191  12.210  1.00  0.00    -0.296 OA
ENDBRANCH  13  18
BRANCH  14  21
HETATM   21  O3  UNL     1      16.264   4.484  10.755  1.00  0.00    -0.391 OA
ATOM     22  H3  UNL     1      15.849   5.083  11.365  1.00  0.00     0.210 HD
ENDBRANCH  14  21
ENDBRANCH  12  13
ENDBRANCH   1  12
TORSDOF 5
ENDMDL