MODEL 5
REMARK VINA RESULT: -6.599460579      1.433      1.721
REMARK  5 active torsions:
REMARK  status: ('A' for Active; 'I' for Inactive)
REMARK       I    between atoms: C2_2  and  N1_4
REMARK    1  A    between atoms: N1_4  and  C3_6
REMARK    2  A    between atoms: C3_6  and  C4_7
REMARK    3  A    between atoms: C4_7  and  C5_8
REMARK    4  A    between atoms: C7_14  and  O3_15
REMARK    5  A    between atoms: O3_15  and  C8_16
ROOT
HETATM    1  C5  UNL     1      17.635   2.630  13.579  1.00  0.00     0.141 C
HETATM    2  O2  UNL     1      18.409   1.969  12.596  1.00  0.00    -0.321 OA
HETATM    3  C6  UNL     1      19.189   2.723  11.735  1.00  0.00     0.212 C
HETATM    4  S1  UNL     1      19.864   1.992  10.449  1.00  0.00    -0.033 SA
HETATM    5  N2  UNL     1      19.393   4.103  11.977  1.00  0.00    -0.329 N
ATOM      6  H2  UNL     1      20.242   4.561  11.646  1.00  0.00     0.165 HD
HETATM    7  C7  UNL     1      18.395   4.859  12.693  1.00  0.00     0.144 C
HETATM    8  C10 UNL     1      18.955   5.525  13.926  1.00  0.00     0.062 C
HETATM    9  C11 UNL     1      17.719   5.897  14.716  1.00  0.00     0.006 C
HETATM   10  C12 UNL     1      16.827   4.719  14.507  1.00  0.00     0.012 C
HETATM   11  C13 UNL     1      17.287   4.024  13.245  1.00  0.00     0.071 C
ENDROOT
BRANCH   1  12
HETATM   12  C4  UNL     1      16.461   1.733  13.869  1.00  0.00     0.053 C
BRANCH  12  13
HETATM   13  C3  UNL     1      16.746   0.763  14.987  1.00  0.00     0.125 C
BRANCH  13  14
HETATM   14  N1  UNL     1      16.441   1.380  16.276  1.00  0.00    -0.361 N
HETATM   15  C2  UNL     1      15.304   1.020  17.000  1.00  0.00     0.213 C
HETATM   16  C1  UNL     1      14.994   1.646  18.307  1.00  0.00     0.117 C
HETATM   17  O1  UNL     1      14.509   0.153  16.561  1.00  0.00    -0.274 OA
ATOM     18  H1  UNL     1      17.071   2.087  16.653  1.00  0.00     0.162 HD
ENDBRANCH  13  14
ENDBRANCH  12  13
ENDBRANCH   1  12
BRANCH   7  19
HETATM   19  O3  UNL     1      17.875   5.845  11.869  1.00  0.00    -0.340 OA
BRANCH  19  20
HETATM   20  C8  UNL     1      16.768   5.495  11.146  1.00  0.00     0.216 C
HETATM   21  C9  UNL     1      17.016   5.479   9.656  1.00  0.00     0.057 C
HETATM   22 CL1  UNL     1      15.505   6.728  11.442  1.00  0.00    -0.096 Cl
ENDBRANCH  19  20
ENDBRANCH   7  19
TORSDOF 5
ENDMDL