MODEL 1
REMARK VINA RESULT: -6.959534215      0.000      0.000
REMARK  5 active torsions:
REMARK  status: ('A' for Active; 'I' for Inactive)
REMARK    1  A    between atoms: C2_2  and  C4_4
REMARK    2  A    between atoms: C4_4  and  N1_5
REMARK    3  A    between atoms: N1_5  and  C5_7
REMARK    4  A    between atoms: C6_10  and  C7_11
REMARK    5  A    between atoms: C10_16  and  N4_17
ROOT
HETATM    1  C5  UNL     1      16.441   2.068  14.289  1.00  0.00     0.128 A
HETATM    2  N2  UNL     1      17.105   1.126  13.520  1.00  0.00    -0.331 N
ATOM      3  H2  UNL     1      17.071   0.151  13.818  1.00  0.00     0.168 HD
HETATM    4  C6  UNL     1      17.782   1.422  12.418  1.00  0.00     0.087 A
HETATM    5  N3  UNL     1      17.814   2.707  12.042  1.00  0.00    -0.330 N
ATOM      6  H3  UNL     1      18.328   2.958  11.197  1.00  0.00     0.168 HD
HETATM    7  C10 UNL     1      17.197   3.680  12.732  1.00  0.00     0.132 A
HETATM    8  C14 UNL     1      16.480   3.377  13.897  1.00  0.00     0.121 A
HETATM    9 CL1  UNL     1      15.694   4.700  14.754  1.00  0.00    -0.076 Cl
ENDROOT
BRANCH   7  10
HETATM   10  N4  UNL     1      17.246   5.033  12.314  1.00  0.00    -0.341 N
HETATM   11  C11 UNL     1      18.124   6.040  12.830  1.00  0.00     0.251 C
HETATM   12  N5  UNL     1      17.859   7.242  12.060  1.00  0.00    -0.344 N
HETATM   13  C12 UNL     1      16.650   7.055  11.375  1.00  0.00     0.236 C
ATOM     14  H5  UNL     1      18.447   8.074  12.025  1.00  0.00     0.164 HD
HETATM   15  O1  UNL     1      15.931   7.984  10.923  1.00  0.00    -0.272 OA
HETATM   16  C13 UNL     1      16.398   5.592  11.292  1.00  0.00     0.228 C
ENDBRANCH   7  10
BRANCH   4  17
HETATM   17  C7  UNL     1      18.475   0.351  11.636  1.00  0.00     0.045 C
HETATM   18  C8  UNL     1      17.553  -0.244  10.592  1.00  0.00     0.017 C
HETATM   19  C9  UNL     1      19.740   0.912  11.020  1.00  0.00     0.017 C
ENDBRANCH   4  17
BRANCH   1  20
HETATM   20  N1  UNL     1      15.829   1.685  15.314  1.00  0.00    -0.374 N
ATOM     21  H1  UNL     1      14.843   1.481  15.157  1.00  0.00     0.161 HD
BRANCH  20  22
HETATM   22  C4  UNL     1      16.245   1.487  16.620  1.00  0.00     0.125 C
BRANCH  22  23
HETATM   23  C2  UNL     1      15.090   1.082  17.555  1.00  0.00    -0.005 C
HETATM   24  C1  UNL     1      15.010   2.024  18.741  1.00  0.00     0.011 C
HETATM   25  C3  UNL     1      13.785   1.016  16.815  1.00  0.00     0.011 C
ENDBRANCH  22  23
ENDBRANCH  20  22
ENDBRANCH   1  20
TORSDOF 5
ENDMDL