MODEL 5
REMARK VINA RESULT: -6.065146860      0.726      1.533
REMARK  7 active torsions:
REMARK  status: ('A' for Active; 'I' for Inactive)
REMARK    1  A    between atoms: C2_2  and  C4_4
REMARK    2  A    between atoms: C5_5  and  O1_6
REMARK    3  A    between atoms: O1_6  and  C6_7
REMARK    4  A    between atoms: C6_7  and  C7_8
REMARK    5  A    between atoms: C7_8  and  N1_9
REMARK    6  A    between atoms: N1_9  and  C9_11
REMARK    7  A    between atoms: C10_14  and  N3_15
ROOT
HETATM    1  C9  UNL     1      17.924   2.881  12.590  1.00  0.00     0.681 A
HETATM    2  N2  UNL     1      17.389   1.918  13.356  1.00  0.00    -0.176 N
ATOM      3  H2  UNL     1      16.966   2.186  14.245  1.00  0.00     0.186 HD
HETATM    4  C10 UNL     1      17.381   0.617  13.013  1.00  0.00     0.133 A
HETATM    5  C11 UNL     1      17.941   0.221  11.824  1.00  0.00     0.070 A
HETATM    6 BR1  UNL     1      17.931  -1.612  11.340  1.00  0.00    -0.046 Br
HETATM    7  C12 UNL     1      18.495   1.209  11.030  1.00  0.00     0.129 A
HETATM    8  N4  UNL     1      18.477   2.507  11.421  1.00  0.00    -0.200 N
ATOM      9  H4  UNL     1      18.893   3.216  10.817  1.00  0.00     0.183 HD
ENDROOT
BRANCH   1  10
HETATM   10  N1  UNL     1      17.939   4.249  12.939  1.00  0.00    -0.220 N
HETATM   11  C8  UNL     1      19.255   4.888  13.150  1.00  0.00     0.168 C
BRANCH  10  12
HETATM   12  C7  UNL     1      16.818   5.110  13.117  1.00  0.00     0.168 C
BRANCH  12  13
HETATM   13  C6  UNL     1      16.138   5.084  14.433  1.00  0.00     0.208 C
BRANCH  13  14
HETATM   14  O1  UNL     1      15.113   4.073  14.341  1.00  0.00    -0.302 OA
BRANCH  14  15
HETATM   15  C5  UNL     1      14.893   3.212  15.378  1.00  0.00     0.054 C
HETATM   16  C4  UNL     1      14.689   2.442  16.279  1.00  0.00    -0.072 C
BRANCH  16  17
HETATM   17  C2  UNL     1      14.421   1.499  17.358  1.00  0.00     0.059 C
HETATM   18  C1  UNL     1      15.213   0.245  17.158  1.00  0.00     0.023 C
HETATM   19  C3  UNL     1      14.831   2.152  18.679  1.00  0.00     0.023 C
ENDBRANCH  16  17
ENDBRANCH  14  15
ENDBRANCH  13  14
ENDBRANCH  12  13
ENDBRANCH  10  12
ENDBRANCH   1  10
BRANCH   4  20
HETATM   20  N3  UNL     1      16.831  -0.209  13.844  1.00  0.00    -0.384 N
ATOM     21  H32 UNL     1      16.978  -0.163  14.853  1.00  0.00     0.157 HD
ATOM     22  H31 UNL     1      16.227  -0.932  13.451  1.00  0.00     0.157 HD
ENDBRANCH   4  20
TORSDOF 7
ENDMDL