MODEL 2
REMARK VINA RESULT: -6.388916835      0.839      1.447
REMARK  4 active torsions:
REMARK  status: ('A' for Active; 'I' for Inactive)
REMARK    1  A    between atoms: C2_2  and  C3_3
REMARK    2  A    between atoms: C3_3  and  N1_4
REMARK    3  A    between atoms: C6_7  and  C7_8
REMARK    4  A    between atoms: C10_17  and  O1_18
ROOT
HETATM    1  C7  UNL     1      17.797   2.722  12.448  1.00  0.00     0.114 A
HETATM    2  N2  UNL     1      19.141   2.734  12.622  1.00  0.00    -0.327 N
ATOM      3  H2  UNL     1      19.511   2.357  13.495  1.00  0.00     0.169 HD
HETATM    4  C8  UNL     1      20.003   3.200  11.737  1.00  0.00     0.122 A
HETATM    5  N3  UNL     1      21.265   3.180  11.972  1.00  0.00    -0.384 N
ATOM      6  H31 UNL     1      21.931   3.540  11.288  1.00  0.00     0.157 HD
ATOM      7  H32 UNL     1      21.615   2.799  12.851  1.00  0.00     0.157 HD
HETATM    8  C9  UNL     1      19.529   3.715  10.546  1.00  0.00     0.105 A
HETATM    9 BR1  UNL     1      20.790   4.378   9.281  1.00  0.00    -0.042 Br
HETATM   10  C10 UNL     1      18.181   3.722  10.330  1.00  0.00     0.165 A
HETATM   11  N4  UNL     1      17.351   3.221  11.294  1.00  0.00    -0.321 N
ATOM     12  H4  UNL     1      16.345   3.231  11.124  1.00  0.00     0.169 HD
ENDROOT
BRANCH   1  13
HETATM   13  C6  UNL     1      16.979   2.187  13.495  1.00  0.00    -0.014 C
HETATM   14  C5  UNL     1      16.302   2.999  14.329  1.00  0.00     0.014 C
HETATM   15  C4  UNL     1      15.498   2.318  15.358  1.00  0.00     0.301 C
HETATM   16  N1  UNL     1      16.325   1.410  16.111  1.00  0.00     0.095 N
HETATM   17  C13 UNL     1      17.106   0.532  15.273  1.00  0.00     0.277 C
HETATM   18  C12 UNL     1      16.783   0.734  13.790  1.00  0.00     0.072 C
BRANCH  16  19
HETATM   19  C3  UNL     1      15.547   0.665  17.089  1.00  0.00     0.299 C
BRANCH  19  20
HETATM   20  C2  UNL     1      14.580   1.498  17.798  1.00  0.00    -0.007 C
HETATM   21  C1  UNL     1      14.888   2.062  18.948  1.00  0.00     0.008 C
ENDBRANCH  19  20
ENDBRANCH  16  19
ENDBRANCH   1  13
BRANCH  10  22
HETATM   22  O1  UNL     1      17.576   4.197   9.210  1.00  0.00    -0.340 OA
HETATM   23  C11 UNL     1      17.180   5.477   8.853  1.00  0.00     0.211 C
ENDBRANCH  10  22
TORSDOF 4
ENDMDL