MODEL 3
REMARK VINA RESULT: -6.171786387      1.885      2.747
REMARK  5 active torsions:
REMARK  status: ('A' for Active; 'I' for Inactive)
REMARK    1  A    between atoms: C4_4  and  N1_5
REMARK    2  A    between atoms: N1_5  and  C5_7
REMARK    3  A    between atoms: C5_7  and  C6_8
REMARK    4  A    between atoms: C6_8  and  N2_9
REMARK    5  A    between atoms: C11_18  and  C12_19
ROOT
HETATM    1  C1  UNL     1      16.015   0.585  10.828  1.00  0.00     0.068 C
HETATM    2  C2  UNL     1      16.924   1.385  11.688  1.00  0.00     0.010 A
HETATM    3  C3  UNL     1      18.195   1.613  11.198  1.00  0.00     0.072 A
HETATM    4  C4  UNL     1      19.073   2.356  11.970  1.00  0.00     0.104 A
HETATM    5  N4  UNL     1      18.678   2.834  13.165  1.00  0.00    -0.332 N
ATOM      6  H4  UNL     1      19.337   3.378  13.720  1.00  0.00     0.168 HD
HETATM    7  C11 UNL     1      17.423   2.613  13.658  1.00  0.00     0.087 A
HETATM    8  N5  UNL     1      16.606   1.888  12.875  1.00  0.00    -0.349 N
ATOM      9  H5  UNL     1      15.663   1.709  13.222  1.00  0.00     0.167 HD
ENDROOT
BRANCH   4  10
HETATM   10  N1  UNL     1      20.281   2.626  11.607  1.00  0.00    -0.371 N
ATOM     11  H1  UNL     1      20.934   2.946  12.322  1.00  0.00     0.161 HD
BRANCH  10  12
HETATM   12  C5  UNL     1      20.764   2.503  10.259  1.00  0.00     0.166 C
BRANCH  12  13
HETATM   13  C6  UNL     1      20.878   3.861   9.649  1.00  0.00     0.082 C
BRANCH  13  14
HETATM   14  N2  UNL     1      21.996   4.628  10.010  1.00  0.00    -0.369 N
HETATM   15  C7  UNL     1      23.224   3.990  10.254  1.00  0.00     0.082 C
HETATM   16  C8  UNL     1      24.116   4.641  11.254  1.00  0.00     0.158 C
HETATM   17  N3  UNL     1      23.490   5.460  12.229  1.00  0.00    -0.415 N
HETATM   18  C9  UNL     1      22.079   5.602  12.148  1.00  0.00     0.134 C
ATOM     19  H3  UNL     1      24.031   5.928  12.956  1.00  0.00     0.153 HD
HETATM   20  C10 UNL     1      21.744   5.864  10.673  1.00  0.00     0.146 C
ENDBRANCH  13  14
ENDBRANCH  12  13
ENDBRANCH  10  12
ENDBRANCH   4  10
BRANCH   7  21
HETATM   21  C12 UNL     1      17.010   3.147  14.960  1.00  0.00     0.057 C
HETATM   22  C13 UNL     1      15.774   4.010  14.849  1.00  0.00     0.013 C
HETATM   23  C14 UNL     1      14.636   3.182  15.412  1.00  0.00     0.001 C
HETATM   24  C15 UNL     1      15.252   2.108  16.267  1.00  0.00     0.005 C
HETATM   25  C16 UNL     1      16.733   2.125  16.016  1.00  0.00    -0.007 C
HETATM   26  C17 UNL     1      17.259   0.759  15.756  1.00  0.00     0.011 C
ENDBRANCH   7  21
TORSDOF 5
ENDMDL