MODEL 4
REMARK VINA RESULT: -6.773336907      2.982      4.525
REMARK  3 active torsions:
REMARK  status: ('A' for Active; 'I' for Inactive)
REMARK    1  A    between atoms: S1_2  and  C2_3
REMARK    2  A    between atoms: C11_12  and  C12_13
REMARK    3  A    between atoms: N1_14  and  O1_16
ROOT
HETATM    1  C2  UNL     1       4.789  -3.274  19.213  1.00  0.00     0.047 C
HETATM    2  C3  UNL     1       5.998  -2.539  19.579  1.00  0.00     0.015 C
HETATM    3  C4  UNL     1       6.935  -3.089  20.579  1.00  0.00     0.001 C
HETATM    4  C5  UNL     1       7.699  -4.332  20.392  1.00  0.00     0.000 C
HETATM    5  C6  UNL     1       8.998  -4.291  19.698  1.00  0.00     0.000 C
HETATM    6  C7  UNL     1       9.148  -5.186  18.446  1.00  0.00     0.000 C
HETATM    7  C8  UNL     1       8.037  -4.668  17.571  1.00  0.00     0.000 C
HETATM    8  C9  UNL     1       7.647  -5.265  16.315  1.00  0.00     0.001 C
HETATM    9  C10 UNL     1       6.121  -5.093  16.140  1.00  0.00     0.010 C
HETATM   10  C11 UNL     1       5.540  -3.906  16.835  1.00  0.00     0.027 C
HETATM   11  C13 UNL     1       4.709  -4.158  18.042  1.00  0.00     0.025 C
ENDROOT
BRANCH  10  12
HETATM   12  C12 UNL     1       4.650  -3.221  15.815  1.00  0.00     0.091 C
HETATM   13  N1  UNL     1       4.173  -3.826  14.809  1.00  0.00    -0.284 N
ATOM     14  H1  UNL     1       4.415  -4.812  14.709  1.00  0.00     0.192 HD
BRANCH  13  15
HETATM   15  O1  UNL     1       3.376  -3.293  13.858  1.00  0.00    -0.291 OA
ATOM     16  H1  UNL     1       3.054  -3.735  13.081  1.00  0.00     0.244 HD
ENDBRANCH  13  15
ENDBRANCH  10  12
BRANCH   1  17
HETATM   17  S1  UNL     1       4.361  -4.297  20.694  1.00  0.00    -0.169 SA
HETATM   18  C1  UNL     1       2.879  -3.572  21.413  1.00  0.00     0.090 C
ENDBRANCH   1  17
TORSDOF 3
ENDMDL