MODEL 3
REMARK VINA RESULT: -6.500991126      2.796      4.785
REMARK  4 active torsions:
REMARK  status: ('A' for Active; 'I' for Inactive)
REMARK    1  A    between atoms: C4_4  and  C5_5
REMARK    2  A    between atoms: C5_5  and  C6_6
REMARK    3  A    between atoms: C6_6  and  C8_8
REMARK    4  A    between atoms: C8_8  and  C9_9
ROOT
HETATM    1  C6  UNL     1       5.098  -2.642  17.527  1.00  0.00    -0.050 C
HETATM    2  C7  UNL     1       4.329  -1.689  16.804  1.00  0.00     0.049 C
ENDROOT
BRANCH   1   3
HETATM    3  C5  UNL     1       5.240  -2.870  18.721  1.00  0.00     0.008 C
BRANCH   3   4
HETATM    4  C4  UNL     1       4.090  -3.319  19.559  1.00  0.00     0.002 C
HETATM    5  C2  UNL     1       3.625  -2.598  20.530  1.00  0.00    -0.088 C
HETATM    6  C1  UNL     1       2.478  -3.138  21.296  1.00  0.00     0.043 C
HETATM    7  C3  UNL     1       4.176  -1.284  20.885  1.00  0.00     0.043 C
ENDBRANCH   3   4
ENDBRANCH   1   3
BRANCH   1   8
HETATM    8  C8  UNL     1       5.858  -3.780  16.384  1.00  0.00    -0.005 C
HETATM    9  C11 UNL     1       4.727  -4.256  16.151  1.00  0.00     0.070 A
HETATM   10  S2  UNL     1       3.148  -5.074  15.686  1.00  0.00    -0.043 SA
HETATM   11  S3  UNL     1       4.434  -5.882  14.902  1.00  0.00    -0.043 SA
BRANCH   8  12
HETATM   12  C9  UNL     1       7.113  -3.253  16.643  1.00  0.00     0.021 C
HETATM   13  C10 UNL     1       8.239  -4.016  16.697  1.00  0.00     0.058 C
HETATM   14  S1  UNL     1       7.998  -5.777  16.403  1.00  0.00    -0.065 SA
ENDBRANCH   8  12
ENDBRANCH   1   8
TORSDOF 4
ENDMDL