MODEL 3
REMARK VINA RESULT: -7.617614989      1.566      3.390
REMARK  3 active torsions:
REMARK  status: ('A' for Active; 'I' for Inactive)
REMARK    1  A    between atoms: C2_2  and  C3_3
REMARK    2  A    between atoms: C3_3  and  C4_4
REMARK    3  A    between atoms: C5_5  and  C6_6
ROOT
HETATM    1  C4  UNL     1       5.778  -3.290  20.358  1.00  0.00    -0.011 A
HETATM    2  C5  UNL     1       4.680  -2.490  20.127  1.00  0.00     0.062 A
HETATM    3  O1  UNL     1       4.577  -2.220  18.843  1.00  0.00    -0.297 OA
HETATM    4  C8  UNL     1       5.557  -2.803  18.200  1.00  0.00     0.161 A
HETATM    5  N1  UNL     1       6.077  -2.976  16.972  1.00  0.00    -0.337 N
ATOM      6  H1  UNL     1       5.694  -2.578  16.114  1.00  0.00     0.168 HD
HETATM    7  C9  UNL     1       7.175  -3.752  17.037  1.00  0.00     0.040 A
HETATM    8  C10 UNL     1       7.344  -4.073  18.360  1.00  0.00     0.085 A
HETATM    9  C11 UNL     1       6.340  -3.488  19.096  1.00  0.00     0.054 A
HETATM   10  N2  UNL     1       8.370  -4.874  18.912  1.00  0.00    -0.302 N
ATOM     11  H2  UNL     1       8.216  -5.164  19.878  1.00  0.00     0.186 HD
HETATM   12  N3  UNL     1       9.452  -5.289  18.394  1.00  0.00    -0.336 N
ATOM     13  H3  UNL     1      10.057  -5.864  18.981  1.00  0.00     0.180 HD
HETATM   14  C12 UNL     1       9.907  -5.022  17.046  1.00  0.00     0.139 C
HETATM   15  C13 UNL     1       8.867  -5.249  15.996  1.00  0.00     0.027 C
HETATM   16  C14 UNL     1       7.926  -4.087  15.813  1.00  0.00     0.061 C
ENDROOT
BRANCH   1  17
HETATM   17  C3  UNL     1       6.318  -3.851  21.615  1.00  0.00     0.042 C
BRANCH  17  18
HETATM   18  C2  UNL     1       7.546  -3.145  22.103  1.00  0.00     0.000 C
HETATM   19  C1  UNL     1       8.601  -4.185  22.430  1.00  0.00     0.005 C
ENDBRANCH  17  18
ENDBRANCH   1  17
BRANCH   2  20
HETATM   20  C6  UNL     1       3.749  -2.008  21.198  1.00  0.00     0.061 C
HETATM   21  C7  UNL     1       2.623  -3.034  21.299  1.00  0.00     0.012 C
ENDBRANCH   2  20
TORSDOF 3
ENDMDL