MODEL 1
REMARK VINA RESULT: -8.499044631      0.000      0.000
REMARK  3 active torsions:
REMARK  status: ('A' for Active; 'I' for Inactive)
REMARK    1  A    between atoms: C6_6  and  N1_7
REMARK    2  A    between atoms: N2_9  and  N3_11
REMARK    3  A    between atoms: N4_13  and  C7_15
ROOT
HETATM    1  N1  UNL     1       5.209  -4.788  16.533  1.00  0.00    -0.316 N
ATOM      2  H1  UNL     1       4.558  -5.048  17.275  1.00  0.00     0.182 HD
HETATM    3  N2  UNL     1       5.001  -5.168  15.344  1.00  0.00    -0.233 N
ATOM      4  H2  UNL     1       5.665  -4.895  14.620  1.00  0.00     0.209 HD
ENDROOT
BRANCH   1   5
HETATM    5  C6  UNL     1       6.380  -3.979  16.838  1.00  0.00     0.100 C
HETATM    6  C5  UNL     1       6.616  -3.911  18.339  1.00  0.00     0.027 C
HETATM    7  C4  UNL     1       7.731  -2.992  18.682  1.00  0.00     0.002 C
HETATM    8  C3  UNL     1       8.713  -3.417  19.684  1.00  0.00     0.000 C
HETATM    9  C2  UNL     1       9.072  -4.825  19.852  1.00  0.00     0.000 C
HETATM   10  C1  UNL     1      10.119  -5.422  18.982  1.00  0.00     0.000 C
HETATM   11  C13 UNL     1      10.483  -4.719  17.735  1.00  0.00     0.000 C
HETATM   12  C12 UNL     1       9.848  -5.279  16.482  1.00  0.00     0.000 C
HETATM   13  C11 UNL     1       8.379  -5.515  16.564  1.00  0.00     0.002 C
HETATM   14  C10 UNL     1       7.527  -4.437  16.029  1.00  0.00     0.027 C
ENDBRANCH   1   5
BRANCH   3  15
HETATM   15  N3  UNL     1       3.912  -5.935  14.987  1.00  0.00    -0.233 N
HETATM   16  N4  UNL     1       2.977  -5.533  14.213  1.00  0.00    -0.316 N
ATOM     17  H4  UNL     1       2.197  -6.150  13.988  1.00  0.00     0.182 HD
ATOM     18  H3  UNL     1       3.849  -6.881  15.364  1.00  0.00     0.209 HD
BRANCH  16  19
HETATM   19  C7  UNL     1       3.034  -4.191  13.657  1.00  0.00     0.101 A
HETATM   20  C8  UNL     1       1.996  -3.838  12.643  1.00  0.00     0.029 A
HETATM   21  C9  UNL     1       3.422  -4.002  12.227  1.00  0.00     0.029 A
ENDBRANCH  16  19
ENDBRANCH   3  15
TORSDOF 3
ENDMDL