MODEL 4
REMARK VINA RESULT: -7.257697966      1.481      2.791
REMARK  3 active torsions:
REMARK  status: ('A' for Active; 'I' for Inactive)
REMARK    1  A    between atoms: S1_2  and  C2_3
REMARK    2  A    between atoms: C2_3  and  C3_4
REMARK    3  A    between atoms: C3_4  and  C4_5
ROOT
HETATM    1  C4  UNL     1       6.073  -4.563  16.863  1.00  0.00     0.031 C
HETATM    2  C5  UNL     1       6.026  -4.379  18.365  1.00  0.00     0.010 C
HETATM    3  C6  UNL     1       6.658  -3.133  18.780  1.00  0.00     0.001 C
HETATM    4  C7  UNL     1       7.644  -3.067  19.862  1.00  0.00     0.004 C
HETATM    5  C8  UNL     1       8.268  -4.293  20.405  1.00  0.00     0.027 C
HETATM    6  C9  UNL     1       9.760  -4.311  20.378  1.00  0.00    -0.031 C
HETATM    7  C10 UNL     1      10.540  -4.283  19.329  1.00  0.00    -0.031 C
HETATM    8  C11 UNL     1      10.173  -4.223  17.892  1.00  0.00     0.027 C
HETATM    9  C12 UNL     1       9.754  -5.498  17.276  1.00  0.00     0.009 C
HETATM   10  C13 UNL     1       8.323  -5.745  17.021  1.00  0.00     0.052 C
HETATM   11  C14 UNL     1       7.508  -4.671  16.489  1.00  0.00    -0.016 C
HETATM   12  N1  UNL     1       7.983  -3.805  15.688  1.00  0.00    -0.405 N
ATOM     13  H11 UNL     1       8.967  -3.878  15.431  1.00  0.00     0.155 HD
ATOM     14  H12 UNL     1       7.410  -3.049  15.314  1.00  0.00     0.155 HD
ENDROOT
BRANCH   1  15
HETATM   15  C3  UNL     1       5.370  -3.475  16.113  1.00  0.00     0.020 C
BRANCH  15  16
HETATM   16  C2  UNL     1       3.928  -3.861  15.932  1.00  0.00     0.074 C
BRANCH  16  17
HETATM   17  S1  UNL     1       3.918  -5.605  15.410  1.00  0.00    -0.173 SA
HETATM   18  C1  UNL     1       3.280  -5.685  13.716  1.00  0.00     0.089 C
ENDBRANCH  16  17
ENDBRANCH  15  16
ENDBRANCH   1  15
TORSDOF 3
ENDMDL