MODEL 1
REMARK VINA RESULT: -6.962146516      0.000      0.000
REMARK  4 active torsions:
REMARK  status: ('A' for Active; 'I' for Inactive)
REMARK    1  A    between atoms: C2_2  and  C3_3
REMARK    2  A    between atoms: C3_3  and  C4_4
REMARK    3  A    between atoms: C4_4  and  C8_14
REMARK    4  A    between atoms: C5_5  and  C6_6
ROOT
HETATM    1  C4  UNL     1       5.725  -4.588  16.638  1.00  0.00    -0.070 C
HETATM    2  C5  UNL     1       5.360  -5.137  15.507  1.00  0.00     0.042 C
ENDROOT
BRANCH   2   3
HETATM    3  C6  UNL     1       3.978  -5.185  14.972  1.00  0.00     0.091 A
HETATM    4  N1  UNL     1       2.936  -5.918  15.251  1.00  0.00    -0.292 N
HETATM    5  N2  UNL     1       1.836  -5.780  14.642  1.00  0.00    -0.284 N
ATOM      6  H1  UNL     1       3.011  -6.626  15.982  1.00  0.00     0.187 HD
HETATM    7  C7  UNL     1       1.747  -4.851  13.685  1.00  0.00     0.159 A
ATOM      8  H2  UNL     1       1.034  -6.364  14.876  1.00  0.00     0.188 HD
HETATM    9  S1  UNL     1       0.430  -4.481  12.752  1.00  0.00    -0.051 SA
HETATM   10  S2  UNL     1       3.322  -4.187  13.705  1.00  0.00    -0.040 SA
ENDBRANCH   2   3
BRANCH   1  11
HETATM   11  C3  UNL     1       4.716  -3.970  17.459  1.00  0.00     0.034 C
BRANCH  11  12
HETATM   12  C2  UNL     1       4.567  -2.490  17.432  1.00  0.00    -0.000 C
HETATM   13  C1  UNL     1       4.474  -2.030  18.885  1.00  0.00     0.005 C
ENDBRANCH  11  12
ENDBRANCH   1  11
BRANCH   1  14
HETATM   14  C8  UNL     1       7.174  -4.676  16.952  1.00  0.00    -0.028 C
HETATM   15  C9  UNL     1       7.493  -4.527  18.411  1.00  0.00     0.019 C
HETATM   16  C10 UNL     1       7.884  -5.858  16.412  1.00  0.00     0.019 C
HETATM   17  C11 UNL     1       7.830  -3.451  16.287  1.00  0.00     0.019 C
ENDBRANCH   1  14
TORSDOF 4
ENDMDL