MODEL 5
REMARK VINA RESULT: -6.969925574      0.441      1.351
REMARK  3 active torsions:
REMARK  status: ('A' for Active; 'I' for Inactive)
REMARK    1  A    between atoms: C3_5  and  C4_6
REMARK    2  A    between atoms: C4_6  and  C5_8
REMARK    3  A    between atoms: C5_8  and  C6_9
ROOT
HETATM    1  C4  UNL     1       4.810  -3.764  16.440  1.00  0.00     0.109 C
HETATM    2  S1  UNL     1       4.389  -2.003  16.678  1.00  0.00    -0.086 SA
ENDROOT
BRANCH   1   3
HETATM    3  C3  UNL     1       3.686  -4.348  15.572  1.00  0.00     0.031 A
HETATM    4  N1  UNL     1       2.960  -3.617  14.790  1.00  0.00    -0.356 N
HETATM    5  C2  UNL     1       2.006  -4.178  14.065  1.00  0.00     0.047 A
ATOM      6  H1  UNL     1       3.122  -2.612  14.731  1.00  0.00     0.166 HD
HETATM    7  C1  UNL     1       1.055  -3.514  13.099  1.00  0.00     0.076 C
HETATM    8  S2  UNL     1       2.132  -5.826  14.504  1.00  0.00    -0.087 SA
HETATM    9  C12 UNL     1       3.426  -5.693  15.613  1.00  0.00     0.077 A
ENDBRANCH   1   3
BRANCH   1  10
HETATM   10  C5  UNL     1       6.116  -3.981  15.745  1.00  0.00     0.027 C
BRANCH  10  11
HETATM   11  C6  UNL     1       7.336  -3.980  16.600  1.00  0.00    -0.013 C
HETATM   12  C7  UNL     1       6.916  -4.539  17.965  1.00  0.00     0.005 C
HETATM   13  C8  UNL     1       8.068  -4.206  18.891  1.00  0.00     0.000 C
HETATM   14  C9  UNL     1       9.189  -5.131  18.481  1.00  0.00     0.000 C
HETATM   15  C10 UNL     1       9.580  -5.034  17.065  1.00  0.00     0.000 C
HETATM   16  C11 UNL     1       8.538  -4.634  16.068  1.00  0.00     0.005 C
ENDBRANCH  10  11
ENDBRANCH   1  10
TORSDOF 3
ENDMDL