MODEL 5
REMARK VINA RESULT: -7.554980281      2.047      2.162
REMARK  5 active torsions:
REMARK  status: ('A' for Active; 'I' for Inactive)
REMARK    1  A    between atoms: O1_1  and  C1_3
REMARK    2  A    between atoms: C3_5  and  C4_6
REMARK    3  A    between atoms: C4_6  and  C5_7
REMARK    4  A    between atoms: C5_7  and  C6_8
REMARK    5  A    between atoms: C7_9  and  C8_10
ROOT
HETATM    1  C4  UNL     1       3.198  -2.523  15.872  1.00  0.00     0.006 C
ENDROOT
BRANCH   1   2
HETATM    2  C3  UNL     1       3.285  -3.556  14.848  1.00  0.00     0.023 A
HETATM    3  C2  UNL     1       3.632  -3.431  13.530  1.00  0.00     0.076 A
HETATM    4  C1  UNL     1       3.610  -4.543  12.792  1.00  0.00     0.147 A
HETATM    5  N1  UNL     1       3.261  -5.682  13.376  1.00  0.00    -0.307 N
HETATM    6  S1  UNL     1       2.950  -5.223  14.986  1.00  0.00    -0.013 SA
ATOM      7  H1  UNL     1       3.194  -6.611  12.961  1.00  0.00     0.176 HD
BRANCH   4   8
HETATM    8  O1  UNL     1       3.941  -4.570  11.407  1.00  0.00    -0.346 OA
ATOM      9  H1  UNL     1       3.816  -3.830  10.825  1.00  0.00     0.219 HD
ENDBRANCH   4   8
ENDBRANCH   1   2
BRANCH   1  10
HETATM   10  C5  UNL     1       4.258  -1.960  16.397  1.00  0.00     0.122 C
BRANCH  10  11
HETATM   11  C6  UNL     1       5.435  -2.958  16.672  1.00  0.00    -0.102 C
HETATM   12  C7  UNL     1       6.226  -3.629  16.856  1.00  0.00    -0.102 C
BRANCH  12  13
HETATM   13  C8  UNL     1       7.313  -4.555  17.108  1.00  0.00     0.065 C
HETATM   14  C9  UNL     1       8.321  -4.380  15.924  1.00  0.00     0.017 C
HETATM   15  C10 UNL     1       9.390  -5.415  16.146  1.00  0.00     0.001 C
HETATM   16  C11 UNL     1      10.185  -4.957  17.372  1.00  0.00     0.000 C
HETATM   17  C12 UNL     1       9.250  -5.090  18.566  1.00  0.00     0.001 C
HETATM   18  C13 UNL     1       8.052  -4.149  18.384  1.00  0.00     0.017 C
ENDBRANCH  12  13
ENDBRANCH  10  11
ENDBRANCH   1  10
TORSDOF 5
ENDMDL