MODEL 1
REMARK VINA RESULT: -6.606425182      0.000      0.000
REMARK  5 active torsions:
REMARK  status: ('A' for Active; 'I' for Inactive)
REMARK    1  A    between atoms: C2_2  and  S1_6
REMARK    2  A    between atoms: S1_6  and  C3_7
REMARK    3  A    between atoms: C3_7  and  S2_9
REMARK    4  A    between atoms: S2_9  and  C5_10
REMARK    5  A    between atoms: C5_10  and  C6_11
ROOT
HETATM    1  C3  UNL     1       5.456  -4.248  16.761  1.00  0.00     0.110 C
HETATM    2  C4  UNL     1       4.826  -2.843  16.911  1.00  0.00     0.033 C
ENDROOT
BRANCH   1   3
HETATM    3  S1  UNL     1       7.103  -4.052  16.068  1.00  0.00    -0.102 SA
BRANCH   3   4
HETATM    4  C2  UNL     1       8.143  -5.331  16.797  1.00  0.00     0.037 C
HETATM    5  C1  UNL     1       8.836  -5.126  18.112  1.00  0.00     0.076 C
HETATM    6  N1  UNL     1       8.298  -6.429  16.200  1.00  0.00    -0.397 N
ATOM      7  H12 UNL     1       8.886  -7.153  16.612  1.00  0.00     0.156 HD
ATOM      8  H11 UNL     1       7.827  -6.568  15.306  1.00  0.00     0.156 HD
ENDBRANCH   3   4
ENDBRANCH   1   3
BRANCH   1   9
HETATM    9  S2  UNL     1       4.350  -5.301  15.896  1.00  0.00    -0.153 SA
BRANCH   9  10
HETATM   10  C5  UNL     1       3.833  -4.808  14.285  1.00  0.00     0.079 C
BRANCH  10  11
HETATM   11  C6  UNL     1       2.647  -3.850  14.225  1.00  0.00    -0.005 C
HETATM   12  C7  UNL     1       1.594  -4.449  15.138  1.00  0.00     0.005 C
HETATM   13  C8  UNL     1       0.946  -5.620  14.445  1.00  0.00     0.000 C
HETATM   14  C9  UNL     1       0.045  -5.068  13.365  1.00  0.00     0.000 C
HETATM   15  C10 UNL     1       0.651  -3.909  12.659  1.00  0.00     0.000 C
HETATM   16  C11 UNL     1       2.137  -3.753  12.802  1.00  0.00     0.005 C
ENDBRANCH  10  11
ENDBRANCH   9  10
ENDBRANCH   1   9
TORSDOF 5
ENDMDL