MODEL 3
REMARK VINA RESULT: -6.437175698      3.658      5.603
REMARK  5 active torsions:
REMARK  status: ('A' for Active; 'I' for Inactive)
REMARK    1  A    between atoms: C2_2  and  C3_3
REMARK    2  A    between atoms: C3_3  and  C5_5
REMARK    3  A    between atoms: C7_9  and  C8_10
REMARK    4  A    between atoms: C9_11  and  C10_12
REMARK    5  A    between atoms: N1_14  and  O1_16
ROOT
HETATM    1  C5  UNL     1       4.952  -3.556  15.903  1.00  0.00     0.020 C
HETATM    2  S1  UNL     1       4.286  -1.930  16.659  1.00  0.00    -0.057 SA
HETATM    3  S2  UNL     1       4.566  -2.757  18.656  1.00  0.00    -0.088 SA
HETATM    4  C6  UNL     1       5.535  -4.225  18.087  1.00  0.00     0.126 C
HETATM    5  C7  UNL     1       6.110  -3.670  16.757  1.00  0.00    -0.030 C
ENDROOT
BRANCH   5   6
HETATM    6  C8  UNL     1       7.401  -4.141  16.450  1.00  0.00     0.011 C
HETATM    7  C9  UNL     1       8.086  -5.182  16.784  1.00  0.00     0.027 C
BRANCH   7   8
HETATM    8  C10 UNL     1       9.475  -5.401  16.278  1.00  0.00     0.028 C
HETATM    9  C11 UNL     1      10.642  -5.004  17.081  1.00  0.00     0.070 C
HETATM   10  N1  UNL     1       9.655  -5.942  15.134  1.00  0.00    -0.274 N
ATOM     11  H1  UNL     1       8.842  -6.216  14.583  1.00  0.00     0.193 HD
BRANCH  10  12
HETATM   12  O1  UNL     1      10.894  -6.163  14.633  1.00  0.00    -0.290 OA
ATOM     13  H1  UNL     1      11.629  -5.599  14.843  1.00  0.00     0.244 HD
ENDBRANCH  10  12
ENDBRANCH   7   8
ENDBRANCH   5   6
BRANCH   1  14
HETATM   14  C3  UNL     1       4.271  -4.111  14.946  1.00  0.00    -0.066 C
HETATM   15  C4  UNL     1       4.269  -5.656  14.909  1.00  0.00     0.044 C
BRANCH  14  16
HETATM   16  C2  UNL     1       3.478  -3.535  13.857  1.00  0.00     0.030 C
HETATM   17  C1  UNL     1       3.550  -4.459  12.623  1.00  0.00     0.010 C
ENDBRANCH  14  16
ENDBRANCH   1  14
TORSDOF 5
ENDMDL