MODEL 4
REMARK VINA RESULT: -5.486049512      2.033      2.934
REMARK  4 active torsions:
REMARK  status: ('A' for Active; 'I' for Inactive)
REMARK    1  A    between atoms: C2_2  and  N1_3
REMARK    2  A    between atoms: N1_3  and  C3_4
REMARK    3  A    between atoms: N1_3  and  C5_6
REMARK    4  A    between atoms: C5_6  and  O1_7
ROOT
HETATM    1  C5  UNL     1      55.298  35.653  87.536  1.00  0.00     0.335 C
HETATM    2  S1  UNL     1      54.547  35.868  89.199  1.00  0.00    -0.061 SA
HETATM    3  C6  UNL     1      53.495  34.423  89.069  1.00  0.00    -0.002 C
HETATM    4  C7  UNL     1      52.813  33.778  90.229  1.00  0.00     0.057 C
HETATM    5  C8  UNL     1      53.458  34.078  87.811  1.00  0.00     0.048 C
HETATM    6 CL1  UNL     1      52.504  32.676  87.270  1.00  0.00    -0.086 Cl
HETATM    7  C9  UNL     1      54.227  34.881  86.869  1.00  0.00     0.216 C
HETATM    8  C10 UNL     1      54.755  33.967  85.818  1.00  0.00     0.075 C
HETATM    9  N2  UNL     1      55.160  33.266  84.984  1.00  0.00    -0.196 NA
ENDROOT
BRANCH   1  10
HETATM   10  N1  UNL     1      55.770  36.824  86.948  1.00  0.00     0.135 N
BRANCH  10  11
HETATM   11  C2  UNL     1      56.118  37.849  87.922  1.00  0.00     0.273 C
HETATM   12  C1  UNL     1      56.061  39.244  87.422  1.00  0.00     0.037 C
ENDBRANCH  10  11
BRANCH  10  13
HETATM   13  C3  UNL     1      55.043  37.476  85.914  1.00  0.00     0.273 C
HETATM   14  C4  UNL     1      55.575  37.335  84.527  1.00  0.00     0.037 C
ENDBRANCH  10  13
ENDBRANCH   1  10
BRANCH   1  15
HETATM   15  O1  UNL     1      56.376  34.767  87.748  1.00  0.00    -0.353 OA
ATOM     16  H1  UNL     1      56.039  33.907  87.969  1.00  0.00     0.213 HD
ENDBRANCH   1  15
TORSDOF 4
ENDMDL