MODEL 2
REMARK VINA RESULT: -6.466447118      2.107      2.479
REMARK  3 active torsions:
REMARK  status: ('A' for Active; 'I' for Inactive)
REMARK    1  A    between atoms: O1_2  and  C2_3
REMARK    2  A    between atoms: C2_3  and  C3_5
REMARK    3  A    between atoms: C4_6  and  C5_7
ROOT
HETATM    1  C5  UNL     1      55.509  38.007  85.145  1.00  0.00     0.015 C
HETATM    2  C6  UNL     1      55.580  36.784  84.646  1.00  0.00    -0.013 C
HETATM    3  C7  UNL     1      56.433  36.522  83.490  1.00  0.00     0.083 C
HETATM    4  C8  UNL     1      56.145  35.217  82.799  1.00  0.00     0.180 C
HETATM    5  F1  UNL     1      57.171  35.030  81.864  1.00  0.00    -0.249 F
HETATM    6  C9  UNL     1      56.162  34.027  83.708  1.00  0.00     0.101 C
HETATM    7  C10 UNL     1      55.001  33.998  84.620  1.00  0.00     0.047 C
HETATM    8  N1  UNL     1      54.300  32.969  84.832  1.00  0.00    -0.397 N
ATOM      9  H11 UNL     1      53.498  32.950  85.461  1.00  0.00     0.156 HD
ATOM     10  H12 UNL     1      54.530  32.096  84.356  1.00  0.00     0.156 HD
HETATM   11  S1  UNL     1      54.599  35.521  85.449  1.00  0.00    -0.082 SA
ENDROOT
BRANCH   1  12
HETATM   12  C4  UNL     1      54.681  38.328  86.289  1.00  0.00     0.007 C
HETATM   13  C3  UNL     1      55.108  38.705  87.450  1.00  0.00     0.082 C
BRANCH  13  14
HETATM   14  C2  UNL     1      56.443  38.911  87.944  1.00  0.00     0.282 C
HETATM   15  O2  UNL     1      56.938  40.081  88.085  1.00  0.00    -0.260 OA
BRANCH  14  16
HETATM   16  O1  UNL     1      57.276  37.887  88.294  1.00  0.00    -0.323 OA
HETATM   17  C1  UNL     1      56.810  36.670  88.838  1.00  0.00     0.213 C
ENDBRANCH  14  16
ENDBRANCH  13  14
ENDBRANCH   1  12
TORSDOF 3
ENDMDL