MODEL 1
REMARK VINA RESULT: -6.424636350      0.000      0.000
REMARK  2 active torsions:
REMARK  status: ('A' for Active; 'I' for Inactive)
REMARK    1  A    between atoms: O1_1  and  N1_3
REMARK    2  A    between atoms: N2_9  and  C4_11
ROOT
HETATM    1  N1  UNL     1      53.524  31.891  84.878  1.00  0.00    -0.249 N
ATOM      2  H1  UNL     1      54.054  31.684  84.031  1.00  0.00     0.196 HD
HETATM    3  C1  UNL     1      53.943  32.839  85.679  1.00  0.00     0.162 C
HETATM    4  O2  UNL     1      53.369  33.262  86.860  1.00  0.00    -0.331 OA
HETATM    5  C2  UNL     1      53.640  34.661  86.960  1.00  0.00     0.231 C
HETATM    6  C3  UNL     1      54.967  34.821  86.329  1.00  0.00     0.034 C
HETATM    7  N2  UNL     1      55.790  35.803  86.526  1.00  0.00    -0.388 N
ATOM      8  H2  UNL     1      56.686  35.819  86.038  1.00  0.00     0.159 HD
HETATM    9  C10 UNL     1      55.147  33.644  85.442  1.00  0.00     0.206 C
HETATM   10 CL1  UNL     1      55.254  34.113  83.730  1.00  0.00    -0.110 Cl
ENDROOT
BRANCH   7  11
HETATM   11  C4  UNL     1      55.448  36.867  87.427  1.00  0.00     0.081 C
HETATM   12  C5  UNL     1      56.540  37.108  88.445  1.00  0.00     0.025 C
HETATM   13  C6  UNL     1      56.221  38.446  89.100  1.00  0.00     0.002 C
HETATM   14  C7  UNL     1      56.586  39.515  88.115  1.00  0.00     0.000 C
HETATM   15  C8  UNL     1      56.063  39.212  86.751  1.00  0.00     0.002 C
HETATM   16  C9  UNL     1      55.038  38.121  86.710  1.00  0.00     0.025 C
ENDBRANCH   7  11
BRANCH   1  17
HETATM   17  O1  UNL     1      52.389  31.170  85.151  1.00  0.00    -0.288 OA
ATOM     18  H1  UNL     1      51.963  30.643  84.486  1.00  0.00     0.244 HD
ENDBRANCH   1  17
TORSDOF 2
ENDMDL