MODEL 2
REMARK VINA RESULT: -5.761841252      2.329      6.192
REMARK  4 active torsions:
REMARK  status: ('A' for Active; 'I' for Inactive)
REMARK    1  A    between atoms: C2_2  and  N1_3
REMARK    2  A    between atoms: C4_5  and  N2_6
REMARK       I    between atoms: N2_6  and  C5_8
REMARK    3  A    between atoms: C5_8  and  O2_10
REMARK    4  A    between atoms: O2_10  and  C6_11
ROOT
HETATM    1  N1  UNL     1      52.880  33.789  89.654  1.00  0.00    -0.299 N
HETATM    2  C3  UNL     1      53.888  34.487  89.048  1.00  0.00     0.144 A
HETATM    3  C4  UNL     1      53.952  34.114  87.736  1.00  0.00     0.112 A
HETATM    4  C10 UNL     1      52.940  33.165  87.585  1.00  0.00     0.231 A
HETATM    5  F1  UNL     1      52.679  32.549  86.415  1.00  0.00    -0.182 F
HETATM    6  N3  UNL     1      52.338  33.015  88.762  1.00  0.00    -0.272 N
ATOM      7  H3  UNL     1      51.558  32.381  88.939  1.00  0.00     0.189 HD
ENDROOT
BRANCH   3   8
HETATM    8  N2  UNL     1      54.838  34.576  86.743  1.00  0.00    -0.297 N
HETATM    9  C5  UNL     1      55.095  35.932  86.506  1.00  0.00     0.366 C
HETATM   10  O1  UNL     1      54.579  36.879  87.136  1.00  0.00    -0.238 OA
ATOM     11  H2  UNL     1      55.318  33.886  86.165  1.00  0.00     0.171 HD
BRANCH   9  12
HETATM   12  O2  UNL     1      55.990  36.345  85.499  1.00  0.00    -0.294 OA
BRANCH  12  13
HETATM   13  C6  UNL     1      55.638  36.386  84.143  1.00  0.00     0.061 C
HETATM   14  C7  UNL     1      55.366  35.011  83.571  1.00  0.00     0.046 C
HETATM   15  C8  UNL     1      56.843  36.932  83.370  1.00  0.00     0.046 C
HETATM   16  C9  UNL     1      54.484  37.279  83.827  1.00  0.00     0.046 C
ENDBRANCH  12  13
ENDBRANCH   9  12
ENDBRANCH   3   8
BRANCH   1  17
HETATM   17  C2  UNL     1      52.462  33.871  91.038  1.00  0.00     0.143 C
HETATM   18  C1  UNL     1      52.235  35.274  91.496  1.00  0.00     0.028 C
ENDBRANCH   1  17
TORSDOF 4
ENDMDL