MODEL 3
REMARK VINA RESULT: -5.393975889      2.110      3.689
REMARK  3 active torsions:
REMARK  status: ('A' for Active; 'I' for Inactive)
REMARK    1  A    between atoms: C2_2  and  C3_3
REMARK    2  A    between atoms: C4_4  and  N1_5
REMARK    3  A    between atoms: C5_9  and  O4_10
ROOT
HETATM    1  C3  UNL     1      55.527  36.358  85.269  1.00  0.00     0.021 A
HETATM    2  C4  UNL     1      55.396  35.016  85.537  1.00  0.00     0.224 A
HETATM    3  O3  UNL     1      55.417  34.857  86.864  1.00  0.00    -0.263 OA
HETATM    4  C5  UNL     1      55.550  35.987  87.480  1.00  0.00     0.203 A
HETATM    5  C6  UNL     1      55.624  36.964  86.509  1.00  0.00     0.080 A
HETATM    6 BR1  UNL     1      55.829  38.838  86.799  1.00  0.00    -0.045 Br
ENDROOT
BRANCH   2   7
HETATM    7  N1  UNL     1      55.262  33.941  84.632  1.00  0.00    -0.090 N
HETATM    8  O1  UNL     1      54.269  33.196  84.729  1.00  0.00    -0.530 OA
HETATM    9  O2  UNL     1      56.163  33.675  83.656  1.00  0.00    -0.530 OA
ENDBRANCH   2   7
BRANCH   1  10
HETATM   10  C2  UNL     1      55.544  37.026  83.950  1.00  0.00     0.040 C
HETATM   11  C1  UNL     1      54.293  37.794  83.657  1.00  0.00     0.010 C
ENDBRANCH   1  10
BRANCH   4  12
HETATM   12  O4  UNL     1      55.612  36.226  88.866  1.00  0.00    -0.340 OA
ATOM     13  H4  UNL     1      55.060  36.793  89.392  1.00  0.00     0.220 HD
ENDBRANCH   4  12
TORSDOF 3
ENDMDL