MODEL 4
REMARK VINA RESULT: -5.615175738      1.784      1.989
REMARK  4 active torsions:
REMARK  status: ('A' for Active; 'I' for Inactive)
REMARK    1  A    between atoms: N1_2  and  N2_4
REMARK    2  A    between atoms: N3_6  and  C3_8
REMARK    3  A    between atoms: C4_12  and  O1_13
REMARK    4  A    between atoms: C5_15  and  C6_16
ROOT
HETATM    1  C3  UNL     1      54.892  34.785  85.456  1.00  0.00     0.120 A
HETATM    2  S1  UNL     1      54.898  33.138  85.029  1.00  0.00     0.008 SA
HETATM    3  N4  UNL     1      55.632  33.255  83.522  1.00  0.00    -0.305 N
ATOM      4  H4  UNL     1      55.851  32.499  82.873  1.00  0.00     0.176 HD
HETATM    5  C4  UNL     1      55.864  34.557  83.367  1.00  0.00     0.159 A
HETATM    6  C5  UNL     1      55.483  35.386  84.374  1.00  0.00     0.068 A
ENDROOT
BRANCH   1   7
HETATM    7  N3  UNL     1      54.396  35.429  86.658  1.00  0.00    -0.278 N
HETATM    8  N2  UNL     1      54.303  34.682  87.679  1.00  0.00    -0.245 N
ATOM      9  H2  UNL     1      54.578  33.705  87.579  1.00  0.00     0.208 HD
ATOM     10  H3  UNL     1      54.140  36.416  86.680  1.00  0.00     0.189 HD
BRANCH   8  11
HETATM   11  N1  UNL     1      53.854  35.099  88.914  1.00  0.00    -0.322 N
HETATM   12  C1  UNL     1      53.111  34.161  89.734  1.00  0.00     0.172 C
HETATM   13  C2  UNL     1      54.075  36.419  89.457  1.00  0.00     0.172 C
ENDBRANCH   8  11
ENDBRANCH   1   7
BRANCH   6  14
HETATM   14  C6  UNL     1      55.676  36.894  84.351  1.00  0.00     0.130 C
HETATM   15  C7  UNL     1      54.389  37.523  83.797  1.00  0.00     0.057 C
HETATM   16  C8  UNL     1      56.774  37.340  83.459  1.00  0.00     0.057 C
HETATM   17  F1  UNL     1      55.888  37.382  85.610  1.00  0.00    -0.238 F
ENDBRANCH   6  14
BRANCH   5  18
HETATM   18  O1  UNL     1      56.440  34.940  82.259  1.00  0.00    -0.345 OA
ATOM     19  H1  UNL     1      55.983  35.579  81.724  1.00  0.00     0.219 HD
ENDBRANCH   5  18
TORSDOF 4
ENDMDL