MODEL 3
REMARK VINA RESULT: -6.658038582      1.130      1.248
REMARK  7 active torsions:
REMARK  status: ('A' for Active; 'I' for Inactive)
REMARK    1  A    between atoms: O1_1  and  N1_3
REMARK    2  A    between atoms: N1_3  and  N2_5
REMARK    3  A    between atoms: N2_5  and  C1_7
REMARK    4  A    between atoms: C2_10  and  C3_11
REMARK    5  A    between atoms: C3_11  and  O2_12
REMARK    6  A    between atoms: C3_11  and  C4_14
REMARK    7  A    between atoms: C4_14  and  C5_15
ROOT
HETATM    1  C1  UNL     1      56.389  34.511  82.599  1.00  0.00     0.165 A
HETATM    2  N3  UNL     1      55.643  33.729  83.362  1.00  0.00    -0.333 N
ATOM      3  H3  UNL     1      55.484  32.756  83.098  1.00  0.00     0.168 HD
HETATM    4  C2  UNL     1      55.094  34.225  84.492  1.00  0.00     0.074 A
HETATM    5  C6  UNL     1      55.382  35.536  84.737  1.00  0.00     0.085 A
HETATM    6  S1  UNL     1      56.380  35.987  83.399  1.00  0.00    -0.062 SA
ENDROOT
BRANCH   4   7
HETATM    7  C3  UNL     1      54.272  33.382  85.343  1.00  0.00     0.095 C
BRANCH   7   8
HETATM    8  O2  UNL     1      53.949  32.208  84.767  1.00  0.00    -0.358 OA
ATOM      9  H2  UNL     1      54.444  32.033  83.975  1.00  0.00     0.217 HD
ENDBRANCH   7   8
BRANCH   7  10
HETATM   10  C4  UNL     1      53.731  33.487  86.612  1.00  0.00     0.075 C
BRANCH  10  11
HETATM   11  C5  UNL     1      53.922  33.988  87.769  1.00  0.00     0.106 C
HETATM   12 CL1  UNL     1      54.301  35.552  88.362  1.00  0.00    -0.071 Cl
HETATM   13 CL2  UNL     1      53.753  32.761  89.125  1.00  0.00    -0.071 Cl
ENDBRANCH  10  11
ENDBRANCH   7  10
ENDBRANCH   4   7
BRANCH   1  14
HETATM   14  N2  UNL     1      56.991  34.166  81.466  1.00  0.00    -0.260 N
ATOM     15  H2  UNL     1      58.010  34.148  81.431  1.00  0.00     0.191 HD
BRANCH  14  16
HETATM   16  N1  UNL     1      56.270  33.829  80.329  1.00  0.00    -0.208 N
ATOM     17  H1  UNL     1      56.451  34.332  79.460  1.00  0.00     0.215 HD
BRANCH  16  18
HETATM   18  O1  UNL     1      55.395  32.914  80.341  1.00  0.00    -0.274 OA
ATOM     19  H1  UNL     1      55.026  32.586  81.153  1.00  0.00     0.246 HD
ENDBRANCH  16  18
ENDBRANCH  14  16
ENDBRANCH   1  14
TORSDOF 7
ENDMDL