MODEL 3
REMARK VINA RESULT: -5.417565323      1.244      1.504
REMARK  3 active torsions:
REMARK  status: ('A' for Active; 'I' for Inactive)
REMARK    1  A    between atoms: S1_2  and  C2_3
REMARK    2  A    between atoms: C2_3  and  C3_4
REMARK    3  A    between atoms: N3_11  and  C5_12
ROOT
HETATM    1  C3  UNL     1      54.781  34.634  85.634  1.00  0.00     0.111 A
HETATM    2  N1  UNL     1      54.821  33.324  85.338  1.00  0.00    -0.286 N
ATOM      3  H1  UNL     1      54.478  32.585  85.951  1.00  0.00     0.188 HD
HETATM    4  N2  UNL     1      55.357  33.121  84.164  1.00  0.00    -0.275 N
ATOM      5  H2  UNL     1      55.497  32.213  83.720  1.00  0.00     0.189 HD
HETATM    6  C4  UNL     1      55.696  34.329  83.633  1.00  0.00     0.196 A
HETATM    7  S2  UNL     1      56.402  34.467  82.161  1.00  0.00    -0.039 SA
HETATM    8  N3  UNL     1      55.339  35.243  84.541  1.00  0.00    -0.287 N
ENDROOT
BRANCH   8   9
HETATM    9  C5  UNL     1      55.520  36.650  84.427  1.00  0.00     0.111 C
HETATM   10  C6  UNL     1      56.690  37.083  83.561  1.00  0.00     0.056 C
HETATM   11  C7  UNL     1      55.751  37.370  85.738  1.00  0.00     0.056 C
HETATM   12 CL1  UNL     1      54.057  37.340  83.631  1.00  0.00    -0.096 Cl
ENDBRANCH   8   9
BRANCH   1  13
HETATM   13  C2  UNL     1      54.259  35.231  86.888  1.00  0.00     0.151 C
BRANCH  13  14
HETATM   14  S1  UNL     1      54.259  34.066  88.270  1.00  0.00    -0.166 SA
HETATM   15  C1  UNL     1      52.783  33.022  88.194  1.00  0.00     0.090 C
ENDBRANCH  13  14
ENDBRANCH   1  13
TORSDOF 3
ENDMDL