MODEL 1
REMARK VINA RESULT: -5.549950129      0.000      0.000
REMARK  5 active torsions:
REMARK  status: ('A' for Active; 'I' for Inactive)
REMARK    1  A    between atoms: C3_3  and  C4_4
REMARK    2  A    between atoms: C4_4  and  N1_5
REMARK    3  A    between atoms: C5_6  and  N2_7
REMARK    4  A    between atoms: N2_7  and  N3_9
REMARK    5  A    between atoms: N3_9  and  O1_11
ROOT
HETATM    1  C1  UNL     1      57.229  35.948  82.453  1.00  0.00     0.112 C
HETATM    2  C2  UNL     1      56.393  36.305  83.623  1.00  0.00    -0.109 C
HETATM    3  C3  UNL     1      55.724  36.582  84.586  1.00  0.00    -0.087 C
ENDROOT
BRANCH   3   4
HETATM    4  C4  UNL     1      54.902  36.898  85.784  1.00  0.00     0.226 C
BRANCH   4   5
HETATM    5  N1  UNL     1      55.175  36.016  86.886  1.00  0.00    -0.296 N
HETATM    6  C5  UNL     1      54.873  34.717  87.036  1.00  0.00     0.151 A
HETATM    7  C7  UNL     1      55.359  34.390  88.312  1.00  0.00     0.053 A
HETATM    8  C8  UNL     1      55.267  33.036  88.955  1.00  0.00     0.072 C
HETATM    9  N4  UNL     1      55.921  35.471  88.868  1.00  0.00    -0.333 N
HETATM   10  C9  UNL     1      55.817  36.480  88.007  1.00  0.00     0.180 A
ATOM     11  H4  UNL     1      56.353  35.513  89.791  1.00  0.00     0.168 HD
HETATM   12  S1  UNL     1      56.357  38.012  88.233  1.00  0.00    -0.040 SA
BRANCH   6  13
HETATM   13  N2  UNL     1      54.232  33.843  86.137  1.00  0.00    -0.260 N
HETATM   14  C6  UNL     1      54.806  33.103  85.056  1.00  0.00     0.181 C
BRANCH  13  15
HETATM   15  N3  UNL     1      52.828  33.673  86.329  1.00  0.00    -0.207 N
ATOM     16  H3  UNL     1      52.208  34.465  86.158  1.00  0.00     0.216 HD
BRANCH  15  17
HETATM   17  O1  UNL     1      52.343  32.606  86.692  1.00  0.00    -0.274 OA
ATOM     18  H1  UNL     1      51.807  32.072  86.117  1.00  0.00     0.246 HD
ENDBRANCH  15  17
ENDBRANCH  13  15
ENDBRANCH   6  13
ENDBRANCH   4   5
ENDBRANCH   3   4
TORSDOF 5
ENDMDL