MODEL 3
REMARK VINA RESULT: -5.731010496      3.813      5.542
REMARK  7 active torsions:
REMARK  status: ('A' for Active; 'I' for Inactive)
REMARK    1  A    between atoms: C2_2  and  C3_4
REMARK    2  A    between atoms: C3_4  and  S1_5
REMARK    3  A    between atoms: S1_5  and  C4_6
REMARK    4  A    between atoms: C4_6  and  N1_7
REMARK    5  A    between atoms: C4_6  and  C7_16
REMARK    6  A    between atoms: N1_7  and  N2_9
REMARK    7  A    between atoms: C5_11  and  C6_12
ROOT
HETATM    1  C4  UNL     1      12.432  -0.939  52.838  1.00  0.00     0.217 C
ENDROOT
BRANCH   1   2
HETATM    2  S1  UNL     1      10.830  -1.822  52.998  1.00  0.00    -0.130 SA
BRANCH   2   3
HETATM    3  C3  UNL     1      10.655  -2.227  54.760  1.00  0.00     0.126 C
BRANCH   3   4
HETATM    4  C2  UNL     1       9.682  -1.397  55.453  1.00  0.00     0.011 C
HETATM    5  C1  UNL     1       9.683  -0.089  55.295  1.00  0.00     0.033 C
HETATM    6 CL1  UNL     1       8.496  -2.123  56.508  1.00  0.00    -0.089 Cl
ENDBRANCH   3   4
ENDBRANCH   2   3
ENDBRANCH   1   2
BRANCH   1   7
HETATM    7  N1  UNL     1      13.489  -1.662  53.479  1.00  0.00    -0.316 N
ATOM      8  H1  UNL     1      13.270  -2.193  54.322  1.00  0.00     0.182 HD
BRANCH   7   9
HETATM    9  N2  UNL     1      14.804  -1.676  53.009  1.00  0.00    -0.314 N
HETATM   10  C5  UNL     1      15.447  -2.737  52.695  1.00  0.00     0.138 C
ATOM     11  H2  UNL     1      15.285  -0.782  52.911  1.00  0.00     0.185 HD
BRANCH  10  12
HETATM   12  C6  UNL     1      16.834  -2.651  52.206  1.00  0.00     0.222 C
HETATM   13 CL2  UNL     1      17.275  -4.034  51.217  1.00  0.00    -0.078 Cl
HETATM   14 CL3  UNL     1      17.980  -2.444  53.546  1.00  0.00    -0.078 Cl
HETATM   15 CL4  UNL     1      16.938  -1.178  51.189  1.00  0.00    -0.078 Cl
ENDBRANCH  10  12
ENDBRANCH   7   9
ENDBRANCH   1   7
BRANCH   1  16
HETATM   16  C7  UNL     1      12.677  -0.663  51.412  1.00  0.00     0.086 A
HETATM   17  C8  UNL     1      11.988  -1.207  50.361  1.00  0.00     0.038 A
HETATM   18  C9  UNL     1      12.529  -0.688  49.195  1.00  0.00     0.027 A
HETATM   19  C10 UNL     1      13.524   0.150  49.590  1.00  0.00     0.142 A
HETATM   20  O1  UNL     1      13.590   0.147  50.904  1.00  0.00    -0.324 OA
ENDBRANCH   1  16
TORSDOF 7
ENDMDL