MODEL 1
REMARK VINA RESULT: -5.909402063      0.000      0.000
REMARK  6 active torsions:
REMARK  status: ('A' for Active; 'I' for Inactive)
REMARK    1  A    between atoms: C2_2  and  C4_5
REMARK    2  A    between atoms: C4_5  and  N1_6
REMARK    3  A    between atoms: N1_6  and  C5_8
REMARK    4  A    between atoms: C5_8  and  O1_9
REMARK    5  A    between atoms: C5_8  and  C7_14
REMARK    6  A    between atoms: O1_9  and  C6_10
ROOT
HETATM    1  C5  UNL     1      13.436  -1.253  51.460  1.00  0.00     0.281 C
ENDROOT
BRANCH   1   2
HETATM    2  N1  UNL     1      14.424  -1.946  52.215  1.00  0.00    -0.390 N
ATOM      3  H1  UNL     1      14.740  -1.595  53.120  1.00  0.00     0.156 HD
BRANCH   2   4
HETATM    4  C4  UNL     1      14.951  -3.141  51.664  1.00  0.00     0.141 C
BRANCH   4   5
HETATM    5  C2  UNL     1      16.439  -3.026  51.347  1.00  0.00     0.045 C
HETATM    6  C1  UNL     1      16.580  -3.099  49.844  1.00  0.00     0.034 C
HETATM    7  C3  UNL     1      17.025  -1.746  51.872  1.00  0.00     0.034 C
HETATM    8 CL1  UNL     1      17.337  -4.382  52.062  1.00  0.00    -0.118 Cl
ENDBRANCH   4   5
ENDBRANCH   2   4
ENDBRANCH   1   2
BRANCH   1   9
HETATM    9  O1  UNL     1      13.773   0.049  51.250  1.00  0.00    -0.295 OA
BRANCH   9  10
HETATM   10  C6  UNL     1      13.859   0.483  49.961  1.00  0.00     0.371 C
HETATM   11  F1  UNL     1      13.617   1.866  49.983  1.00  0.00    -0.176 F
HETATM   12 CL2  UNL     1      12.811  -0.287  48.792  1.00  0.00    -0.034 Cl
HETATM   13 CL3  UNL     1      15.544   0.338  49.345  1.00  0.00    -0.034 Cl
ENDBRANCH   9  10
ENDBRANCH   1   9
BRANCH   1  14
HETATM   14  C7  UNL     1      12.191  -1.290  52.339  1.00  0.00     0.101 A
HETATM   15  N2  UNL     1      10.937  -1.400  51.993  1.00  0.00    -0.358 N
HETATM   16  C8  UNL     1      10.004  -1.414  52.899  1.00  0.00     0.120 A
ATOM     17  H2  UNL     1      10.687  -1.476  51.007  1.00  0.00     0.165 HD
HETATM   18  C9  UNL     1      10.403  -1.310  54.211  1.00  0.00     0.091 A
HETATM   19 CL4  UNL     1       9.388  -1.298  55.656  1.00  0.00    -0.075 Cl
HETATM   20  S1  UNL     1      12.103  -1.197  54.046  1.00  0.00    -0.059 SA
ENDBRANCH   1  14
TORSDOF 6
ENDMDL