MODEL 2
REMARK VINA RESULT: -7.121271736      0.126      1.044
REMARK  6 active torsions:
REMARK  status: ('A' for Active; 'I' for Inactive)
REMARK    1  A    between atoms: C1_2  and  S1_4
REMARK    2  A    between atoms: S1_4  and  C2_5
REMARK    3  A    between atoms: C5_8  and  O1_9
REMARK    4  A    between atoms: O1_9  and  C6_10
REMARK    5  A    between atoms: C9_13  and  C10_14
REMARK    6  A    between atoms: C10_14  and  N1_16
ROOT
HETATM    1  C6  UNL     1      10.488  -1.798  55.959  1.00  0.00     0.076 A
HETATM    2  C7  UNL     1       9.175  -1.406  56.040  1.00  0.00     0.038 A
HETATM    3  C8  UNL     1       8.166  -2.260  56.500  1.00  0.00     0.013 A
HETATM    4  C9  UNL     1       8.534  -3.521  56.867  1.00  0.00    -0.020 A
HETATM    5  C11 UNL     1       9.843  -3.948  56.796  1.00  0.00     0.013 A
HETATM    6  C12 UNL     1      10.820  -3.065  56.333  1.00  0.00     0.038 A
ENDROOT
BRANCH   1   7
HETATM    7  O1  UNL     1      11.488  -0.954  55.515  1.00  0.00    -0.311 OA
BRANCH   7   8
HETATM    8  C5  UNL     1      12.043  -1.157  54.245  1.00  0.00     0.076 A
HETATM    9  C4  UNL     1      13.376  -1.385  54.080  1.00  0.00     0.038 A
HETATM   10  C3  UNL     1      13.895  -1.571  52.816  1.00  0.00     0.021 A
HETATM   11  C2  UNL     1      13.102  -1.539  51.646  1.00  0.00     0.005 A
HETATM   12  C14 UNL     1      11.765  -1.316  51.831  1.00  0.00     0.021 A
HETATM   13  C13 UNL     1      11.247  -1.126  53.120  1.00  0.00     0.038 A
BRANCH  11  14
HETATM   14  S1  UNL     1      13.978  -1.594  50.124  1.00  0.00    -0.061 SA
BRANCH  14  15
HETATM   15  C1  UNL     1      13.599  -0.395  48.892  1.00  0.00     0.420 C
HETATM   16  F1  UNL     1      12.342  -0.610  48.369  1.00  0.00    -0.202 F
HETATM   17  F2  UNL     1      13.455   0.925  49.434  1.00  0.00    -0.202 F
ENDBRANCH  14  15
ENDBRANCH  11  14
ENDBRANCH   7   8
ENDBRANCH   1   7
BRANCH   4  18
HETATM   18  C10 UNL     1       7.532  -4.510  57.385  1.00  0.00     0.223 C
HETATM   19 CL1  UNL     1       5.987  -3.746  57.657  1.00  0.00    -0.096 Cl
BRANCH  18  20
HETATM   20  N1  UNL     1       7.495  -5.610  56.448  1.00  0.00    -0.311 N
HETATM   21 CL2  UNL     1       8.211  -7.058  57.006  1.00  0.00     0.007 Cl
ATOM     22  H1  UNL     1       7.073  -5.528  55.523  1.00  0.00     0.176 HD
ENDBRANCH  18  20
ENDBRANCH   4  18
TORSDOF 6
ENDMDL