MODEL 1
REMARK VINA RESULT: -6.357129862      0.000      0.000
REMARK  6 active torsions:
REMARK  status: ('A' for Active; 'I' for Inactive)
REMARK    1  A    between atoms: C2_2  and  N1_4
REMARK    2  A    between atoms: C2_2  and  C11_18
REMARK    3  A    between atoms: N1_4  and  C4_6
REMARK    4  A    between atoms: C7_9  and  O1_10
REMARK    5  A    between atoms: O1_10  and  C8_11
REMARK    6  A    between atoms: C8_11  and  C9_12
ROOT
HETATM    1  C4  UNL     1      17.179  -3.357  51.180  1.00  0.00     0.105 A
HETATM    2  C5  UNL     1      16.837  -2.234  51.904  1.00  0.00     0.040 A
HETATM    3  C6  UNL     1      16.320  -1.128  51.232  1.00  0.00     0.066 A
HETATM    4  C7  UNL     1      16.138  -1.115  49.868  1.00  0.00     0.189 A
HETATM    5  O2  UNL     1      16.475  -2.193  49.226  1.00  0.00    -0.250 OA
HETATM    6  C10 UNL     1      16.969  -3.269  49.818  1.00  0.00     0.316 A
HETATM    7  O3  UNL     1      17.263  -4.264  49.097  1.00  0.00    -0.257 OA
ENDROOT
BRANCH   1   8
HETATM    8  N1  UNL     1      17.715  -4.543  51.740  1.00  0.00    -0.374 N
ATOM      9  H1  UNL     1      18.704  -4.732  51.578  1.00  0.00     0.160 HD
BRANCH   8  10
HETATM   10  C2  UNL     1      16.976  -5.506  52.522  1.00  0.00     0.053 C
HETATM   11  C1  UNL     1      17.197  -6.919  52.091  1.00  0.00     0.041 C
HETATM   12  C3  UNL     1      15.483  -5.216  52.476  1.00  0.00     0.041 C
BRANCH  10  13
HETATM   13  C11 UNL     1      17.462  -5.381  53.973  1.00  0.00     0.205 C
HETATM   14 CL3  UNL     1      19.094  -4.675  53.991  1.00  0.00    -0.106 Cl
HETATM   15 CL4  UNL     1      16.351  -4.311  54.867  1.00  0.00    -0.106 Cl
ENDBRANCH  10  13
ENDBRANCH   8  10
ENDBRANCH   1   8
BRANCH   4  16
HETATM   16  O1  UNL     1      15.628  -0.041  49.155  1.00  0.00    -0.328 OA
BRANCH  16  17
HETATM   17  C8  UNL     1      16.453   1.029  48.765  1.00  0.00     0.213 C
BRANCH  17  18
HETATM   18  C9  UNL     1      16.019   2.295  49.476  1.00  0.00     0.202 C
HETATM   19 CL1  UNL     1      16.138   3.690  48.396  1.00  0.00    -0.106 Cl
HETATM   20 CL2  UNL     1      14.340   2.155  50.016  1.00  0.00    -0.106 Cl
ENDBRANCH  17  18
ENDBRANCH  16  17
ENDBRANCH   4  16
TORSDOF 6
ENDMDL