MODEL 5
REMARK VINA RESULT: -7.061999290      3.890      6.434
REMARK  5 active torsions:
REMARK  status: ('A' for Active; 'I' for Inactive)
REMARK    1  A    between atoms: C4_5  and  C5_6
REMARK    2  A    between atoms: C8_10  and  N2_11
REMARK    3  A    between atoms: N2_11  and  C9_13
REMARK    4  A    between atoms: C13_18  and  O2_19
REMARK    5  A    between atoms: O2_19  and  C14_20
ROOT
HETATM    1  C1  UNL     1       9.199  -1.162  55.122  1.00  0.00     0.060 C
HETATM    2  C2  UNL     1      10.660  -1.001  54.944  1.00  0.00     0.019 C
HETATM    3  C3  UNL     1      11.261   0.205  55.400  1.00  0.00     0.094 C
HETATM    4  N1  UNL     1      11.736   1.225  55.764  1.00  0.00    -0.192 NA
HETATM    5  C4  UNL     1      11.347  -1.923  54.339  1.00  0.00     0.031 C
ENDROOT
BRANCH   5   6
HETATM    6  C5  UNL     1      12.797  -1.900  54.097  1.00  0.00    -0.007 A
HETATM    7  C6  UNL     1      13.656  -2.272  55.108  1.00  0.00     0.058 A
HETATM    8  C7  UNL     1      15.043  -2.243  54.957  1.00  0.00     0.146 A
HETATM    9  F1  UNL     1      15.798  -2.645  55.991  1.00  0.00    -0.204 F
HETATM   10  C8  UNL     1      15.629  -1.836  53.781  1.00  0.00     0.104 A
HETATM   11  C13 UNL     1      14.767  -1.464  52.769  1.00  0.00     0.127 A
HETATM   12  C15 UNL     1      13.378  -1.495  52.928  1.00  0.00     0.080 A
HETATM   13 CL1  UNL     1      12.362  -0.941  51.616  1.00  0.00    -0.080 Cl
BRANCH  10  14
HETATM   14  N2  UNL     1      17.041  -1.751  53.588  1.00  0.00    -0.359 N
ATOM     15  H2  UNL     1      17.458  -0.840  53.777  1.00  0.00     0.162 HD
BRANCH  14  16
HETATM   16  C9  UNL     1      17.943  -2.762  53.171  1.00  0.00     0.221 C
HETATM   17  C10 UNL     1      17.251  -4.087  53.015  1.00  0.00     0.056 C
HETATM   18  C11 UNL     1      17.751  -4.894  54.159  1.00  0.00     0.031 C
HETATM   19  C12 UNL     1      18.522  -3.906  54.995  1.00  0.00     0.170 C
HETATM   20  O1  UNL     1      18.938  -2.903  54.137  1.00  0.00    -0.367 OA
ENDBRANCH  14  16
ENDBRANCH  10  14
BRANCH  11  21
HETATM   21  O2  UNL     1      15.282  -1.041  51.531  1.00  0.00    -0.286 OA
BRANCH  21  22
HETATM   22  C14 UNL     1      15.452  -1.954  50.441  1.00  0.00     0.505 C
HETATM   23  F2  UNL     1      14.815  -1.439  49.309  1.00  0.00    -0.184 F
HETATM   24  F3  UNL     1      16.778  -2.019  50.109  1.00  0.00    -0.184 F
ENDBRANCH  21  22
ENDBRANCH  11  21
ENDBRANCH   5   6
TORSDOF 5
ENDMDL