MODEL 2
REMARK VINA RESULT: -6.785955491      3.069      6.078
REMARK  6 active torsions:
REMARK  status: ('A' for Active; 'I' for Inactive)
REMARK    1  A    between atoms: C2_2  and  C3_3
REMARK    2  A    between atoms: C3_3  and  C4_5
REMARK    3  A    between atoms: C5_6  and  N1_7
REMARK    4  A    between atoms: N1_7  and  C6_9
REMARK    5  A    between atoms: C12_15  and  C13_16
REMARK    6  A    between atoms: N3_22  and  C14_23
ROOT
HETATM    1  C4  UNL     1      13.232  -1.795  54.099  1.00  0.00     0.125 A
HETATM    2  C5  UNL     1      14.232  -2.042  53.133  1.00  0.00     0.092 A
HETATM    3  C12 UNL     1      15.421  -1.779  53.776  1.00  0.00     0.143 A
HETATM    4  N2  UNL     1      15.143  -1.403  55.023  1.00  0.00    -0.293 N
ATOM      5  H2  UNL     1      15.841  -1.148  55.721  1.00  0.00     0.187 HD
HETATM    6  N3  UNL     1      13.816  -1.407  55.237  1.00  0.00    -0.286 N
ENDROOT
BRANCH   2   7
HETATM    7  N1  UNL     1      14.048  -2.439  51.768  1.00  0.00    -0.382 N
ATOM      8  H1  UNL     1      14.078  -3.441  51.578  1.00  0.00     0.160 HD
BRANCH   7   9
HETATM    9  C6  UNL     1      13.828  -1.593  50.653  1.00  0.00     0.082 C
HETATM   10  C7  UNL     1      14.357  -0.190  50.739  1.00  0.00     0.025 C
HETATM   11  C8  UNL     1      13.720   0.610  49.599  1.00  0.00     0.002 C
HETATM   12  C9  UNL     1      13.171  -0.276  48.512  1.00  0.00     0.000 C
HETATM   13  C10 UNL     1      12.015  -1.110  49.045  1.00  0.00     0.002 C
HETATM   14  C11 UNL     1      12.298  -1.423  50.482  1.00  0.00     0.025 C
ENDBRANCH   7   9
ENDBRANCH   2   7
BRANCH   1  15
HETATM   15  C3  UNL     1      11.841  -2.034  53.859  1.00  0.00     0.179 C
HETATM   16  O1  UNL     1      11.503  -3.234  53.492  1.00  0.00    -0.291 OA
BRANCH  15  17
HETATM   17  C2  UNL     1      10.691  -1.129  53.956  1.00  0.00     0.081 C
HETATM   18  C1  UNL     1       9.587  -1.490  52.983  1.00  0.00     0.013 C
ENDBRANCH  15  17
ENDBRANCH   1  15
BRANCH   3  19
HETATM   19  C13 UNL     1      16.787  -1.879  53.191  1.00  0.00     0.367 C
HETATM   20  F1  UNL     1      16.917  -1.183  52.030  1.00  0.00    -0.181 F
HETATM   21  F2  UNL     1      17.748  -1.645  54.138  1.00  0.00    -0.181 F
HETATM   22 CL1  UNL     1      17.030  -3.617  52.729  1.00  0.00    -0.041 Cl
ENDBRANCH   3  19
BRANCH   6  23
HETATM   23  C14 UNL     1      13.308  -1.009  56.527  1.00  0.00     0.145 C
HETATM   24  C15 UNL     1      12.849   0.456  56.478  1.00  0.00     0.028 C
ENDBRANCH   6  23
TORSDOF 6
ENDMDL