MODEL 1
REMARK VINA RESULT: -6.645277060      0.000      0.000
REMARK  5 active torsions:
REMARK  status: ('A' for Active; 'I' for Inactive)
REMARK    1  A    between atoms: O1_1  and  C1_3
REMARK    2  A    between atoms: C1_3  and  C2_4
REMARK    3  A    between atoms: C1_3  and  C10_18
REMARK    4  A    between atoms: C2_4  and  N1_5
REMARK    5  A    between atoms: C5_11  and  C6_12
ROOT
HETATM    1  N1  UNL     1      15.495  -0.378  50.581  1.00  0.00    -0.319 N
HETATM    2  C3  UNL     1      15.604   0.839  49.963  1.00  0.00     0.122 A
HETATM    3 CL1  UNL     1      14.427   2.130  49.916  1.00  0.00    -0.063 Cl
HETATM    4  C4  UNL     1      16.834   0.904  49.356  1.00  0.00     0.132 A
HETATM    5  N2  UNL     1      17.426  -0.255  49.618  1.00  0.00    -0.348 N
ATOM      6  H2  UNL     1      18.360  -0.519  49.302  1.00  0.00     0.167 HD
HETATM    7  C5  UNL     1      16.626  -1.021  50.350  1.00  0.00     0.127 A
ENDROOT
BRANCH   1   8
HETATM    8  C2  UNL     1      14.310  -0.764  51.314  1.00  0.00     0.166 C
BRANCH   8   9
HETATM    9  C1  UNL     1      13.674  -2.012  50.761  1.00  0.00     0.169 C
BRANCH   9  10
HETATM   10  O1  UNL     1      13.634  -3.043  51.696  1.00  0.00    -0.391 OA
ATOM     11  H1  UNL     1      14.221  -3.755  51.472  1.00  0.00     0.210 HD
ENDBRANCH   9  10
BRANCH   9  12
HETATM   12  C10 UNL     1      12.309  -1.744  50.178  1.00  0.00     0.208 C
HETATM   13 CL3  UNL     1      12.382  -0.598  48.822  1.00  0.00    -0.105 Cl
HETATM   14 CL4  UNL     1      11.211  -1.075  51.403  1.00  0.00    -0.105 Cl
ENDBRANCH   9  12
ENDBRANCH   8   9
ENDBRANCH   1   8
BRANCH   7  15
HETATM   15  C6  UNL     1      16.985  -2.381  50.809  1.00  0.00     0.070 A
HETATM   16  S1  UNL     1      17.255  -3.792  49.900  1.00  0.00    -0.097 SA
HETATM   17  C7  UNL     1      17.614  -4.881  51.157  1.00  0.00     0.052 A
HETATM   18  C8  UNL     1      17.510  -4.094  52.278  1.00  0.00     0.032 A
HETATM   19  C9  UNL     1      17.185  -2.804  52.093  1.00  0.00     0.055 A
HETATM   20 CL2  UNL     1      17.016  -1.664  53.471  1.00  0.00    -0.083 Cl
ENDBRANCH   7  15
TORSDOF 5
ENDMDL