MODEL 3
REMARK VINA RESULT: -7.432982623      0.943      2.388
REMARK  6 active torsions:
REMARK  status: ('A' for Active; 'I' for Inactive)
REMARK    1  A    between atoms: C2_2  and  C4_4
REMARK    2  A    between atoms: C4_4  and  C5_5
REMARK    3  A    between atoms: C5_5  and  C13_23
REMARK    4  A    between atoms: N1_6  and  O1_8
REMARK    5  A    between atoms: O1_8  and  C6_9
REMARK       I    between atoms: C6_9  and  N2_11
REMARK    6  A    between atoms: N2_11  and  C7_13
ROOT
HETATM    1  C13 UNL     1      13.336  -0.096  50.106  1.00  0.00     0.136 C
HETATM    2  C14 UNL     1      13.101  -0.496  48.644  1.00  0.00     0.032 C
HETATM    3  C15 UNL     1      14.026   1.217  50.130  1.00  0.00     0.069 C
HETATM    4  N3  UNL     1      14.568   2.238  50.130  1.00  0.00    -0.197 NA
ENDROOT
BRANCH   1   5
HETATM    5  C5  UNL     1      14.235  -1.131  50.675  1.00  0.00     0.028 C
HETATM    6  N1  UNL     1      14.173  -1.400  51.920  1.00  0.00    -0.263 N
ATOM      7  H1  UNL     1      14.784  -2.109  52.324  1.00  0.00     0.194 HD
BRANCH   5   8
HETATM    8  C4  UNL     1      15.165  -1.800  49.731  1.00  0.00     0.060 C
BRANCH   8   9
HETATM    9  C2  UNL     1      16.572  -1.881  50.243  1.00  0.00    -0.017 C
HETATM   10  C1  UNL     1      17.330  -3.073  49.756  1.00  0.00     0.010 C
HETATM   11  C3  UNL     1      17.295  -0.633  49.752  1.00  0.00     0.010 C
ENDBRANCH   8   9
ENDBRANCH   5   8
BRANCH   6  12
HETATM   12  O1  UNL     1      13.280  -0.726  52.710  1.00  0.00    -0.181 OA
BRANCH  12  13
HETATM   13  C6  UNL     1      12.676  -1.235  53.827  1.00  0.00     0.387 C
HETATM   14  O2  UNL     1      13.129  -0.959  54.945  1.00  0.00    -0.236 OA
HETATM   15  N2  UNL     1      11.534  -2.076  53.697  1.00  0.00    -0.296 N
ATOM     16  H2  UNL     1      11.183  -2.286  52.763  1.00  0.00     0.171 HD
BRANCH  15  17
HETATM   17  C7  UNL     1      10.868  -2.632  54.825  1.00  0.00     0.121 A
HETATM   18  C8  UNL     1      11.244  -3.826  55.409  1.00  0.00     0.184 A
HETATM   19  F1  UNL     1      12.290  -4.496  54.891  1.00  0.00    -0.200 F
HETATM   20  C9  UNL     1      10.582  -4.352  56.506  1.00  0.00     0.160 A
HETATM   21  F2  UNL     1      11.027  -5.540  57.018  1.00  0.00    -0.203 F
HETATM   22  C10 UNL     1       9.517  -3.685  57.050  1.00  0.00     0.091 A
HETATM   23  C11 UNL     1       9.115  -2.495  56.493  1.00  0.00     0.160 A
HETATM   24  F3  UNL     1       8.055  -1.864  57.060  1.00  0.00    -0.203 F
HETATM   25  C12 UNL     1       9.784  -1.981  55.399  1.00  0.00     0.184 A
HETATM   26  F4  UNL     1       9.348  -0.794  54.880  1.00  0.00    -0.200 F
ENDBRANCH  15  17
ENDBRANCH  12  13
ENDBRANCH   6  12
ENDBRANCH   1   5
TORSDOF 6
ENDMDL