MODEL 1
REMARK VINA RESULT: -6.880908518      0.000      0.000
REMARK  6 active torsions:
REMARK  status: ('A' for Active; 'I' for Inactive)
REMARK    1  A    between atoms: C2_2  and  C3_3
REMARK    2  A    between atoms: C3_3  and  C4_4
REMARK    3  A    between atoms: C3_3  and  N2_11
REMARK    4  A    between atoms: C4_4  and  C5_5
REMARK    5  A    between atoms: N1_7  and  O1_9
REMARK    6  A    between atoms: C7_14  and  C8_15
ROOT
HETATM    1  N2  UNL     1      14.890  -1.491  51.147  1.00  0.00    -0.290 N
HETATM    2  N3  UNL     1      15.803  -2.270  50.596  1.00  0.00    -0.295 N
ATOM      3  H3  UNL     1      16.164  -2.140  49.650  1.00  0.00     0.187 HD
HETATM    4  C7  UNL     1      16.198  -3.241  51.408  1.00  0.00     0.116 A
HETATM    5  C10 UNL     1      15.472  -3.054  52.566  1.00  0.00     0.064 A
HETATM    6 BR1  UNL     1      15.566  -4.127  54.158  1.00  0.00    -0.047 Br
HETATM    7  C11 UNL     1      14.658  -1.956  52.385  1.00  0.00     0.044 A
HETATM    8  C12 UNL     1      13.725  -1.444  53.422  1.00  0.00     0.071 C
ENDROOT
BRANCH   1   9
HETATM    9  C3  UNL     1      14.240  -0.344  50.554  1.00  0.00     0.113 C
BRANCH   9  10
HETATM   10  C2  UNL     1      12.775  -0.613  50.281  1.00  0.00     0.023 C
HETATM   11  C1  UNL     1      12.499  -0.725  48.804  1.00  0.00     0.007 C
ENDBRANCH   9  10
BRANCH   9  12
HETATM   12  C4  UNL     1      14.975   0.012  49.265  1.00  0.00     0.081 C
BRANCH  12  13
HETATM   13  C5  UNL     1      15.857   1.185  49.466  1.00  0.00     0.008 C
HETATM   14  C6  UNL     1      15.308   2.544  49.685  1.00  0.00     0.065 C
HETATM   15  N1  UNL     1      17.126   1.031  49.453  1.00  0.00    -0.278 N
ATOM     16  H1  UNL     1      17.746   1.830  49.590  1.00  0.00     0.193 HD
BRANCH  15  17
HETATM   17  O1  UNL     1      17.640  -0.220  49.252  1.00  0.00    -0.290 OA
ATOM     18  H1  UNL     1      18.426  -0.316  48.729  1.00  0.00     0.244 HD
ENDBRANCH  15  17
ENDBRANCH  12  13
ENDBRANCH   9  12
ENDBRANCH   1   9
BRANCH   4  19
HETATM   19  C8  UNL     1      17.187  -4.335  51.226  1.00  0.00     0.284 C
HETATM   20  C9  UNL     1      17.798  -4.253  49.836  1.00  0.00     0.097 C
HETATM   21  F1  UNL     1      18.227  -4.064  52.125  1.00  0.00    -0.200 F
HETATM   22  F2  UNL     1      16.657  -5.569  51.418  1.00  0.00    -0.200 F
ENDBRANCH   4  19
TORSDOF 6
ENDMDL