MODEL 2
REMARK VINA RESULT: -7.905068933      2.657      5.457
REMARK  12 active torsions:
REMARK  status: ('A' for Active; 'I' for Inactive)
REMARK    1  A    between atoms: C2_4  and  C4_6
REMARK    2  A    between atoms: C5_7  and  O1_8
REMARK    3  A    between atoms: C6_10  and  N2_11
REMARK    4  A    between atoms: C9_14  and  N3_15
REMARK    5  A    between atoms: C10_18  and  O4_19
REMARK    6  A    between atoms: C11_21  and  C12_22
REMARK    7  A    between atoms: C12_22  and  O5_23
REMARK    8  A    between atoms: C12_22  and  C13_25
REMARK    9  A    between atoms: C13_25  and  C14_26
REMARK   10  A    between atoms: C14_26  and  C15_27
REMARK   11  A    between atoms: C19_32  and  C20_33
REMARK   12  A    between atoms: C22_38  and  O6_40
ROOT
HETATM    1  C4  UNL     1      13.065  -3.371  56.265  1.00  0.00     0.037 A
HETATM    2  C5  UNL     1      11.714  -3.486  56.649  1.00  0.00     0.108 A
HETATM    3  C6  UNL     1      10.699  -2.653  56.226  1.00  0.00     0.101 A
HETATM    4  C9  UNL     1      11.021  -1.654  55.373  1.00  0.00     0.166 A
HETATM    5  C10 UNL     1      12.321  -1.516  54.975  1.00  0.00     0.115 A
HETATM    6  C11 UNL     1      13.393  -2.326  55.381  1.00  0.00     0.049 A
ENDROOT
BRANCH   6   7
HETATM    7  C12 UNL     1      14.708  -1.905  55.175  1.00  0.00     0.092 C
BRANCH   7   8
HETATM    8  O5  UNL     1      15.013  -0.723  55.624  1.00  0.00    -0.359 OA
ATOM      9  H5  UNL     1      15.837  -0.649  56.091  1.00  0.00     0.217 HD
ENDBRANCH   7   8
BRANCH   7  10
HETATM   10  C13 UNL     1      15.911  -2.499  54.524  1.00  0.00     0.027 C
HETATM   11  C22 UNL     1      17.111  -2.907  55.172  1.00  0.00     0.052 C
HETATM   12  C23 UNL     1      18.377  -3.407  54.584  1.00  0.00     0.077 C
BRANCH  10  13
HETATM   13  C14 UNL     1      15.708  -2.730  53.235  1.00  0.00     0.028 C
BRANCH  13  14
HETATM   14  C15 UNL     1      15.775  -1.915  52.064  1.00  0.00    -0.034 A
HETATM   15  C16 UNL     1      17.035  -1.548  51.556  1.00  0.00     0.014 A
HETATM   16  C17 UNL     1      17.158  -0.694  50.490  1.00  0.00     0.044 A
HETATM   17  C18 UNL     1      16.055  -0.152  49.865  1.00  0.00     0.131 A
HETATM   18  F1  UNL     1      16.175   0.693  48.808  1.00  0.00    -0.205 F
HETATM   19  C19 UNL     1      14.808  -0.492  50.341  1.00  0.00     0.087 A
HETATM   20  C21 UNL     1      14.680  -1.347  51.407  1.00  0.00     0.030 A
BRANCH  19  21
HETATM   21  C20 UNL     1      13.619   0.092  49.669  1.00  0.00     0.420 C
HETATM   22  F2  UNL     1      13.594  -0.286  48.341  1.00  0.00    -0.166 F
HETATM   23  F3  UNL     1      13.712   1.473  49.772  1.00  0.00    -0.166 F
HETATM   24  F4  UNL     1      12.475  -0.384  50.283  1.00  0.00    -0.166 F
ENDBRANCH  19  21
ENDBRANCH  13  14
ENDBRANCH  10  13
BRANCH  11  25
HETATM   25  O6  UNL     1      17.210  -2.865  56.473  1.00  0.00    -0.364 OA
ATOM     26  H6  UNL     1      16.635  -3.389  57.018  1.00  0.00     0.217 HD
ENDBRANCH  11  25
ENDBRANCH   7  10
ENDBRANCH   6   7
BRANCH   1  27
HETATM   27  C2  UNL     1      13.985  -4.323  56.861  1.00  0.00     0.015 C
HETATM   28  N1  UNL     1      14.560  -4.269  57.975  1.00  0.00    -0.397 N
HETATM   29  C1  UNL     1      15.457  -5.212  58.554  1.00  0.00     0.146 C
ATOM     30  H1  UNL     1      14.361  -3.442  58.539  1.00  0.00     0.158 HD
HETATM   31  C3  UNL     1      14.357  -5.599  56.106  1.00  0.00     0.068 C
ENDBRANCH   1  27
BRANCH   5  32
HETATM   32  O4  UNL     1      12.549  -0.477  54.050  1.00  0.00    -0.357 OA
ATOM     33  H4  UNL     1      13.128  -0.703  53.331  1.00  0.00     0.217 HD
ENDBRANCH   5  32
BRANCH   2  34
HETATM   34  O1  UNL     1      11.328  -4.500  57.521  1.00  0.00    -0.357 OA
ATOM     35  H1  UNL     1      10.441  -4.839  57.486  1.00  0.00     0.217 HD
ENDBRANCH   2  34
BRANCH   4  36
HETATM   36  N3  UNL     1      10.009  -0.765  54.906  1.00  0.00    -0.110 N
HETATM   37  O2  UNL     1       9.746   0.248  55.550  1.00  0.00    -0.532 OA
HETATM   38  O3  UNL     1       9.359  -1.070  53.752  1.00  0.00    -0.532 OA
ENDBRANCH   4  36
BRANCH   3  39
HETATM   39  N2  UNL     1       9.363  -2.844  56.676  1.00  0.00    -0.373 N
HETATM   40  C7  UNL     1       7.986  -3.330  56.495  1.00  0.00     0.143 A
HETATM   41  C8  UNL     1       8.402  -2.645  57.754  1.00  0.00     0.143 A
ENDBRANCH   3  39
TORSDOF 12
ENDMDL