MODEL 3
REMARK VINA RESULT: -8.500889671      1.842      1.952
REMARK  7 active torsions:
REMARK  status: ('A' for Active; 'I' for Inactive)
REMARK    1  A    between atoms: C2_2  and  O1_3
REMARK    2  A    between atoms: O1_3  and  C3_4
REMARK    3  A    between atoms: C4_5  and  C5_6
REMARK    4  A    between atoms: C4_5  and  C12_17
REMARK       I    between atoms: C5_6  and  N1_8
REMARK    5  A    between atoms: N1_8  and  C6_10
REMARK    6  A    between atoms: C6_10  and  C7_11
REMARK    7  A    between atoms: C18_26  and  C19_27
ROOT
HETATM    1  C12 UNL     1      15.427  -5.252  53.138  1.00  0.00     0.116 C
HETATM    2  C13 UNL     1      14.198  -4.426  52.667  1.00  0.00     0.141 C
HETATM    3  N2  UNL     1      14.434  -3.559  51.577  1.00  0.00    -0.387 N
ATOM      4  H2  UNL     1      13.764  -3.728  50.827  1.00  0.00     0.159 HD
HETATM    5  C14 UNL     1      15.365  -2.488  51.213  1.00  0.00     0.063 A
HETATM    6  C15 UNL     1      16.734  -2.604  51.413  1.00  0.00     0.095 A
HETATM    7  S2  UNL     1      17.393  -1.163  50.860  1.00  0.00    -0.065 SA
HETATM    8  C16 UNL     1      15.950  -0.395  50.371  1.00  0.00     0.106 A
HETATM    9  C17 UNL     1      14.961  -1.300  50.654  1.00  0.00     0.056 A
HETATM   10  C18 UNL     1      13.797  -0.629  50.253  1.00  0.00     0.105 A
HETATM   11  N3  UNL     1      14.161   0.607  49.765  1.00  0.00    -0.296 N
ATOM     12  H3  UNL     1      13.510   1.304  49.403  1.00  0.00     0.187 HD
HETATM   13  N4  UNL     1      15.449   0.761  49.829  1.00  0.00    -0.288 N
HETATM   14  C20 UNL     1      16.229   1.898  49.424  1.00  0.00     0.178 C
HETATM   15  C21 UNL     1      17.544  -3.759  52.024  1.00  0.00     0.332 C
HETATM   16  F3  UNL     1      18.347  -4.337  51.053  1.00  0.00    -0.186 F
HETATM   17  F4  UNL     1      18.471  -3.132  52.876  1.00  0.00    -0.186 F
HETATM   18  C22 UNL     1      16.564  -4.600  52.627  1.00  0.00    -0.090 C
ENDROOT
BRANCH   1  19
HETATM   19  C4  UNL     1      15.285  -5.413  54.619  1.00  0.00     0.048 C
HETATM   20  C3  UNL     1      15.778  -6.555  55.158  1.00  0.00     0.148 C
BRANCH  20  21
HETATM   21  O1  UNL     1      16.352  -7.468  54.448  1.00  0.00    -0.363 OA
BRANCH  21  22
HETATM   22  C2  UNL     1      16.930  -8.386  53.733  1.00  0.00     0.170 C
HETATM   23  C1  UNL     1      18.304  -7.922  53.197  1.00  0.00     0.034 C
ENDBRANCH  21  22
ENDBRANCH  20  21
BRANCH  19  24
HETATM   24  C5  UNL     1      14.669  -4.470  55.500  1.00  0.00     0.251 C
HETATM   25  O2  UNL     1      13.870  -4.847  56.403  1.00  0.00    -0.268 OA
HETATM   26  N1  UNL     1      14.875  -3.080  55.463  1.00  0.00    -0.352 N
ATOM     27  H1  UNL     1      15.508  -2.706  54.755  1.00  0.00     0.163 HD
BRANCH  26  28
HETATM   28  C6  UNL     1      14.241  -2.146  56.373  1.00  0.00     0.169 C
BRANCH  28  29
HETATM   29  C7  UNL     1      12.964  -1.593  55.783  1.00  0.00     0.001 A
HETATM   30  C8  UNL     1      12.472  -0.321  55.912  1.00  0.00     0.017 A
HETATM   31  C9  UNL     1      11.311  -0.050  55.297  1.00  0.00     0.015 A
HETATM   32  C10 UNL     1      10.717  -1.062  54.595  1.00  0.00    -0.021 A
HETATM   33  C11 UNL     1       9.422  -1.016  53.823  1.00  0.00     0.056 C
HETATM   34  S1  UNL     1      11.796  -2.362  54.813  1.00  0.00    -0.098 SA
ENDBRANCH  28  29
ENDBRANCH  26  28
ENDBRANCH  19  24
ENDBRANCH   1  19
BRANCH  10  35
HETATM   35  C19 UNL     1      12.390  -1.092  50.292  1.00  0.00     0.405 C
HETATM   36  F1  UNL     1      11.735  -0.645  49.191  1.00  0.00    -0.207 F
HETATM   37  F2  UNL     1      11.737  -0.609  51.433  1.00  0.00    -0.207 F
ENDBRANCH  10  35
TORSDOF 7
ENDMDL