MODEL 4
REMARK VINA RESULT: -8.175260573      2.776      6.555
REMARK  11 active torsions:
REMARK  status: ('A' for Active; 'I' for Inactive)
REMARK    1  A    between atoms: C2_2  and  O1_5
REMARK    2  A    between atoms: O1_5  and  C5_6
REMARK    3  A    between atoms: C5_6  and  C6_8
REMARK    4  A    between atoms: C7_9  and  O3_10
REMARK    5  A    between atoms: C7_9  and  C22_35
REMARK    6  A    between atoms: O3_10  and  C8_11
REMARK    7  A    between atoms: C9_14  and  C10_15
REMARK    8  A    between atoms: C13_18  and  N2_19
REMARK    9  A    between atoms: C15_23  and  C16_24
REMARK   10  A    between atoms: C17_27  and  C18_28
REMARK   11  A    between atoms: C18_28  and  O6_29
ROOT
HETATM    1  C8  UNL     1      16.622  -2.875  53.468  1.00  0.00     0.154 C
HETATM    2  N1  UNL     1      15.698  -1.860  53.860  1.00  0.00    -0.360 N
ATOM      3  H1  UNL     1      15.498  -1.077  53.238  1.00  0.00     0.162 HD
HETATM    4  C9  UNL     1      15.054  -1.955  55.142  1.00  0.00     0.148 C
HETATM    5  C17 UNL     1      15.457  -3.312  55.660  1.00  0.00     0.173 C
HETATM    6  O7  UNL     1      16.870  -3.333  55.789  1.00  0.00    -0.363 OA
HETATM    7  C19 UNL     1      17.442  -3.505  54.516  1.00  0.00     0.119 C
HETATM    8  C20 UNL     1      17.425  -5.029  54.304  1.00  0.00     0.055 C
HETATM    9  C21 UNL     1      18.882  -3.136  54.609  1.00  0.00     0.055 C
ENDROOT
BRANCH   1  10
HETATM   10  O3  UNL     1      17.325  -2.623  52.310  1.00  0.00    -0.293 OA
BRANCH  10  11
HETATM   11  C7  UNL     1      17.222  -2.892  51.013  1.00  0.00     0.125 C
HETATM   12  C6  UNL     1      16.829  -2.013  50.121  1.00  0.00     0.120 C
BRANCH  12  13
HETATM   13  C5  UNL     1      16.467  -0.653  50.428  1.00  0.00     0.286 C
HETATM   14  O2  UNL     1      17.192   0.334  50.181  1.00  0.00    -0.260 OA
BRANCH  13  15
HETATM   15  O1  UNL     1      15.239  -0.415  51.036  1.00  0.00    -0.308 OA
BRANCH  15  16
HETATM   16  C2  UNL     1      14.105   0.065  50.387  1.00  0.00     0.060 C
HETATM   17  C1  UNL     1      14.124   1.540  50.147  1.00  0.00     0.046 C
HETATM   18  C3  UNL     1      12.858  -0.265  51.215  1.00  0.00     0.046 C
HETATM   19  C4  UNL     1      13.906  -0.648  49.045  1.00  0.00     0.046 C
ENDBRANCH  15  16
ENDBRANCH  13  15
ENDBRANCH  12  13
BRANCH  11  20
HETATM   20  C22 UNL     1      17.568  -4.261  50.489  1.00  0.00     0.410 C
HETATM   21  F3  UNL     1      16.898  -5.229  51.215  1.00  0.00    -0.207 F
HETATM   22  F4  UNL     1      17.327  -4.445  49.174  1.00  0.00    -0.207 F
ENDBRANCH  11  20
ENDBRANCH  10  11
ENDBRANCH   1  10
BRANCH   4  23
HETATM   23  C10 UNL     1      13.579  -1.828  54.972  1.00  0.00    -0.021 A
HETATM   24  C11 UNL     1      12.921  -2.640  54.073  1.00  0.00     0.012 A
HETATM   25  C12 UNL     1      11.570  -2.510  53.855  1.00  0.00     0.037 A
HETATM   26  C13 UNL     1      10.837  -1.559  54.534  1.00  0.00     0.103 A
HETATM   27  C14 UNL     1      11.521  -0.767  55.424  1.00  0.00     0.049 A
HETATM   28  C15 UNL     1      12.899  -0.874  55.670  1.00  0.00     0.016 A
BRANCH  26  29
HETATM   29  N2  UNL     1       9.439  -1.422  54.310  1.00  0.00    -0.116 N
HETATM   30  O4  UNL     1       9.055  -1.119  53.171  1.00  0.00    -0.532 OA
HETATM   31  O5  UNL     1       8.586  -1.628  55.355  1.00  0.00    -0.532 OA
ENDBRANCH  26  29
BRANCH  28  32
HETATM   32  C16 UNL     1      13.463   0.040  56.697  1.00  0.00     0.387 C
HETATM   33  F1  UNL     1      12.631   1.149  56.747  1.00  0.00    -0.209 F
HETATM   34  F2  UNL     1      13.531  -0.433  57.963  1.00  0.00    -0.209 F
ENDBRANCH  28  32
ENDBRANCH   4  23
BRANCH   5  35
HETATM   35  C18 UNL     1      14.975  -3.626  57.035  1.00  0.00     0.198 C
BRANCH  35  36
HETATM   36  O6  UNL     1      15.611  -2.764  57.919  1.00  0.00    -0.398 OA
ATOM     37  H6  UNL     1      15.401  -1.874  57.661  1.00  0.00     0.209 HD
ENDBRANCH  35  36
ENDBRANCH   5  35
TORSDOF 11
ENDMDL