MODEL 5
REMARK VINA RESULT: -8.771418558      2.092      3.058
REMARK  7 active torsions:
REMARK  status: ('A' for Active; 'I' for Inactive)
REMARK    1  A    between atoms: C6_7  and  O1_8
REMARK    2  A    between atoms: O1_8  and  C7_9
REMARK    3  A    between atoms: C8_10  and  C9_11
REMARK    4  A    between atoms: C12_16  and  N1_17
REMARK    5  A    between atoms: N1_17  and  S1_19
REMARK    6  A    between atoms: S1_19  and  C13_22
REMARK    7  A    between atoms: C15_27  and  C16_28
ROOT
HETATM    1  C7  UNL     1      14.354  -1.145  52.165  1.00  0.00     0.132 A
HETATM    2  C8  UNL     1      13.817  -0.552  51.013  1.00  0.00     0.063 A
HETATM    3  C10 UNL     1      12.443  -0.546  50.850  1.00  0.00     0.022 A
HETATM    4  C11 UNL     1      11.592  -1.099  51.780  1.00  0.00     0.034 A
HETATM    5  C12 UNL     1      12.091  -1.685  52.918  1.00  0.00     0.084 A
HETATM    6  C17 UNL     1      13.467  -1.682  53.062  1.00  0.00     0.178 A
HETATM    7  F2  UNL     1      13.904  -2.288  54.209  1.00  0.00    -0.201 F
ENDROOT
BRANCH   5   8
HETATM    8  N1  UNL     1      11.224  -2.249  53.883  1.00  0.00    -0.276 N
ATOM      9  H1  UNL     1      10.906  -3.201  53.707  1.00  0.00     0.179 HD
BRANCH   8  10
HETATM   10  S1  UNL     1      10.655  -1.513  55.300  1.00  0.00     0.280 S
HETATM   11  O3  UNL     1      11.741  -0.778  56.002  1.00  0.00    -0.199 OA
HETATM   12  O4  UNL     1       9.634  -0.408  54.956  1.00  0.00    -0.199 OA
BRANCH  10  13
HETATM   13  C13 UNL     1       9.877  -2.678  56.406  1.00  0.00     0.173 A
HETATM   14  N2  UNL     1       8.611  -2.523  56.721  1.00  0.00    -0.348 N
HETATM   15  C14 UNL     1       8.015  -3.369  57.524  1.00  0.00     0.140 A
ATOM     16  H2  UNL     1       8.088  -1.737  56.335  1.00  0.00     0.166 HD
HETATM   17  S2  UNL     1       9.255  -4.468  57.890  1.00  0.00    -0.075 SA
HETATM   18  C15 UNL     1      10.528  -3.748  56.947  1.00  0.00     0.122 A
BRANCH  18  19
HETATM   19  C16 UNL     1      11.897  -4.254  56.803  1.00  0.00     0.219 C
HETATM   20  O5  UNL     1      12.708  -4.338  57.717  1.00  0.00    -0.643 OA
HETATM   21  O6  UNL     1      12.315  -4.674  55.525  1.00  0.00    -0.643 OA
ENDBRANCH  18  19
ENDBRANCH  10  13
ENDBRANCH   8  10
ENDBRANCH   5   8
BRANCH   1  22
HETATM   22  O1  UNL     1      15.703  -1.145  52.292  1.00  0.00    -0.300 OA
BRANCH  22  23
HETATM   23  C6  UNL     1      16.601  -2.083  52.645  1.00  0.00     0.153 A
HETATM   24  C5  UNL     1      16.850  -3.097  51.707  1.00  0.00     0.153 A
HETATM   25  C4  UNL     1      17.752  -4.118  51.936  1.00  0.00     0.046 A
HETATM   26  F1  UNL     1      16.177  -3.138  50.522  1.00  0.00    -0.203 F
HETATM   27  C3  UNL     1      18.447  -4.168  53.126  1.00  0.00     0.013 A
HETATM   28  C2  UNL     1      18.228  -3.191  54.068  1.00  0.00    -0.020 A
HETATM   29  C1  UNL     1      18.989  -3.264  55.341  1.00  0.00     0.051 C
HETATM   30  C18 UNL     1      17.317  -2.180  53.803  1.00  0.00     0.159 A
HETATM   31  F3  UNL     1      17.175  -1.254  54.757  1.00  0.00    -0.203 F
ENDBRANCH  22  23
ENDBRANCH   1  22
BRANCH   2  32
HETATM   32  C9  UNL     1      14.633   0.128  50.015  1.00  0.00     0.255 C
HETATM   33  O2  UNL     1      15.354  -0.443  49.166  1.00  0.00    -0.274 OA
HETATM   34 CL1  UNL     1      14.619   1.875  49.984  1.00  0.00    -0.038 Cl
ENDBRANCH   2  32
TORSDOF 7
ENDMDL