MODEL 4
REMARK VINA RESULT: -8.872688889      1.690      4.351
REMARK  9 active torsions:
REMARK  status: ('A' for Active; 'I' for Inactive)
REMARK    1  A    between atoms: O1_2  and  C2_3
REMARK    2  A    between atoms: C4_5  and  C5_6
REMARK    3  A    between atoms: N1_7  and  N2_9
REMARK    4  A    between atoms: N2_9  and  C6_11
REMARK    5  A    between atoms: C7_16  and  C8_17
REMARK    6  A    between atoms: C13_24  and  O2_25
REMARK    7  A    between atoms: O2_25  and  C14_26
REMARK    8  A    between atoms: C14_26  and  C15_27
REMARK    9  A    between atoms: C22_38  and  O4_39
ROOT
HETATM    1  C6  UNL     1      12.785  -0.308  55.439  1.00  0.00     0.180 A
HETATM    2  N3  UNL     1      13.927  -0.319  56.139  1.00  0.00    -0.278 N
ATOM      3  H3  UNL     1      14.060   0.312  56.930  1.00  0.00     0.189 HD
HETATM    4  N4  UNL     1      14.835  -1.130  55.797  1.00  0.00    -0.291 N
ATOM      5  H4  UNL     1      15.709  -1.146  56.325  1.00  0.00     0.187 HD
HETATM    6  C7  UNL     1      14.689  -1.950  54.786  1.00  0.00     0.105 A
HETATM    7  S1  UNL     1      13.091  -1.518  54.271  1.00  0.00    -0.031 SA
ENDROOT
BRANCH   6   8
HETATM    8  C8  UNL     1      15.598  -2.917  54.165  1.00  0.00     0.036 A
HETATM    9  C9  UNL     1      15.515  -4.233  54.637  1.00  0.00     0.020 A
HETATM   10  C10 UNL     1      16.260  -5.259  54.075  1.00  0.00     0.046 A
HETATM   11  C11 UNL     1      17.105  -4.982  53.026  1.00  0.00     0.157 A
HETATM   12  F1  UNL     1      17.863  -5.960  52.432  1.00  0.00    -0.203 F
HETATM   13  C12 UNL     1      17.205  -3.708  52.550  1.00  0.00     0.189 A
HETATM   14  F2  UNL     1      18.034  -3.437  51.520  1.00  0.00    -0.200 F
HETATM   15  C13 UNL     1      16.437  -2.679  53.142  1.00  0.00     0.123 A
BRANCH  15  16
HETATM   16  O2  UNL     1      16.604  -1.404  52.627  1.00  0.00    -0.344 OA
BRANCH  16  17
HETATM   17  C14 UNL     1      16.181  -0.993  51.379  1.00  0.00     0.213 C
BRANCH  17  18
HETATM   18  C15 UNL     1      14.781  -0.794  51.023  1.00  0.00     0.217 C
HETATM   19  O3  UNL     1      14.006  -1.883  50.705  1.00  0.00    -0.378 OA
HETATM   20  C16 UNL     1      12.677  -1.465  50.669  1.00  0.00     0.168 C
HETATM   21  C17 UNL     1      12.428  -0.800  49.335  1.00  0.00     0.032 C
HETATM   22  C18 UNL     1      13.731  -0.325  48.783  1.00  0.00     0.084 C
HETATM   23  C19 UNL     1      14.711   0.161  49.823  1.00  0.00     0.271 C
HETATM   24  F3  UNL     1      14.424   1.452  50.216  1.00  0.00    -0.203 F
HETATM   25  F4  UNL     1      15.958   0.229  49.188  1.00  0.00    -0.203 F
ENDBRANCH  17  18
ENDBRANCH  16  17
ENDBRANCH  15  16
ENDBRANCH   6   8
BRANCH   1  26
HETATM   26  N2  UNL     1      11.732   0.455  55.634  1.00  0.00    -0.279 N
ATOM     27  H2  UNL     1      11.738   1.465  55.487  1.00  0.00     0.189 HD
BRANCH  26  28
HETATM   28  N1  UNL     1      10.590  -0.259  56.068  1.00  0.00    -0.309 N
HETATM   29  C5  UNL     1      10.572  -1.543  56.028  1.00  0.00     0.118 C
ATOM     30  H1  UNL     1       9.776   0.249  56.415  1.00  0.00     0.186 HD
BRANCH  29  31
HETATM   31  C4  UNL     1       9.382  -2.248  56.483  1.00  0.00    -0.017 A
HETATM   32  C3  UNL     1       9.473  -3.557  56.950  1.00  0.00     0.052 A
HETATM   33  C2  UNL     1       8.374  -4.263  57.388  1.00  0.00     0.102 A
HETATM   34  C22 UNL     1       7.132  -3.673  57.373  1.00  0.00     0.099 A
HETATM   35  C21 UNL     1       7.032  -2.373  56.910  1.00  0.00     0.040 A
HETATM   36  C20 UNL     1       8.130  -1.671  56.473  1.00  0.00     0.016 A
BRANCH  33  37
HETATM   37  O1  UNL     1       8.507  -5.566  57.846  1.00  0.00    -0.353 OA
HETATM   38  C1  UNL     1       8.554  -6.660  56.958  1.00  0.00     0.210 C
ENDBRANCH  33  37
BRANCH  34  39
HETATM   39  O4  UNL     1       5.985  -4.360  57.813  1.00  0.00    -0.358 OA
ATOM     40  H4  UNL     1       5.112  -4.080  57.563  1.00  0.00     0.217 HD
ENDBRANCH  34  39
ENDBRANCH  29  31
ENDBRANCH  26  28
ENDBRANCH   1  26
TORSDOF 9
ENDMDL