MODEL 5
REMARK VINA RESULT: -8.840232078      2.575      2.784
REMARK  8 active torsions:
REMARK  status: ('A' for Active; 'I' for Inactive)
REMARK    1  A    between atoms: O1_2  and  C2_3
REMARK    2  A    between atoms: C3_6  and  N2_7
REMARK    3  A    between atoms: N2_7  and  C4_9
REMARK    4  A    between atoms: C4_9  and  C6_11
REMARK    5  A    between atoms: C7_16  and  S1_17
REMARK    6  A    between atoms: S1_17  and  C8_18
REMARK    7  A    between atoms: C10_25  and  C11_26
REMARK    8  A    between atoms: C13_28  and  C14_29
ROOT
HETATM    1  C2  UNL     1      11.934  -0.900  55.042  1.00  0.00     0.171 A
HETATM    2  N1  UNL     1      10.945  -0.883  55.988  1.00  0.00    -0.170 N
ATOM      3  H1  UNL     1      11.192  -0.652  56.950  1.00  0.00     0.186 HD
HETATM    4  C3  UNL     1       9.670  -1.157  55.704  1.00  0.00     0.680 A
HETATM    5  N5  UNL     1       9.367  -1.464  54.409  1.00  0.00    -0.201 N
ATOM      6  H5  UNL     1       8.403  -1.680  54.154  1.00  0.00     0.183 HD
HETATM    7  C9  UNL     1      10.317  -1.485  53.471  1.00  0.00     0.124 A
HETATM    8  C10 UNL     1      11.666  -1.197  53.750  1.00  0.00     0.058 A
ENDROOT
BRANCH   8   9
HETATM    9  C11 UNL     1      12.650  -1.253  52.706  1.00  0.00     0.050 A
HETATM   10  C12 UNL     1      12.960  -0.318  51.778  1.00  0.00     0.038 A
HETATM   11  C13 UNL     1      13.917  -0.488  50.764  1.00  0.00    -0.047 A
HETATM   12  C19 UNL     1      14.552  -1.697  50.750  1.00  0.00     0.069 A
HETATM   13  C20 UNL     1      14.264  -2.684  51.682  1.00  0.00     0.189 A
HETATM   14  F3  UNL     1      14.908  -3.891  51.656  1.00  0.00    -0.186 F
HETATM   15  N7  UNL     1      13.347  -2.437  52.605  1.00  0.00    -0.332 N
ATOM     16  H7  UNL     1      13.144  -3.170  53.284  1.00  0.00     0.168 HD
BRANCH  11  17
HETATM   17  C14 UNL     1      14.213   0.567  49.797  1.00  0.00     0.031 A
HETATM   18  C15 UNL     1      15.516   0.657  49.230  1.00  0.00     0.026 A
HETATM   19  C16 UNL     1      16.870   0.987  49.683  1.00  0.00     0.238 C
HETATM   20  C18 UNL     1      14.858   1.770  50.147  1.00  0.00     0.026 A
HETATM   21  N6  UNL     1      16.901   2.445  49.438  1.00  0.00    -0.074 N
HETATM   22  C17 UNL     1      15.485   2.867  49.410  1.00  0.00     0.238 C
ATOM     23  H62 UNL     1      17.471   2.963  50.107  1.00  0.00     0.277 HD
ATOM     24  H61 UNL     1      17.425   2.711  48.604  1.00  0.00     0.277 HD
ENDBRANCH  11  17
ENDBRANCH   8   9
BRANCH   1  25
HETATM   25  O1  UNL     1      13.211  -0.603  55.490  1.00  0.00    -0.340 OA
HETATM   26  C1  UNL     1      13.805  -1.623  56.318  1.00  0.00     0.211 C
ENDBRANCH   1  25
BRANCH   4  27
HETATM   27  N2  UNL     1       8.734  -1.141  56.588  1.00  0.00    -0.216 N
ATOM     28  H2  UNL     1       8.253  -0.265  56.798  1.00  0.00     0.178 HD
BRANCH  27  29
HETATM   29  C4  UNL     1       8.363  -2.328  57.276  1.00  0.00     0.154 C
HETATM   30  C5  UNL     1       7.090  -2.946  56.733  1.00  0.00     0.040 C
BRANCH  29  31
HETATM   31  C6  UNL     1       9.415  -3.399  57.126  1.00  0.00     0.091 A
HETATM   32  N3  UNL     1       9.450  -4.428  56.284  1.00  0.00    -0.294 N
HETATM   33  N4  UNL     1      10.430  -5.225  56.314  1.00  0.00    -0.287 N
ATOM     34  H3  UNL     1       8.690  -4.574  55.619  1.00  0.00     0.187 HD
HETATM   35  C7  UNL     1      11.417  -5.031  57.182  1.00  0.00     0.133 A
ATOM     36  H4  UNL     1      10.464  -6.017  55.672  1.00  0.00     0.188 HD
HETATM   37  S2  UNL     1      10.877  -3.620  57.983  1.00  0.00    -0.047 SA
BRANCH  35  38
HETATM   38  S1  UNL     1      12.886  -6.038  57.383  1.00  0.00    -0.034 SA
BRANCH  38  39
HETATM   39  C8  UNL     1      14.074  -5.641  56.060  1.00  0.00     0.422 C
HETATM   40  F1  UNL     1      15.014  -4.715  56.481  1.00  0.00    -0.202 F
HETATM   41  F2  UNL     1      13.343  -5.019  55.047  1.00  0.00    -0.202 F
ENDBRANCH  38  39
ENDBRANCH  35  38
ENDBRANCH  29  31
ENDBRANCH  27  29
ENDBRANCH   4  27
TORSDOF 8
ENDMDL