MODEL 5
REMARK VINA RESULT: -7.703914762      2.497      3.090
REMARK  10 active torsions:
REMARK  status: ('A' for Active; 'I' for Inactive)
REMARK    1  A    between atoms: C2_2  and  C3_3
REMARK    2  A    between atoms: C3_3  and  O1_4
REMARK    3  A    between atoms: C3_3  and  C4_6
REMARK    4  A    between atoms: C4_6  and  N1_7
REMARK    5  A    between atoms: N1_7  and  C5_9
REMARK    6  A    between atoms: C7_11  and  N2_12
REMARK    7  A    between atoms: N2_12  and  S1_14
REMARK    8  A    between atoms: C14_22  and  C15_23
REMARK    9  A    between atoms: N3_28  and  C19_29
REMARK   10  A    between atoms: C21_31  and  C22_32
ROOT
HETATM    1  C5  UNL     1      15.842  -1.874  55.011  1.00  0.00     0.042 A
HETATM    2  C6  UNL     1      16.501  -1.309  53.945  1.00  0.00     0.060 A
HETATM    3  C7  UNL     1      16.843  -2.054  52.813  1.00  0.00     0.041 A
HETATM    4  C12 UNL     1      16.508  -3.372  52.777  1.00  0.00     0.031 A
HETATM    5  C13 UNL     1      15.846  -3.938  53.853  1.00  0.00     0.014 A
HETATM    6  C14 UNL     1      15.490  -3.243  54.991  1.00  0.00    -0.006 A
ENDROOT
BRANCH   6   7
HETATM    7  C15 UNL     1      14.838  -3.831  56.132  1.00  0.00     0.145 C
HETATM    8  C16 UNL     1      14.683  -5.378  55.993  1.00  0.00     0.198 C
HETATM    9  O3  UNL     1      13.924  -5.838  57.069  1.00  0.00    -0.387 OA
HETATM   10  C17 UNL     1      13.858  -4.993  58.166  1.00  0.00     0.187 C
HETATM   11  C18 UNL     1      13.147  -3.656  57.846  1.00  0.00     0.152 C
HETATM   12  N3  UNL     1      13.471  -3.468  56.427  1.00  0.00    -0.347 N
BRANCH  12  13
HETATM   13  C19 UNL     1      12.471  -3.039  55.534  1.00  0.00     0.171 A
HETATM   14  C20 UNL     1      11.456  -2.109  55.844  1.00  0.00     0.094 A
HETATM   15  C21 UNL     1      10.679  -1.959  54.738  1.00  0.00     0.142 A
HETATM   16  N4  UNL     1      11.223  -2.767  53.822  1.00  0.00    -0.254 N
HETATM   17  O4  UNL     1      12.251  -3.379  54.298  1.00  0.00    -0.220 OA
ATOM     18  H4  UNL     1      10.870  -2.884  52.872  1.00  0.00     0.195 HD
BRANCH  15  19
HETATM   19  C22 UNL     1       9.482  -1.076  54.690  1.00  0.00     0.434 C
HETATM   20  F1  UNL     1       8.502  -1.600  55.507  1.00  0.00    -0.165 F
HETATM   21  F2  UNL     1       9.015  -0.944  53.383  1.00  0.00    -0.165 F
HETATM   22  F3  UNL     1       9.856   0.136  55.183  1.00  0.00    -0.165 F
ENDBRANCH  15  19
ENDBRANCH  12  13
ENDBRANCH   6   7
BRANCH   1  23
HETATM   23  N1  UNL     1      15.507  -1.064  56.126  1.00  0.00    -0.366 N
ATOM     24  H1  UNL     1      14.613  -0.581  56.038  1.00  0.00     0.165 HD
BRANCH  23  25
HETATM   25  C4  UNL     1      16.187  -0.808  57.330  1.00  0.00     0.092 C
BRANCH  25  26
HETATM   26  C3  UNL     1      15.735   0.223  58.279  1.00  0.00     0.156 C
BRANCH  26  27
HETATM   27  C2  UNL     1      14.187   0.395  58.101  1.00  0.00     0.032 C
HETATM   28  C1  UNL     1      13.840   1.857  58.148  1.00  0.00     0.008 C
ENDBRANCH  26  27
BRANCH  26  29
HETATM   29  O1  UNL     1      16.269   1.474  57.928  1.00  0.00    -0.390 OA
ATOM     30  H1  UNL     1      15.591   1.881  57.401  1.00  0.00     0.210 HD
ENDBRANCH  26  29
ENDBRANCH  25  26
ENDBRANCH  23  25
ENDBRANCH   1  23
BRANCH   3  31
HETATM   31  N2  UNL     1      17.566  -1.393  51.733  1.00  0.00    -0.317 N
ATOM     32  H2  UNL     1      18.560  -1.173  51.802  1.00  0.00     0.175 HD
BRANCH  31  33
HETATM   33  S1  UNL     1      16.746  -1.052  50.500  1.00  0.00     0.025 S
HETATM   34  O2  UNL     1      16.878  -2.127  49.475  1.00  0.00    -0.250 OA
HETATM   35  C8  UNL     1      15.021  -0.667  50.843  1.00  0.00     0.117 C
HETATM   36  C9  UNL     1      14.742  -0.023  49.474  1.00  0.00     0.014 C
HETATM   37  C10 UNL     1      15.812   0.988  49.207  1.00  0.00     0.014 C
HETATM   38  C11 UNL     1      17.135   0.538  49.763  1.00  0.00     0.117 C
ENDBRANCH  31  33
ENDBRANCH   3  31
TORSDOF 10
ENDMDL