MODEL 2
REMARK VINA RESULT: -7.740027467      2.859      3.349
REMARK  9 active torsions:
REMARK  status: ('A' for Active; 'I' for Inactive)
REMARK    1  A    between atoms: C2_2  and  N1_4
REMARK    2  A    between atoms: N1_4  and  C4_6
REMARK    3  A    between atoms: N2_11  and  C8_12
REMARK    4  A    between atoms: C12_17  and  N3_18
REMARK    5  A    between atoms: N3_18  and  O1_20
REMARK    6  A    between atoms: N4_25  and  C15_26
REMARK    7  A    between atoms: C15_26  and  O3_27
REMARK    8  A    between atoms: C15_26  and  C16_29
REMARK    9  A    between atoms: C16_29  and  C17_30
ROOT
HETATM    1  C8  UNL     1      14.116  -2.040  52.691  1.00  0.00     0.110 A
HETATM    2  C9  UNL     1      14.086  -0.840  52.035  1.00  0.00     0.147 A
HETATM    3  F1  UNL     1      13.093   0.031  52.384  1.00  0.00    -0.204 F
HETATM    4  C10 UNL     1      15.016  -0.536  51.076  1.00  0.00     0.061 A
HETATM    5  C11 UNL     1      16.016  -1.428  50.737  1.00  0.00     0.026 A
HETATM    6  C12 UNL     1      16.920  -1.077  49.768  1.00  0.00     0.072 A
HETATM    7  C13 UNL     1      17.889  -1.963  49.447  1.00  0.00     0.107 A
HETATM    8  C14 UNL     1      17.927  -3.162  50.098  1.00  0.00     0.256 A
HETATM    9  O2  UNL     1      18.854  -3.998  49.779  1.00  0.00    -0.268 OA
HETATM   10  N4  UNL     1      17.047  -3.569  51.080  1.00  0.00    -0.258 N
HETATM   11  C18 UNL     1      16.078  -2.668  51.387  1.00  0.00     0.098 A
HETATM   12  C19 UNL     1      15.136  -2.944  52.341  1.00  0.00     0.174 A
HETATM   13  F2  UNL     1      15.135  -4.135  52.977  1.00  0.00    -0.201 F
ENDROOT
BRANCH   1  14
HETATM   14  N2  UNL     1      13.193  -2.379  53.697  1.00  0.00    -0.376 N
HETATM   15  C7  UNL     1      13.535  -2.215  55.125  1.00  0.00     0.125 C
HETATM   16  C6  UNL     1      12.332  -1.544  55.803  1.00  0.00     0.043 C
HETATM   17  C5  UNL     1      11.169  -2.520  55.846  1.00  0.00     0.046 C
HETATM   18  S1  UNL     1      10.934  -3.294  57.461  1.00  0.00    -0.128 SA
HETATM   19  C21 UNL     1      11.314  -3.505  54.744  1.00  0.00     0.043 C
HETATM   20  C22 UNL     1       9.819  -1.846  56.009  1.00  0.00     0.221 C
HETATM   21  C4  UNL     1       9.262  -2.964  56.818  1.00  0.00     0.176 C
HETATM   22  C20 UNL     1      11.860  -2.887  53.463  1.00  0.00     0.125 C
HETATM   23  F3  UNL     1       9.119  -1.729  54.811  1.00  0.00    -0.245 F
BRANCH  21  24
HETATM   24  N1  UNL     1       8.264  -2.789  57.774  1.00  0.00    -0.403 N
ATOM     25  H1  UNL     1       8.537  -2.377  58.666  1.00  0.00     0.154 HD
BRANCH  24  26
HETATM   26  C2  UNL     1       6.931  -3.128  57.612  1.00  0.00     0.069 C
HETATM   27  C1  UNL     1       6.071  -2.000  57.108  1.00  0.00     0.031 C
HETATM   28  C3  UNL     1       6.844  -4.219  56.518  1.00  0.00     0.031 C
ENDBRANCH  24  26
ENDBRANCH  21  24
ENDBRANCH   1  14
BRANCH  10  29
HETATM   29  C15 UNL     1      17.167  -4.806  51.736  1.00  0.00     0.126 C
BRANCH  29  30
HETATM   30  O3  UNL     1      16.622  -5.967  51.166  1.00  0.00    -0.349 OA
ATOM     31  H3  UNL     1      17.181  -6.703  50.948  1.00  0.00     0.219 HD
ENDBRANCH  29  30
BRANCH  29  32
HETATM   32  C16 UNL     1      17.579  -4.878  53.166  1.00  0.00     0.099 C
BRANCH  32  33
HETATM   33  C17 UNL     1      18.815  -4.054  53.533  1.00  0.00     0.122 C
HETATM   34 CL1  UNL     1      18.277  -2.476  54.225  1.00  0.00    -0.130 Cl
ENDBRANCH  32  33
ENDBRANCH  29  32
ENDBRANCH  10  29
BRANCH   6  35
HETATM   35  N3  UNL     1      16.797   0.189  49.156  1.00  0.00    -0.268 N
ATOM     36  H3  UNL     1      16.080   0.307  48.441  1.00  0.00     0.194 HD
BRANCH  35  37
HETATM   37  O1  UNL     1      17.508   1.166  49.435  1.00  0.00    -0.289 OA
ATOM     38  H1  UNL     1      17.208   2.067  49.407  1.00  0.00     0.244 HD
ENDBRANCH  35  37
ENDBRANCH   6  35
TORSDOF 9
ENDMDL