MODEL 5
REMARK VINA RESULT: -8.142437757      3.488      6.933
REMARK  7 active torsions:
REMARK  status: ('A' for Active; 'I' for Inactive)
REMARK    1  A    between atoms: C3_5  and  C4_6
REMARK    2  A    between atoms: C4_6  and  S1_7
REMARK    3  A    between atoms: C4_6  and  C15_25
REMARK    4  A    between atoms: S1_7  and  C5_8
REMARK    5  A    between atoms: C6_13  and  C7_14
REMARK    6  A    between atoms: C7_14  and  C8_15
REMARK    7  A    between atoms: C8_15  and  C9_16
ROOT
HETATM    1  C4  UNL     1      14.917  -2.016  51.025  1.00  0.00     0.147 C
ENDROOT
BRANCH   1   2
HETATM    2  C3  UNL     1      15.371  -2.313  52.410  1.00  0.00     0.052 A
HETATM    3  N1  UNL     1      15.823  -1.382  53.315  1.00  0.00    -0.347 N
HETATM    4  C2  UNL     1      16.153  -1.982  54.459  1.00  0.00     0.077 A
ATOM      5  H1  UNL     1      15.895  -0.380  53.138  1.00  0.00     0.167 HD
HETATM    6  C1  UNL     1      16.678  -1.275  55.652  1.00  0.00     0.089 C
HETATM    7  N6  UNL     1      15.939  -3.287  54.358  1.00  0.00    -0.348 N
HETATM    8  C19 UNL     1      15.458  -3.492  53.098  1.00  0.00     0.030 A
ATOM      9  H6  UNL     1      16.099  -3.994  55.076  1.00  0.00     0.167 HD
HETATM   10  C20 UNL     1      15.111  -4.843  52.620  1.00  0.00     0.070 C
ENDBRANCH   1   2
BRANCH   1  11
HETATM   11  S1  UNL     1      13.138  -1.826  50.949  1.00  0.00    -0.069 SA
BRANCH  11  12
HETATM   12  C5  UNL     1      12.365  -1.733  52.568  1.00  0.00     0.204 A
HETATM   13  N2  UNL     1      12.176  -0.536  53.174  1.00  0.00    -0.272 N
HETATM   14  N3  UNL     1      11.601  -0.785  54.316  1.00  0.00    -0.281 N
ATOM     15  H2  UNL     1      12.433   0.380  52.807  1.00  0.00     0.189 HD
HETATM   16  C6  UNL     1      11.413  -2.095  54.469  1.00  0.00     0.142 A
ATOM     17  H3  UNL     1      11.333  -0.075  54.998  1.00  0.00     0.189 HD
HETATM   18  O3  UNL     1      11.904  -2.634  53.359  1.00  0.00    -0.272 OA
BRANCH  16  19
HETATM   19  C7  UNL     1      10.799  -2.779  55.613  1.00  0.00     0.106 C
BRANCH  19  20
HETATM   20  C8  UNL     1      11.744  -3.316  56.624  1.00  0.00     0.055 C
HETATM   21  C10 UNL     1      11.234  -3.427  58.015  1.00  0.00     0.021 C
HETATM   22  C11 UNL     1      12.233  -4.322  58.766  1.00  0.00     0.001 C
HETATM   23  C12 UNL     1      13.513  -3.555  58.898  1.00  0.00     0.000 C
HETATM   24  C13 UNL     1      14.032  -2.961  57.639  1.00  0.00     0.001 C
HETATM   25  C14 UNL     1      13.037  -2.531  56.627  1.00  0.00     0.021 C
BRANCH  20  26
HETATM   26  C9  UNL     1      12.085  -4.718  56.174  1.00  0.00     0.182 C
HETATM   27  O1  UNL     1      11.304  -5.642  56.406  1.00  0.00    -0.647 OA
HETATM   28  O2  UNL     1      13.269  -4.908  55.514  1.00  0.00    -0.647 OA
ENDBRANCH  20  26
ENDBRANCH  19  20
ENDBRANCH  16  19
ENDBRANCH  11  12
ENDBRANCH   1  11
BRANCH   1  29
HETATM   29  C15 UNL     1      15.684  -0.933  50.379  1.00  0.00     0.045 A
HETATM   30  C16 UNL     1      16.949  -1.197  49.842  1.00  0.00     0.129 A
HETATM   31 CL1  UNL     1      17.634  -2.827  49.900  1.00  0.00    -0.062 Cl
HETATM   32  N4  UNL     1      17.688  -0.242  49.256  1.00  0.00    -0.287 N
HETATM   33  N5  UNL     1      17.256   0.999  49.156  1.00  0.00    -0.272 N
ATOM     34  H4  UNL     1      18.604  -0.483  48.880  1.00  0.00     0.188 HD
HETATM   35  C17 UNL     1      16.058   1.296  49.651  1.00  0.00     0.242 A
ATOM     36  H5  UNL     1      17.828   1.715  48.708  1.00  0.00     0.189 HD
HETATM   37  F1  UNL     1      15.629   2.579  49.538  1.00  0.00    -0.181 F
HETATM   38  C18 UNL     1      15.244   0.352  50.271  1.00  0.00     0.184 A
HETATM   39  F2  UNL     1      14.057   0.786  50.719  1.00  0.00    -0.200 F
ENDBRANCH   1  29
TORSDOF 7
ENDMDL