MODEL 2
REMARK VINA RESULT: -8.623824622      3.588      8.296
REMARK  9 active torsions:
REMARK  status: ('A' for Active; 'I' for Inactive)
REMARK    1  A    between atoms: C4_5  and  C5_6
REMARK    2  A    between atoms: C9_12  and  N2_13
REMARK       I    between atoms: N2_13  and  C10_15
REMARK    3  A    between atoms: C10_15  and  C11_17
REMARK    4  A    between atoms: C13_21  and  O3_22
REMARK    5  A    between atoms: O3_22  and  C14_23
REMARK    6  A    between atoms: C16_28  and  C17_29
REMARK    7  A    between atoms: C21_33  and  N4_34
REMARK    8  A    between atoms: C23_40  and  N5_41
REMARK    9  A    between atoms: N5_41  and  O4_43
ROOT
HETATM    1  C5  UNL     1      14.820  -1.793  52.770  1.00  0.00     0.000 A
HETATM    2  C6  UNL     1      15.851  -1.346  51.993  1.00  0.00     0.029 A
HETATM    3  C7  UNL     1      15.651  -0.483  50.911  1.00  0.00     0.088 A
HETATM    4  N1  UNL     1      14.401  -0.121  50.676  1.00  0.00    -0.373 N
ATOM      5  H1  UNL     1      14.227   0.506  49.892  1.00  0.00     0.164 HD
HETATM    6  C8  UNL     1      13.327  -0.531  51.413  1.00  0.00     0.117 A
HETATM    7  C9  UNL     1      13.520  -1.367  52.463  1.00  0.00     0.059 A
ENDROOT
BRANCH   7   8
HETATM    8  N2  UNL     1      12.466  -1.847  53.284  1.00  0.00    -0.320 N
HETATM    9  C10 UNL     1      11.870  -1.229  54.383  1.00  0.00     0.273 C
HETATM   10  O2  UNL     1      12.298  -0.052  54.721  1.00  0.00    -0.266 OA
ATOM     11  H2  UNL     1      12.095  -2.764  53.036  1.00  0.00     0.169 HD
BRANCH   9  12
HETATM   12  C11 UNL     1      10.804  -1.678  55.260  1.00  0.00     0.110 A
HETATM   13  N3  UNL     1       9.587  -1.023  55.167  1.00  0.00    -0.358 N
HETATM   14  C12 UNL     1       8.581  -1.313  55.981  1.00  0.00     0.128 A
ATOM     15  H3  UNL     1       9.462  -0.302  54.456  1.00  0.00     0.165 HD
HETATM   16  C13 UNL     1       8.667  -2.267  56.962  1.00  0.00     0.129 A
HETATM   17  C15 UNL     1       9.885  -2.930  57.063  1.00  0.00     0.160 A
HETATM   18  F3  UNL     1      10.002  -3.909  57.979  1.00  0.00    -0.202 F
HETATM   19  C16 UNL     1      10.968  -2.644  56.216  1.00  0.00     0.020 A
BRANCH  16  20
HETATM   20  O3  UNL     1       7.663  -2.617  57.840  1.00  0.00    -0.286 OA
BRANCH  20  21
HETATM   21  C14 UNL     1       6.358  -2.969  57.572  1.00  0.00     0.505 C
HETATM   22  F1  UNL     1       5.553  -1.862  57.295  1.00  0.00    -0.184 F
HETATM   23  F2  UNL     1       6.274  -3.869  56.499  1.00  0.00    -0.184 F
ENDBRANCH  20  21
ENDBRANCH  16  20
BRANCH  19  24
HETATM   24  C17 UNL     1      12.223  -3.412  56.346  1.00  0.00     0.024 A
HETATM   25  C18 UNL     1      12.270  -4.748  55.589  1.00  0.00     0.010 A
HETATM   26  C19 UNL     1      12.394  -4.662  57.098  1.00  0.00     0.010 A
ENDBRANCH  19  24
ENDBRANCH   9  12
ENDBRANCH   7   8
BRANCH   1  27
HETATM   27  C4  UNL     1      15.051  -2.736  53.926  1.00  0.00     0.160 C
HETATM   28  O1  UNL     1      16.222  -3.367  53.662  1.00  0.00    -0.369 OA
HETATM   29  C2  UNL     1      16.707  -4.304  54.511  1.00  0.00     0.079 C
HETATM   30  C1  UNL     1      15.730  -5.083  55.324  1.00  0.00     0.048 C
HETATM   31  C3  UNL     1      17.446  -5.332  53.620  1.00  0.00     0.048 C
HETATM   32  C23 UNL     1      17.826  -3.758  55.402  1.00  0.00     0.175 C
HETATM   33  C22 UNL     1      17.357  -2.681  56.308  1.00  0.00     0.228 C
HETATM   34  C21 UNL     1      16.600  -1.588  55.575  1.00  0.00     0.222 C
HETATM   35  F4  UNL     1      18.508  -2.094  56.855  1.00  0.00    -0.245 F
HETATM   36  C20 UNL     1      15.188  -1.981  55.230  1.00  0.00     0.072 C
BRANCH  32  37
HETATM   37  N5  UNL     1      18.907  -3.348  54.560  1.00  0.00    -0.294 N
ATOM     38  H5  UNL     1      19.776  -3.881  54.517  1.00  0.00     0.188 HD
BRANCH  37  39
HETATM   39  O4  UNL     1      18.755  -2.358  53.909  1.00  0.00    -0.294 OA
ATOM     40  H4  UNL     1      18.553  -1.554  54.373  1.00  0.00     0.244 HD
ENDBRANCH  37  39
ENDBRANCH  32  37
BRANCH  34  41
HETATM   41  N4  UNL     1      16.500  -0.441  56.509  1.00  0.00    -0.072 N
ATOM     42  H43 UNL     1      15.674   0.137  56.352  1.00  0.00     0.274 HD
ATOM     43  H42 UNL     1      16.281  -0.717  57.466  1.00  0.00     0.274 HD
ATOM     44  H41 UNL     1      17.376   0.076  56.427  1.00  0.00     0.274 HD
ENDBRANCH  34  41
ENDBRANCH   1  27
TORSDOF 9
ENDMDL