MODEL 1
REMARK VINA RESULT: -5.235702580      0.000      0.000
REMARK  6 active torsions:
REMARK  status: ('A' for Active; 'I' for Inactive)
REMARK    1  A    between atoms: N2_4  and  N3_6
REMARK       I    between atoms: N3_6  and  C1_8
REMARK    2  A    between atoms: C1_8  and  C2_10
REMARK    3  A    between atoms: C3_15  and  N6_16
REMARK    4  A    between atoms: N6_16  and  O2_18
REMARK    5  A    between atoms: N7_20  and  N8_21
REMARK    6  A    between atoms: N8_21  and  O3_23
ROOT
HETATM    1  C2  UNL     1      22.370  71.011  57.722  1.00  0.00     0.232 A
HETATM    2  N4  UNL     1      21.422  71.956  57.862  1.00  0.00    -0.264 N
ATOM      3  H4  UNL     1      20.891  72.107  58.719  1.00  0.00     0.189 HD
HETATM    4  N5  UNL     1      21.264  72.661  56.762  1.00  0.00    -0.127 N
ATOM      5  H5  UNL     1      20.609  73.430  56.617  1.00  0.00     0.206 HD
HETATM    6  C3  UNL     1      22.134  72.168  55.867  1.00  0.00     0.741 A
HETATM    7  N7  UNL     1      22.815  71.146  56.471  1.00  0.00    -0.040 N
ENDROOT
BRANCH   1   8
HETATM    8  C1  UNL     1      22.738  70.095  58.798  1.00  0.00     0.309 C
HETATM    9  N3  UNL     1      22.826  70.421  60.156  1.00  0.00    -0.249 N
ATOM     10  H3  UNL     1      22.624  71.372  60.465  1.00  0.00     0.192 HD
HETATM   11  O1  UNL     1      23.010  68.874  58.499  1.00  0.00    -0.262 OA
BRANCH   9  12
HETATM   12  N2  UNL     1      23.189  69.454  61.085  1.00  0.00    -0.246 N
HETATM   13  N1  UNL     1      22.329  68.578  61.411  1.00  0.00    -0.331 N
ATOM     14  H12 UNL     1      21.400  68.597  60.991  1.00  0.00     0.178 HD
ATOM     15  H11 UNL     1      22.596  67.867  62.093  1.00  0.00     0.178 HD
ATOM     16  H2  UNL     1      24.123  69.448  61.495  1.00  0.00     0.207 HD
ENDBRANCH   9  12
ENDBRANCH   1   8
BRANCH   7  17
HETATM   17  N8  UNL     1      23.805  70.380  55.875  1.00  0.00    -0.187 N
ATOM     18  H8  UNL     1      24.663  70.158  56.380  1.00  0.00     0.217 HD
BRANCH  17  19
HETATM   19  O3  UNL     1      23.632  69.971  54.728  1.00  0.00    -0.273 OA
ATOM     20  H3  UNL     1      24.242  70.236  54.049  1.00  0.00     0.246 HD
ENDBRANCH  17  19
ENDBRANCH   7  17
BRANCH   6  21
HETATM   21  N6  UNL     1      22.293  72.583  54.668  1.00  0.00    -0.095 N
ATOM     22  H6  UNL     1      22.736  73.495  54.550  1.00  0.00     0.213 HD
BRANCH  21  23
HETATM   23  O2  UNL     1      21.932  71.933  53.547  1.00  0.00    -0.276 OA
ATOM     24  H2  UNL     1      21.327  72.248  52.886  1.00  0.00     0.245 HD
ENDBRANCH  21  23
ENDBRANCH   6  21
TORSDOF 6
ENDMDL