MODEL 4
REMARK VINA RESULT: -5.061984282      3.107      4.259
REMARK  4 active torsions:
REMARK  status: ('A' for Active; 'I' for Inactive)
REMARK    1  A    between atoms: C2_2  and  N1_3
REMARK    2  A    between atoms: C4_8  and  C5_9
REMARK       I    between atoms: C5_9  and  N3_11
REMARK    3  A    between atoms: N3_11  and  N4_12
REMARK    4  A    between atoms: C6_17  and  N6_18
ROOT
HETATM    1  N1  UNL     1      23.031  70.881  56.902  1.00  0.00    -0.108 N
HETATM    2  C3  UNL     1      23.848  70.341  57.857  1.00  0.00     0.346 A
HETATM    3  O1  UNL     1      23.387  69.809  58.882  1.00  0.00    -0.246 OA
HETATM    4  N2  UNL     1      25.200  70.365  57.725  1.00  0.00    -0.288 N
ATOM      5  H2  UNL     1      25.793  69.957  58.448  1.00  0.00     0.172 HD
HETATM    6  C4  UNL     1      25.744  70.923  56.647  1.00  0.00     0.210 A
HETATM    7  N5  UNL     1      24.954  71.440  55.731  1.00  0.00    -0.169 N
ATOM      8  H5  UNL     1      25.380  71.866  54.907  1.00  0.00     0.186 HD
HETATM    9  C6  UNL     1      23.592  71.433  55.829  1.00  0.00     0.688 A
ENDROOT
BRANCH   6  10
HETATM   10  C5  UNL     1      27.226  70.927  56.522  1.00  0.00     0.379 C
HETATM   11  O2  UNL     1      27.756  69.792  56.735  1.00  0.00    -0.246 OA
HETATM   12  N3  UNL     1      27.908  72.070  56.205  1.00  0.00    -0.285 NA
BRANCH  12  13
HETATM   13  N4  UNL     1      28.558  73.159  55.905  1.00  0.00    -0.276 N
ATOM     14  H42 UNL     1      28.092  72.289  56.167  1.00  0.00     0.191 HD
ATOM     15  H41 UNL     1      29.065  74.011  55.669  1.00  0.00     0.191 HD
ENDBRANCH  12  13
ENDBRANCH   6  10
BRANCH   9  16
HETATM   16  N6  UNL     1      22.904  71.906  54.876  1.00  0.00    -0.234 N
ATOM     17  H62 UNL     1      22.131  72.537  55.089  1.00  0.00     0.174 HD
ATOM     18  H61 UNL     1      23.122  71.709  53.899  1.00  0.00     0.174 HD
ENDBRANCH   9  16
BRANCH   1  19
HETATM   19  C2  UNL     1      21.647  70.771  57.172  1.00  0.00     0.110 C
HETATM   20  C1  UNL     1      20.934  71.620  57.853  1.00  0.00     0.031 C
ENDBRANCH   1  19
TORSDOF 4
ENDMDL