MODEL 5
REMARK VINA RESULT: -5.013225339      4.809      6.473
REMARK  2 active torsions:
REMARK  status: ('A' for Active; 'I' for Inactive)
REMARK       I    between atoms: C1_4  and  N3_6
REMARK    1  A    between atoms: N3_6  and  N4_8
REMARK    2  A    between atoms: C2_10  and  C3_11
ROOT
HETATM    1  C3  UNL     1      22.248  70.259  56.890  1.00  0.00     0.133 A
HETATM    2  N5  UNL     1      23.037  70.267  55.797  1.00  0.00    -0.290 N
ATOM      3  H5  UNL     1      23.544  69.414  55.562  1.00  0.00     0.187 HD
HETATM    4  N6  UNL     1      23.187  71.321  55.013  1.00  0.00    -0.251 N
ATOM      5  H6  UNL     1      23.794  71.289  54.194  1.00  0.00     0.191 HD
HETATM    6  C4  UNL     1      22.510  72.436  55.339  1.00  0.00     0.341 A
HETATM    7  O1  UNL     1      22.619  73.461  54.627  1.00  0.00    -0.245 OA
HETATM    8  N7  UNL     1      21.702  72.517  56.411  1.00  0.00    -0.272 N
ATOM      9  H7  UNL     1      21.200  73.377  56.632  1.00  0.00     0.173 HD
HETATM   10  C5  UNL     1      21.579  71.418  57.182  1.00  0.00     0.279 A
HETATM   11  O2  UNL     1      20.817  71.486  58.198  1.00  0.00    -0.265 OA
ENDROOT
BRANCH   1  12
HETATM   12  C2  UNL     1      22.108  69.074  57.732  1.00  0.00     0.143 C
HETATM   13  N4  UNL     1      20.986  68.448  57.695  1.00  0.00    -0.307 N
ATOM     14  H4  UNL     1      20.249  68.802  57.085  1.00  0.00     0.186 HD
BRANCH  13  15
HETATM   15  N3  UNL     1      20.733  67.305  58.453  1.00  0.00    -0.274 N
HETATM   16  C1  UNL     1      19.545  66.570  58.198  1.00  0.00     0.200 C
HETATM   17  N1  UNL     1      19.607  65.619  57.334  1.00  0.00    -0.372 N
HETATM   18  N2  UNL     1      18.345  66.887  58.878  1.00  0.00    -0.062 NA
ATOM     19  H12 UNL     1      18.754  65.091  57.150  1.00  0.00     0.158 HD
ATOM     20  H11 UNL     1      20.473  65.391  56.843  1.00  0.00     0.158 HD
ATOM     21  H3  UNL     1      21.387  67.003  59.176  1.00  0.00     0.189 HD
ENDBRANCH  13  15
ENDBRANCH   1  12
TORSDOF 2
ENDMDL