MODEL 4
REMARK VINA RESULT: -4.677352699      9.313     10.947
REMARK  3 active torsions:
REMARK  status: ('A' for Active; 'I' for Inactive)
REMARK       I    between atoms: C2_2  and  N1_4
REMARK       I    between atoms: N1_4  and  C3_6
REMARK    1  A    between atoms: C3_6  and  C4_8
REMARK    2  A    between atoms: N4_13  and  N5_14
REMARK    3  A    between atoms: C5_17  and  N6_18
ROOT
HETATM    1  C4  UNL     1      19.595  64.246  51.153  1.00  0.00     0.165 A
HETATM    2  N2  UNL     1      18.977  65.365  50.632  1.00  0.00    -0.276 N
ATOM      3  H2  UNL     1      18.690  66.183  51.169  1.00  0.00     0.189 HD
HETATM    4  N3  UNL     1      18.819  65.212  49.341  1.00  0.00    -0.219 N
ATOM      5  H3  UNL     1      18.385  65.904  48.730  1.00  0.00     0.210 HD
HETATM    6  N4  UNL     1      19.286  64.057  48.932  1.00  0.00    -0.170 N
HETATM    7  C5  UNL     1      19.787  63.427  50.075  1.00  0.00     0.174 A
ENDROOT
BRANCH   1   8
HETATM    8  C3  UNL     1      19.906  64.119  52.565  1.00  0.00     0.280 C
HETATM    9  N1  UNL     1      20.440  65.073  53.426  1.00  0.00    -0.292 N
HETATM   10  C2  UNL     1      20.686  64.781  54.800  1.00  0.00     0.220 C
ATOM     11  H1  UNL     1      20.660  66.002  53.066  1.00  0.00     0.172 HD
HETATM   12  C1  UNL     1      20.431  63.507  55.477  1.00  0.00     0.117 C
HETATM   13  O1  UNL     1      21.179  65.733  55.506  1.00  0.00    -0.274 OA
HETATM   14  O2  UNL     1      19.653  62.966  53.096  1.00  0.00    -0.265 OA
ENDBRANCH   1   8
BRANCH   7  15
HETATM   15  N6  UNL     1      20.305  62.294  50.009  1.00  0.00    -0.381 N
ATOM     16  H62 UNL     1      21.160  62.077  50.522  1.00  0.00     0.157 HD
ATOM     17  H61 UNL     1      20.011  61.466  49.490  1.00  0.00     0.157 HD
ENDBRANCH   7  15
BRANCH   6  18
HETATM   18  N5  UNL     1      19.317  63.509  47.657  1.00  0.00    -0.321 N
ATOM     19  H52 UNL     1      19.329  64.054  46.795  1.00  0.00     0.179 HD
ATOM     20  H51 UNL     1      19.329  62.531  47.366  1.00  0.00     0.179 HD
ENDBRANCH   6  18
TORSDOF 3
ENDMDL