MODEL 3
REMARK VINA RESULT: -5.245193615      1.489      4.830
REMARK  3 active torsions:
REMARK  status: ('A' for Active; 'I' for Inactive)
REMARK    1  A    between atoms: N1_1  and  N2_4
REMARK       I    between atoms: N2_4  and  C1_6
REMARK    2  A    between atoms: C1_6  and  C2_8
REMARK    3  A    between atoms: C5_14  and  C6_15
ROOT
HETATM    1  C2  UNL     1      21.751  71.188  58.083  1.00  0.00     0.178 A
HETATM    2  N3  UNL     1      21.407  71.648  56.868  1.00  0.00    -0.326 N
ATOM      3  H3  UNL     1      20.463  72.015  56.746  1.00  0.00     0.168 HD
HETATM    4  C3  UNL     1      22.226  71.655  55.803  1.00  0.00     0.120 A
HETATM    5  N4  UNL     1      21.791  72.158  54.546  1.00  0.00    -0.083 NA
HETATM    6  C4  UNL     1      23.493  71.153  56.002  1.00  0.00     0.080 A
HETATM    7  C5  UNL     1      23.911  70.664  57.225  1.00  0.00     0.102 A
HETATM    8  N6  UNL     1      23.017  70.701  58.228  1.00  0.00    -0.334 N
ATOM      9  H6  UNL     1      23.299  70.346  59.142  1.00  0.00     0.168 HD
ENDROOT
BRANCH   1  10
HETATM   10  C1  UNL     1      20.819  71.203  59.207  1.00  0.00     0.303 C
HETATM   11  N2  UNL     1      20.589  72.328  60.017  1.00  0.00    -0.270 N
ATOM     12  H2  UNL     1      21.102  73.185  59.810  1.00  0.00     0.189 HD
HETATM   13  O1  UNL     1      20.201  70.139  59.442  1.00  0.00    -0.263 OA
BRANCH  11  14
HETATM   14  N1  UNL     1      19.697  72.336  61.088  1.00  0.00    -0.342 N
ATOM     15  H12 UNL     1      19.135  71.496  61.233  1.00  0.00     0.176 HD
ATOM     16  H11 UNL     1      19.584  73.128  61.721  1.00  0.00     0.176 HD
ENDBRANCH  11  14
ENDBRANCH   1  10
BRANCH   7  17
HETATM   17  C6  UNL     1      25.267  70.136  57.405  1.00  0.00     0.281 C
HETATM   18  N5  UNL     1      26.316  70.677  56.620  1.00  0.00    -0.056 NA
HETATM   19  O2  UNL     1      25.536  69.228  58.225  1.00  0.00    -0.269 OA
ENDBRANCH   7  17
TORSDOF 3
ENDMDL