MODEL 1
REMARK VINA RESULT: -4.922238444      0.000      0.000
REMARK  3 active torsions:
REMARK  status: ('A' for Active; 'I' for Inactive)
REMARK    1  A    between atoms: C2_3  and  N2_4
REMARK    2  A    between atoms: N4_9  and  C3_10
REMARK    3  A    between atoms: N5_11  and  N6_13
REMARK       I    between atoms: N6_13  and  C4_15
ROOT
HETATM    1  C1  UNL     1      29.325  70.459  57.958  1.00  0.00     0.180 C
HETATM    2  N1  UNL     1      28.239  70.999  57.168  1.00  0.00    -0.134 N
HETATM    3  C2  UNL     1      28.323  72.123  56.436  1.00  0.00     0.697 A
HETATM    4  N3  UNL     1      27.123  72.284  55.860  1.00  0.00    -0.120 N
ATOM      5  H3  UNL     1      26.875  73.054  55.239  1.00  0.00     0.206 HD
HETATM    6  N4  UNL     1      26.307  71.306  56.209  1.00  0.00    -0.185 N
HETATM    7  C5  UNL     1      26.997  70.510  57.020  1.00  0.00     0.363 A
HETATM    8  O1  UNL     1      26.539  69.470  57.550  1.00  0.00    -0.244 OA
ENDROOT
BRANCH   6   9
HETATM    9  C3  UNL     1      24.940  71.164  55.775  1.00  0.00     0.228 C
HETATM   10  N5  UNL     1      23.989  70.789  56.540  1.00  0.00    -0.292 N
ATOM     11  H5  UNL     1      24.162  70.566  57.521  1.00  0.00     0.188 HD
BRANCH  10  12
HETATM   12  N6  UNL     1      22.709  70.691  55.999  1.00  0.00    -0.273 N
HETATM   13  C4  UNL     1      22.025  71.876  55.615  1.00  0.00     0.200 C
HETATM   14  N7  UNL     1      21.544  72.603  56.563  1.00  0.00    -0.372 N
HETATM   15  N8  UNL     1      21.855  72.282  54.265  1.00  0.00    -0.062 NA
ATOM     16  H72 UNL     1      21.666  72.311  57.533  1.00  0.00     0.158 HD
ATOM     17  H71 UNL     1      21.054  73.453  56.287  1.00  0.00     0.158 HD
ATOM     18  H6  UNL     1      22.267  69.779  55.880  1.00  0.00     0.189 HD
ENDBRANCH  10  12
ENDBRANCH   6   9
BRANCH   3  19
HETATM   19  N2  UNL     1      29.361  72.911  56.303  1.00  0.00    -0.233 N
ATOM     20  H22 UNL     1      29.576  73.729  56.872  1.00  0.00     0.174 HD
ATOM     21  H21 UNL     1      30.113  72.835  55.618  1.00  0.00     0.174 HD
ENDBRANCH   3  19
TORSDOF 3
ENDMDL