MODEL 2
REMARK VINA RESULT: -4.955601604      1.334      1.355
REMARK  3 active torsions:
REMARK  status: ('A' for Active; 'I' for Inactive)
REMARK    1  A    between atoms: N1_1  and  N2_4
REMARK    2  A    between atoms: N2_4  and  C1_6
REMARK    3  A    between atoms: C2_8  and  N3_9
ROOT
HETATM    1  N3  UNL     1      22.345  71.228  56.786  1.00  0.00    -0.210 N
HETATM    2  N4  UNL     1      23.564  70.802  57.196  1.00  0.00    -0.241 N
ATOM      3  H4  UNL     1      23.780  70.396  58.107  1.00  0.00     0.192 HD
HETATM    4  C3  UNL     1      24.436  71.006  56.202  1.00  0.00     0.343 A
HETATM    5  O1  UNL     1      25.687  70.742  56.185  1.00  0.00    -0.245 OA
HETATM    6  N5  UNL     1      23.807  71.557  55.152  1.00  0.00    -0.258 N
ATOM      7  H5  UNL     1      24.211  71.825  54.255  1.00  0.00     0.175 HD
HETATM    8  C4  UNL     1      22.517  71.678  55.550  1.00  0.00     0.349 A
HETATM    9  O2  UNL     1      21.651  72.164  54.787  1.00  0.00    -0.245 OA
ENDROOT
BRANCH   1  10
HETATM   10  C2  UNL     1      21.178  71.171  57.626  1.00  0.00     0.164 C
HETATM   11  C1  UNL     1      21.296  70.429  58.863  1.00  0.00     0.132 C
HETATM   12  S1  UNL     1      20.851  68.829  58.801  1.00  0.00    -0.058 SA
BRANCH  11  13
HETATM   13  N2  UNL     1      21.743  70.912  60.093  1.00  0.00    -0.296 N
ATOM     14  H2  UNL     1      21.135  71.558  60.598  1.00  0.00     0.187 HD
BRANCH  13  15
HETATM   15  N1  UNL     1      22.969  70.571  60.684  1.00  0.00    -0.344 N
ATOM     16  H12 UNL     1      23.812  70.804  60.158  1.00  0.00     0.176 HD
ATOM     17  H11 UNL     1      23.067  70.112  61.589  1.00  0.00     0.176 HD
ENDBRANCH  13  15
ENDBRANCH  11  13
ENDBRANCH   1  10
TORSDOF 3
ENDMDL