MODEL 4
REMARK VINA RESULT: -4.675938227      1.764      2.399
REMARK  3 active torsions:
REMARK  status: ('A' for Active; 'I' for Inactive)
REMARK    1  A    between atoms: N1_1  and  N2_4
REMARK       I    between atoms: N2_4  and  C1_6
REMARK    2  A    between atoms: C1_6  and  C2_8
REMARK    3  A    between atoms: C2_8  and  N3_9
ROOT
HETATM    1  N3  UNL     1      21.897  71.162  57.202  1.00  0.00    -0.312 N
HETATM    2  C3  UNL     1      21.488  72.151  56.354  1.00  0.00     0.112 A
HETATM    3  C4  UNL     1      22.314  72.671  55.386  1.00  0.00     0.107 A
HETATM    4  N4  UNL     1      23.576  72.195  55.263  1.00  0.00    -0.349 N
ATOM      5  H4  UNL     1      24.196  72.575  54.548  1.00  0.00     0.166 HD
HETATM    6  C5  UNL     1      24.017  71.212  56.088  1.00  0.00     0.185 A
HETATM    7  N5  UNL     1      25.344  70.733  55.935  1.00  0.00    -0.077 NA
HETATM    8  C6  UNL     1      23.146  70.730  57.037  1.00  0.00     0.289 A
HETATM    9  O2  UNL     1      23.576  69.822  57.790  1.00  0.00    -0.264 OA
ENDROOT
BRANCH   1  10
HETATM   10  C2  UNL     1      20.963  70.665  58.194  1.00  0.00     0.236 C
BRANCH  10  11
HETATM   11  C1  UNL     1      21.008  71.436  59.461  1.00  0.00     0.253 C
HETATM   12  N2  UNL     1      20.298  72.650  59.607  1.00  0.00    -0.275 N
ATOM     13  H2  UNL     1      19.736  73.019  58.839  1.00  0.00     0.189 HD
HETATM   14  O1  UNL     1      21.695  70.986  60.405  1.00  0.00    -0.270 OA
BRANCH  12  15
HETATM   15  N1  UNL     1      20.377  73.335  60.821  1.00  0.00    -0.343 N
ATOM     16  H12 UNL     1      21.070  74.074  60.938  1.00  0.00     0.176 HD
ATOM     17  H11 UNL     1      19.736  73.080  61.572  1.00  0.00     0.176 HD
ENDBRANCH  12  15
ENDBRANCH  10  11
ENDBRANCH   1  10
TORSDOF 3
ENDMDL