MODEL 5
REMARK VINA RESULT: -4.544974961      3.974      5.440
REMARK  4 active torsions:
REMARK  status: ('A' for Active; 'I' for Inactive)
REMARK    1  A    between atoms: C3_8  and  N3_9
REMARK    2  A    between atoms: N5_14  and  N6_15
REMARK    3  A    between atoms: C4_17  and  N7_18
REMARK    4  A    between atoms: N7_18  and  N8_20
ROOT
HETATM    1  N1  UNL     1      20.869  71.925  59.324  1.00  0.00    -0.232 N
ATOM      2  H11 UNL     1      21.201  72.647  58.685  1.00  0.00     0.174 HD
ATOM      3  H12 UNL     1      20.566  72.213  60.255  1.00  0.00     0.174 HD
HETATM    4  C1  UNL     1      20.822  70.666  58.989  1.00  0.00     0.712 A
HETATM    5  N2  UNL     1      20.361  69.660  59.878  1.00  0.00    -0.195 N
ATOM      6  H2  UNL     1      20.050  69.908  60.818  1.00  0.00     0.183 HD
HETATM    7  C2  UNL     1      20.335  68.312  59.453  1.00  0.00     0.162 A
HETATM    8  C3  UNL     1      20.734  67.962  58.239  1.00  0.00     0.206 A
HETATM    9  N4  UNL     1      21.208  68.916  57.296  1.00  0.00    -0.243 N
ATOM     10  H4  UNL     1      21.512  68.629  56.366  1.00  0.00     0.191 HD
HETATM   11  N5  UNL     1      21.248  70.260  57.681  1.00  0.00    -0.018 N
ENDROOT
BRANCH  11  12
HETATM   12  N6  UNL     1      21.702  71.237  56.801  1.00  0.00    -0.259 N
HETATM   13  C4  UNL     1      22.745  71.105  56.068  1.00  0.00     0.215 C
ATOM     14  H6  UNL     1      21.175  72.108  56.736  1.00  0.00     0.190 HD
BRANCH  13  15
HETATM   15  N7  UNL     1      23.163  72.130  55.191  1.00  0.00    -0.301 N
ATOM     16  H7  UNL     1      24.082  72.560  55.290  1.00  0.00     0.187 HD
BRANCH  15  17
HETATM   17  N8  UNL     1      22.285  72.541  54.184  1.00  0.00    -0.344 N
ATOM     18  H82 UNL     1      21.611  73.284  54.369  1.00  0.00     0.176 HD
ATOM     19  H81 UNL     1      22.341  72.082  53.275  1.00  0.00     0.176 HD
ENDBRANCH  15  17
ENDBRANCH  13  15
ENDBRANCH  11  12
BRANCH   8  20
HETATM   20  N3  UNL     1      20.692  66.586  57.846  1.00  0.00    -0.095 N
HETATM   21  O1  UNL     1      21.303  65.729  58.476  1.00  0.00    -0.530 OA
HETATM   22  O2  UNL     1      19.955  66.215  56.749  1.00  0.00    -0.530 OA
ENDBRANCH   8  20
TORSDOF 4
ENDMDL