MODEL 3
REMARK VINA RESULT: -4.803426157      2.105      2.509
REMARK  3 active torsions:
REMARK  status: ('A' for Active; 'I' for Inactive)
REMARK    1  A    between atoms: N1_1  and  N2_4
REMARK    2  A    between atoms: N2_4  and  N3_5
REMARK       I    between atoms: N3_5  and  C1_7
REMARK    3  A    between atoms: N5_9  and  C2_11
ROOT
HETATM    1  N3  UNL     1      -3.134  -1.143 -21.260  1.00  0.00    -0.187 N
ATOM      2  H3  UNL     1      -3.522  -0.359 -21.784  1.00  0.00     0.206 HD
HETATM    3  C1  UNL     1      -2.086  -0.905 -20.335  1.00  0.00     0.221 C
HETATM    4  N4  UNL     1      -1.316   0.274 -20.512  1.00  0.00    -0.061 NA
HETATM    5  N5  UNL     1      -1.852  -1.741 -19.368  1.00  0.00    -0.307 N
ATOM      6  H5  UNL     1      -2.429  -2.576 -19.276  1.00  0.00     0.170 HD
ENDROOT
BRANCH   1   7
HETATM    7  N2  UNL     1      -3.593  -2.288 -21.450  1.00  0.00    -0.241 NA
BRANCH   7   8
HETATM    8  N1  UNL     1      -4.390  -3.251 -21.461  1.00  0.00    -0.260 N
ATOM      9  H12 UNL     1      -3.683  -3.985 -21.476  1.00  0.00     0.193 HD
ATOM     10  H11 UNL     1      -5.266  -3.774 -21.465  1.00  0.00     0.193 HD
ENDBRANCH   7   8
ENDBRANCH   1   7
BRANCH   5  11
HETATM   11  C2  UNL     1      -0.804  -1.511 -18.436  1.00  0.00     0.355 C
HETATM   12  O1  UNL     1      -0.656  -2.217 -17.394  1.00  0.00    -0.283 OA
ENDBRANCH   5  11
TORSDOF 3
ENDMDL