MODEL 1
REMARK VINA RESULT: -5.030925010      0.000      0.000
REMARK  2 active torsions:
REMARK  status: ('A' for Active; 'I' for Inactive)
REMARK    1  A    between atoms: C2_2  and  C3_3
REMARK       I    between atoms: C3_3  and  N1_5
REMARK    2  A    between atoms: N1_5  and  C4_7
ROOT
HETATM    1  C3  UNL     1      -3.063   3.682 -20.260  1.00  0.00     0.240 C
HETATM    2  O1  UNL     1      -3.262   4.896 -19.910  1.00  0.00    -0.269 OA
HETATM    3  N1  UNL     1      -4.105   2.958 -20.899  1.00  0.00    -0.353 N
ATOM      4  H1  UNL     1      -3.967   1.988 -21.184  1.00  0.00     0.163 HD
ENDROOT
BRANCH   3   5
HETATM    5  C4  UNL     1      -5.393   3.639 -21.142  1.00  0.00     0.084 A
HETATM    6  C5  UNL     1      -6.268   2.906 -22.127  1.00  0.00     0.027 A
HETATM    7  C6  UNL     1      -5.662   4.238 -22.467  1.00  0.00     0.027 A
ENDBRANCH   3   5
BRANCH   1   8
HETATM    8  C2  UNL     1      -1.787   3.068 -19.999  1.00  0.00     0.064 C
HETATM    9  C1  UNL     1      -1.434   2.690 -18.811  1.00  0.00     0.017 C
ENDBRANCH   1   8
TORSDOF 2
ENDMDL