MODEL 4
REMARK VINA RESULT: -4.740965660      1.931      2.061
REMARK  2 active torsions:
REMARK  status: ('A' for Active; 'I' for Inactive)
REMARK    1  A    between atoms: C1_2  and  N1_3
REMARK    2  A    between atoms: N1_3  and  C2_5
ROOT
HETATM    1  C2  UNL     1      -4.875   3.959 -20.838  1.00  0.00     0.154 C
HETATM    2  C3  UNL     1      -6.255   3.296 -20.705  1.00  0.00     0.040 C
HETATM    3  C4  UNL     1      -6.606   4.623 -20.015  1.00  0.00     0.083 C
HETATM    4  C5  UNL     1      -5.198   4.626 -19.557  1.00  0.00     0.149 C
HETATM    5  O2  UNL     1      -4.626   5.012 -18.572  1.00  0.00    -0.296 OA
ENDROOT
BRANCH   1   6
HETATM    6  N1  UNL     1      -3.778   3.027 -20.807  1.00  0.00    -0.357 N
ATOM      7  H1  UNL     1      -3.986   2.028 -20.830  1.00  0.00     0.162 HD
BRANCH   6   8
HETATM    8  C1  UNL     1      -2.432   3.431 -20.748  1.00  0.00     0.349 C
HETATM    9  O1  UNL     1      -1.949   4.078 -21.698  1.00  0.00    -0.284 OA
ENDBRANCH   6   8
ENDBRANCH   1   6
TORSDOF 2
ENDMDL