MODEL 2
REMARK VINA RESULT: -5.102586699      5.755      6.257
REMARK  1 active torsions:
REMARK  status: ('A' for Active; 'I' for Inactive)
REMARK    1  A    between atoms: N2_4  and  N3_6
ROOT
HETATM    1  N3  UNL     1      -2.067   0.131 -20.607  1.00  0.00    -0.293 N
ATOM      2  H3  UNL     1      -2.607  -0.028 -21.457  1.00  0.00     0.188 HD
HETATM    3  C1  UNL     1      -1.721  -0.873 -19.886  1.00  0.00     0.032 C
HETATM    4  C2  UNL     1      -2.001  -2.310 -20.111  1.00  0.00     0.083 C
HETATM    5  C3  UNL     1      -1.165  -3.017 -19.068  1.00  0.00     0.238 C
HETATM    6  N4  UNL     1      -1.234  -2.086 -17.952  1.00  0.00    -0.070 N
ATOM      7  H41 UNL     1      -0.638  -2.314 -17.157  1.00  0.00     0.277 HD
ATOM      8  H42 UNL     1      -2.106  -2.105 -17.422  1.00  0.00     0.277 HD
HETATM    9  C4  UNL     1      -0.933  -0.810 -18.617  1.00  0.00     0.286 C
ENDROOT
BRANCH   1  10
HETATM   10  N2  UNL     1      -1.725   1.421 -20.256  1.00  0.00    -0.249 N
HETATM   11  N1  UNL     1      -2.515   2.407 -20.255  1.00  0.00    -0.331 N
ATOM     12  H12 UNL     1      -3.476   2.217 -20.539  1.00  0.00     0.178 HD
ATOM     13  H11 UNL     1      -2.262   3.361 -19.996  1.00  0.00     0.178 HD
ATOM     14  H2  UNL     1      -0.760   1.591 -19.976  1.00  0.00     0.207 HD
ENDBRANCH   1  10
TORSDOF 1
ENDMDL