MODEL 5
REMARK VINA RESULT: -4.747647133      1.897      2.257
REMARK  1 active torsions:
REMARK  status: ('A' for Active; 'I' for Inactive)
REMARK    1  A    between atoms: C3_3  and  C5_5
ROOT
HETATM    1  C1  UNL     1      -6.617   2.754 -22.577  1.00  0.00     0.018 C
HETATM    2  C2  UNL     1      -5.845   3.380 -21.894  1.00  0.00    -0.073 C
HETATM    3  C3  UNL     1      -4.901   4.135 -21.085  1.00  0.00     0.072 C
HETATM    4  C4  UNL     1      -3.636   4.192 -21.431  1.00  0.00     0.038 C
ENDROOT
BRANCH   3   5
HETATM    5  C5  UNL     1      -5.358   4.818 -19.905  1.00  0.00     0.272 C
HETATM    6  N1  UNL     1      -6.641   5.449 -19.886  1.00  0.00    -0.057 NA
HETATM    7  O1  UNL     1      -4.678   4.890 -18.866  1.00  0.00    -0.270 OA
ENDBRANCH   3   5
TORSDOF 1
ENDMDL