MODEL 5
REMARK VINA RESULT: -5.062970471      2.747      3.501
REMARK  2 active torsions:
REMARK  status: ('A' for Active; 'I' for Inactive)
REMARK    1  A    between atoms: C2_2  and  C3_3
REMARK    2  A    between atoms: C2_2  and  C4_6
ROOT
HETATM    1  C1  UNL     1      -6.589   3.395 -20.255  1.00  0.00     0.024 C
HETATM    2  C2  UNL     1      -6.008   3.913 -21.298  1.00  0.00     0.002 C
ENDROOT
BRANCH   2   3
HETATM    3  C3  UNL     1      -6.561   3.536 -22.617  1.00  0.00     0.260 C
HETATM    4  N1  UNL     1      -6.641   4.563 -23.592  1.00  0.00    -0.058 NA
HETATM    5  O1  UNL     1      -6.941   2.366 -22.861  1.00  0.00    -0.271 OA
ENDBRANCH   2   3
BRANCH   2   6
HETATM    6  C4  UNL     1      -4.863   4.826 -21.248  1.00  0.00     0.023 A
HETATM    7  C5  UNL     1      -3.950   4.818 -20.059  1.00  0.00     0.010 A
HETATM    8  C6  UNL     1      -3.464   4.214 -21.335  1.00  0.00     0.010 A
ENDBRANCH   2   6
TORSDOF 2
ENDMDL