MODEL 2
REMARK VINA RESULT: -5.386872092      1.963      2.471
REMARK  1 active torsions:
REMARK  status: ('A' for Active; 'I' for Inactive)
REMARK    1  A    between atoms: C2_2  and  C3_3
ROOT
HETATM    1  C3  UNL     1      -5.357   4.454 -21.556  1.00  0.00     0.101 C
HETATM    2  C4  UNL     1      -3.856   4.548 -21.384  1.00  0.00     0.037 C
HETATM    3  C5  UNL     1      -3.649   4.077 -19.973  1.00  0.00     0.123 C
HETATM    4  N1  UNL     1      -4.865   4.506 -19.276  1.00  0.00    -0.360 N
ATOM      5  H1  UNL     1      -5.000   4.487 -18.265  1.00  0.00     0.162 HD
HETATM    6  C6  UNL     1      -5.827   4.951 -20.225  1.00  0.00     0.225 C
HETATM    7  O1  UNL     1      -6.853   5.625 -19.949  1.00  0.00    -0.273 OA
ENDROOT
BRANCH   1   8
HETATM    8  C2  UNL     1      -5.826   3.068 -21.698  1.00  0.00    -0.023 C
HETATM    9  C1  UNL     1      -6.736   2.780 -22.609  1.00  0.00     0.008 C
ENDBRANCH   1   8
TORSDOF 1
ENDMDL