MODEL 2
REMARK VINA RESULT: -5.184571529      1.575      1.575
REMARK  2 active torsions:
REMARK  status: ('A' for Active; 'I' for Inactive)
REMARK    1  A    between atoms: C1_4  and  C2_5
REMARK       I    between atoms: C2_5  and  N2_7
REMARK    2  A    between atoms: N2_7  and  C3_9
ROOT
HETATM    1  C2  UNL     1      -2.779   4.265 -20.808  1.00  0.00     0.256 C
HETATM    2  O1  UNL     1      -3.195   4.381 -19.634  1.00  0.00    -0.267 OA
HETATM    3  N2  UNL     1      -3.701   4.254 -21.870  1.00  0.00    -0.352 N
ATOM      4  H2  UNL     1      -3.339   4.158 -22.819  1.00  0.00     0.163 HD
ENDROOT
BRANCH   1   5
HETATM    5  C1  UNL     1      -1.362   4.144 -21.084  1.00  0.00     0.155 C
HETATM    6  N1  UNL     1      -0.887   4.005 -22.275  1.00  0.00    -0.404 N
ATOM      7  H12 UNL     1      -1.554   3.982 -23.046  1.00  0.00     0.155 HD
ATOM      8  H11 UNL     1       0.110   3.919 -22.469  1.00  0.00     0.155 HD
ENDBRANCH   1   5
BRANCH   3   9
HETATM    9  C3  UNL     1      -5.134   4.370 -21.697  1.00  0.00     0.084 A
HETATM   10  C4  UNL     1      -6.076   4.151 -22.796  1.00  0.00     0.027 A
HETATM   11  C5  UNL     1      -5.856   3.038 -21.776  1.00  0.00     0.027 A
ENDBRANCH   3   9
TORSDOF 2
ENDMDL