MODEL 4
REMARK VINA RESULT: -5.182971228      1.218      1.431
REMARK  2 active torsions:
REMARK  status: ('A' for Active; 'I' for Inactive)
REMARK    1  A    between atoms: C1_2  and  N1_3
REMARK    2  A    between atoms: N1_3  and  C2_5
ROOT
HETATM    1  C2  UNL     1      -4.566   4.108 -20.840  1.00  0.00     0.083 C
HETATM    2  C3  UNL     1      -5.542   3.024 -21.219  1.00  0.00     0.025 C
HETATM    3  C4  UNL     1      -6.717   3.394 -20.333  1.00  0.00     0.002 C
HETATM    4  C5  UNL     1      -6.617   4.887 -20.095  1.00  0.00     0.002 C
HETATM    5  C6  UNL     1      -5.471   5.337 -21.002  1.00  0.00     0.025 C
ENDROOT
BRANCH   1   6
HETATM    6  N1  UNL     1      -3.395   4.179 -21.619  1.00  0.00    -0.364 N
ATOM      7  H1  UNL     1      -3.440   4.115 -22.636  1.00  0.00     0.162 HD
BRANCH   6   8
HETATM    8  C1  UNL     1      -2.153   4.342 -20.954  1.00  0.00     0.348 C
HETATM    9  O1  UNL     1      -1.765   5.475 -20.573  1.00  0.00    -0.284 OA
ENDBRANCH   6   8
ENDBRANCH   1   6
TORSDOF 2
ENDMDL