MODEL 3
REMARK VINA RESULT: -5.493836084      1.025      1.084
REMARK  9 active torsions:
REMARK  status: ('A' for Active; 'I' for Inactive)
REMARK    1  A    between atoms: C2_2  and  C3_3
REMARK    2  A    between atoms: C3_3  and  C5_5
REMARK    3  A    between atoms: C6_6  and  O1_7
REMARK    4  A    between atoms: C12_17  and  C13_18
REMARK    5  A    between atoms: C16_22  and  O5_23
REMARK    6  A    between atoms: C17_27  and  C18_28
REMARK    7  A    between atoms: C22_35  and  C23_36
REMARK    8  A    between atoms: C23_36  and  C24_37
REMARK    9  A    between atoms: C24_37  and  S1_38
ROOT
HETATM    1  C5  UNL     1       2.534   0.225 -12.271  1.00  0.00     0.076 C
HETATM    2  C6  UNL     1       2.830  -1.173 -12.689  1.00  0.00     0.203 C
HETATM    3  O2  UNL     1       2.858  -2.175 -11.844  1.00  0.00    -0.314 OA
HETATM    4  C7  UNL     1       3.488  -3.304 -11.439  1.00  0.00     0.226 C
HETATM    5  C8  UNL     1       5.000  -3.329 -11.534  1.00  0.00     0.051 C
HETATM    6  C9  UNL     1       2.872  -4.495 -12.146  1.00  0.00     0.288 C
HETATM    7  O3  UNL     1       2.764  -5.507 -11.391  1.00  0.00    -0.262 OA
HETATM    8  O4  UNL     1       2.537  -4.325 -13.424  1.00  0.00    -0.312 OA
HETATM    9  C10 UNL     1       2.676  -4.889 -14.669  1.00  0.00     0.150 C
HETATM   10  C11 UNL     1       4.091  -5.279 -14.892  1.00  0.00     0.042 C
HETATM   11  C12 UNL     1       1.619  -5.900 -14.984  1.00  0.00     0.116 C
HETATM   12  N1  UNL     1       0.623  -5.406 -15.937  1.00  0.00    -0.345 N
HETATM   13  C15 UNL     1      -0.025  -6.432 -16.737  1.00  0.00     0.154 C
HETATM   14  C16 UNL     1       0.262  -4.070 -16.138  1.00  0.00     0.215 C
HETATM   15  N2  UNL     1      -0.094  -3.019 -15.288  1.00  0.00    -0.343 N
ATOM     16  H2  UNL     1       0.631  -2.305 -15.220  1.00  0.00     0.164 HD
HETATM   17  C17 UNL     1      -1.239  -2.721 -14.496  1.00  0.00     0.180 C
HETATM   18  C21 UNL     1      -1.007  -2.363 -13.098  1.00  0.00     0.241 C
HETATM   19  O6  UNL     1      -0.516  -3.322 -12.387  1.00  0.00    -0.271 OA
HETATM   20  N3  UNL     1      -1.218  -1.182 -12.395  1.00  0.00    -0.346 N
ATOM     21  H3  UNL     1      -1.687  -1.331 -11.502  1.00  0.00     0.163 HD
HETATM   22  C22 UNL     1      -0.929   0.178 -12.645  1.00  0.00     0.177 C
HETATM   23  C26 UNL     1       0.244   0.538 -13.432  1.00  0.00     0.246 C
HETATM   24  O7  UNL     1       0.043   0.505 -14.711  1.00  0.00    -0.271 OA
HETATM   25  N4  UNL     1       1.553   0.917 -13.086  1.00  0.00    -0.319 N
HETATM   26  C27 UNL     1       2.053   2.232 -13.627  1.00  0.00     0.159 C
ENDROOT
BRANCH   1  27
HETATM   27  C3  UNL     1       2.531   0.545 -10.836  1.00  0.00     0.036 C
HETATM   28  C4  UNL     1       1.538  -0.111  -9.946  1.00  0.00     0.016 C
BRANCH  27  29
HETATM   29  C2  UNL     1       3.906   0.441 -10.213  1.00  0.00     0.006 C
HETATM   30  C1  UNL     1       3.879  -0.440  -8.974  1.00  0.00     0.006 C
ENDBRANCH  27  29
ENDBRANCH   1  27
BRANCH   2  31
HETATM   31  O1  UNL     1       3.041  -1.196 -13.976  1.00  0.00    -0.339 OA
ATOM     32  H1  UNL     1       3.616  -1.923 -14.182  1.00  0.00     0.220 HD
ENDBRANCH   2  31
BRANCH  22  33
HETATM   33  C23 UNL     1      -2.213   0.749 -13.306  1.00  0.00     0.045 C
BRANCH  33  34
HETATM   34  C24 UNL     1      -2.691   1.956 -12.609  1.00  0.00     0.076 C
BRANCH  34  35
HETATM   35  S1  UNL     1      -4.353   1.725 -11.909  1.00  0.00    -0.173 SA
HETATM   36  C25 UNL     1      -5.046   0.104 -12.404  1.00  0.00     0.089 C
ENDBRANCH  34  35
ENDBRANCH  33  34
ENDBRANCH  22  33
BRANCH  17  37
HETATM   37  C18 UNL     1      -2.405  -3.659 -14.579  1.00  0.00     0.009 C
HETATM   38  C19 UNL     1      -3.586  -3.067 -13.821  1.00  0.00     0.012 C
HETATM   39  C20 UNL     1      -2.756  -4.224 -15.884  1.00  0.00     0.012 C
ENDBRANCH  17  37
BRANCH  11  40
HETATM   40  C13 UNL     1       2.085  -7.275 -15.274  1.00  0.00     0.023 C
HETATM   41  C14 UNL     1       2.042  -8.301 -14.220  1.00  0.00     0.007 C
ENDBRANCH  11  40
BRANCH  14  42
HETATM   42  O5  UNL     1       0.263  -3.751 -17.408  1.00  0.00    -0.333 OA
ATOM     43  H5  UNL     1      -0.521  -3.273 -17.652  1.00  0.00     0.220 HD
ENDBRANCH  14  42
TORSDOF 9
ENDMDL