MODEL 2
REMARK VINA RESULT: -8.395522426      1.817      2.508
REMARK  10 active torsions:
REMARK  status: ('A' for Active; 'I' for Inactive)
REMARK    1  A    between atoms: C2_2  and  O1_5
REMARK    2  A    between atoms: O1_5  and  C5_6
REMARK       I    between atoms: C5_6  and  N1_8
REMARK    3  A    between atoms: C8_11  and  N2_12
REMARK       I    between atoms: N2_12  and  C9_14
REMARK    4  A    between atoms: C9_14  and  C10_16
REMARK    5  A    between atoms: C10_16  and  O4_17
REMARK    6  A    between atoms: C10_16  and  N3_19
REMARK    7  A    between atoms: C11_20  and  C12_21
REMARK    8  A    between atoms: C17_31  and  C18_32
REMARK    9  A    between atoms: C18_32  and  C19_34
REMARK   10  A    between atoms: C19_34  and  C20_35
ROOT
HETATM    1  N3  UNL     1       0.605  -7.754 -18.077  1.00  0.00    -0.273 N
HETATM    2  C11 UNL     1       0.822  -8.052 -19.450  1.00  0.00     0.119 C
HETATM    3  C13 UNL     1       1.860  -9.169 -19.475  1.00  0.00     0.112 C
HETATM    4  C14 UNL     1       2.094  -9.728 -20.818  1.00  0.00     0.039 C
HETATM    5  C15 UNL     1       3.078  -8.883 -18.672  1.00  0.00     0.039 C
HETATM    6  S1  UNL     1       0.846 -10.308 -18.464  1.00  0.00     0.205 S
HETATM    7  O7  UNL     1      -0.140 -10.909 -19.382  1.00  0.00    -0.220 OA
HETATM    8  O8  UNL     1       1.710 -11.287 -17.769  1.00  0.00    -0.220 OA
HETATM    9  C16 UNL     1       0.192  -9.036 -17.438  1.00  0.00     0.142 C
HETATM   10  C17 UNL     1      -1.077  -9.157 -16.823  1.00  0.00     0.092 C
ENDROOT
BRANCH   1  11
HETATM   11  C10 UNL     1       0.808  -6.627 -17.254  1.00  0.00     0.218 C
BRANCH  11  12
HETATM   12  C9  UNL     1      -0.024  -5.482 -17.009  1.00  0.00     0.293 C
HETATM   13  N2  UNL     1      -0.327  -5.036 -15.663  1.00  0.00    -0.349 N
ATOM     14  H2  UNL     1       0.066  -5.558 -14.879  1.00  0.00     0.163 HD
HETATM   15  O3  UNL     1      -0.545  -4.791 -17.897  1.00  0.00    -0.264 OA
BRANCH  13  16
HETATM   16  C8  UNL     1      -1.152  -3.898 -15.381  1.00  0.00     0.087 C
HETATM   17  C7  UNL     1      -0.731  -3.345 -14.044  1.00  0.00     0.045 C
HETATM   18  C6  UNL     1      -1.516  -2.074 -13.776  1.00  0.00     0.130 C
HETATM   19  N1  UNL     1      -2.928  -2.357 -13.841  1.00  0.00    -0.328 N
HETATM   20  C5  UNL     1      -3.852  -1.360 -13.482  1.00  0.00     0.363 C
HETATM   21  C26 UNL     1      -3.385  -3.649 -14.266  1.00  0.00     0.130 C
HETATM   22  O2  UNL     1      -3.524  -0.207 -13.096  1.00  0.00    -0.238 OA
HETATM   23  C25 UNL     1      -2.606  -4.242 -15.392  1.00  0.00     0.045 C
BRANCH  20  24
HETATM   24  O1  UNL     1      -5.207  -1.623 -13.545  1.00  0.00    -0.294 OA
BRANCH  24  25
HETATM   25  C2  UNL     1      -5.981  -1.723 -12.367  1.00  0.00     0.061 C
HETATM   26  C1  UNL     1      -7.290  -2.398 -12.734  1.00  0.00     0.046 C
HETATM   27  C3  UNL     1      -5.286  -2.644 -11.370  1.00  0.00     0.046 C
HETATM   28  C4  UNL     1      -6.252  -0.398 -11.719  1.00  0.00     0.046 C
ENDBRANCH  24  25
ENDBRANCH  20  24
ENDBRANCH  13  16
ENDBRANCH  11  12
BRANCH  11  29
HETATM   29  O4  UNL     1       1.931  -6.546 -16.576  1.00  0.00    -0.342 OA
ATOM     30  H4  UNL     1       1.783  -6.714 -15.653  1.00  0.00     0.219 HD
ENDBRANCH  11  29
ENDBRANCH   1  11
BRANCH   2  31
HETATM   31  C12 UNL     1       0.970  -7.099 -20.480  1.00  0.00     0.225 C
HETATM   32  O5  UNL     1       0.347  -7.115 -21.587  1.00  0.00    -0.643 OA
HETATM   33  O6  UNL     1       1.852  -6.000 -20.356  1.00  0.00    -0.643 OA
ENDBRANCH   2  31
BRANCH  10  34
HETATM   34  C18 UNL     1      -2.364  -8.983 -17.439  1.00  0.00     0.152 C
HETATM   35  O9  UNL     1      -2.560  -8.728 -18.586  1.00  0.00    -0.293 OA
BRANCH  34  36
HETATM   36  C19 UNL     1      -3.566  -9.138 -16.551  1.00  0.00     0.087 C
BRANCH  36  37
HETATM   37  C20 UNL     1      -4.479  -7.971 -16.546  1.00  0.00    -0.007 C
HETATM   38  C21 UNL     1      -5.914  -8.240 -16.832  1.00  0.00     0.005 C
HETATM   39  C22 UNL     1      -6.580  -8.433 -15.483  1.00  0.00     0.000 C
HETATM   40  C23 UNL     1      -5.860  -7.438 -14.617  1.00  0.00     0.000 C
HETATM   41  C24 UNL     1      -4.456  -7.386 -15.137  1.00  0.00     0.005 C
ENDBRANCH  36  37
ENDBRANCH  34  36
ENDBRANCH  10  34
TORSDOF 10
ENDMDL