MODEL 4
REMARK VINA RESULT: -6.273726067      8.496     11.033
REMARK  9 active torsions:
REMARK  status: ('A' for Active; 'I' for Inactive)
REMARK    1  A    between atoms: C2_2  and  O2_4
REMARK    2  A    between atoms: O2_4  and  C3_5
REMARK       I    between atoms: N1_15  and  C11_16
REMARK    3  A    between atoms: C11_16  and  C12_18
REMARK    4  A    between atoms: C12_18  and  N2_19
REMARK    5  A    between atoms: N2_19  and  C13_22
REMARK    6  A    between atoms: C13_22  and  C16_25
REMARK    7  A    between atoms: C21_32  and  C22_33
REMARK    8  A    between atoms: N4_36  and  C23_37
REMARK    9  A    between atoms: C23_37  and  C25_39
ROOT
HETATM    1  C3  UNL     1       0.751  -7.650 -23.821  1.00  0.00     0.156 C
HETATM    2  C4  UNL     1       1.012  -7.662 -22.528  1.00  0.00     0.013 C
HETATM    3  C5  UNL     1       0.624  -8.896 -21.728  1.00  0.00     0.162 C
HETATM    4  S1  UNL     1       1.767  -9.009 -20.190  1.00  0.00     0.046 S
HETATM    5  O3  UNL     1       2.385 -10.547 -19.515  1.00  0.00    -0.248 OA
HETATM    6  C6  UNL     1       0.484  -8.840 -18.892  1.00  0.00     0.130 C
HETATM    7  C7  UNL     1      -0.628  -7.857 -18.923  1.00  0.00     0.059 C
HETATM    8  C8  UNL     1      -1.476  -8.028 -17.723  1.00  0.00     0.011 C
HETATM    9  C9  UNL     1      -1.484  -9.333 -17.051  1.00  0.00     0.012 C
HETATM   10  C10 UNL     1      -0.895  -7.012 -16.709  1.00  0.00     0.137 C
HETATM   11  N1  UNL     1      -0.317  -5.981 -17.543  1.00  0.00    -0.314 N
HETATM   12  C11 UNL     1       0.191  -4.754 -17.037  1.00  0.00     0.250 C
HETATM   13  O4  UNL     1       0.709  -3.896 -17.862  1.00  0.00    -0.271 OA
HETATM   14  C19 UNL     1      -0.406  -6.400 -18.866  1.00  0.00     0.090 C
HETATM   15  C20 UNL     1       0.532  -5.897 -19.907  1.00  0.00     0.291 C
HETATM   16  O5  UNL     1       0.347  -4.749 -20.377  1.00  0.00    -0.264 OA
HETATM   17  N3  UNL     1       1.654  -6.552 -20.487  1.00  0.00    -0.202 N
HETATM   18  C21 UNL     1       1.628  -6.435 -21.933  1.00  0.00     0.146 C
HETATM   19  N4  UNL     1       2.518  -7.318 -19.737  1.00  0.00    -0.235 N
ENDROOT
BRANCH  12  20
HETATM   20  C12 UNL     1       0.225  -4.270 -15.651  1.00  0.00     0.336 C
BRANCH  20  21
HETATM   21  N2  UNL     1       0.950  -5.085 -14.749  1.00  0.00    -0.058 N
ATOM     22  H22 UNL     1       0.422  -5.921 -14.499  1.00  0.00     0.278 HD
ATOM     23  H21 UNL     1       1.746  -5.527 -15.208  1.00  0.00     0.278 HD
BRANCH  21  24
HETATM   24  C13 UNL     1       1.371  -4.346 -13.554  1.00  0.00     0.122 C
HETATM   25  C14 UNL     1       0.221  -3.568 -12.965  1.00  0.00     0.046 C
HETATM   26  C15 UNL     1       2.456  -3.377 -13.951  1.00  0.00     0.046 C
BRANCH  24  27
HETATM   27  C16 UNL     1       1.930  -5.301 -12.524  1.00  0.00     0.013 C
HETATM   28  C17 UNL     1       1.239  -5.178 -11.196  1.00  0.00     0.012 C
HETATM   29  C18 UNL     1       2.031  -6.704 -13.030  1.00  0.00     0.012 C
ENDBRANCH  24  27
ENDBRANCH  21  24
ENDBRANCH  20  21
ENDBRANCH  12  20
BRANCH  18  30
HETATM   30  C22 UNL     1       2.757  -5.846 -22.580  1.00  0.00     0.229 C
HETATM   31  O6  UNL     1       3.710  -6.505 -23.031  1.00  0.00    -0.643 OA
HETATM   32  O7  UNL     1       2.860  -4.472 -22.755  1.00  0.00    -0.643 OA
ENDBRANCH  18  30
BRANCH  19  33
HETATM   33  C23 UNL     1       3.790  -7.141 -19.415  1.00  0.00     0.117 C
HETATM   34  C24 UNL     1       4.851  -7.929 -20.216  1.00  0.00     0.035 C
BRANCH  33  35
HETATM   35  C25 UNL     1       4.106  -7.532 -17.958  1.00  0.00     0.003 C
HETATM   36  C26 UNL     1       3.104  -6.937 -17.016  1.00  0.00     0.011 C
HETATM   37  C27 UNL     1       5.487  -7.025 -17.587  1.00  0.00     0.011 C
ENDBRANCH  33  35
ENDBRANCH  19  33
BRANCH   1  38
HETATM   38  O2  UNL     1       0.141  -8.719 -24.481  1.00  0.00    -0.291 OA
BRANCH  38  39
HETATM   39  C2  UNL     1       0.870  -9.337 -25.487  1.00  0.00     0.259 C
HETATM   40  C1  UNL     1       1.821 -10.406 -25.037  1.00  0.00     0.126 C
HETATM   41  O1  UNL     1       0.749  -9.034 -26.691  1.00  0.00    -0.265 OA
ENDBRANCH  38  39
ENDBRANCH   1  38
TORSDOF 9
ENDMDL