MODEL 2
REMARK VINA RESULT: -6.482704687      3.496      5.945
REMARK  10 active torsions:
REMARK  status: ('A' for Active; 'I' for Inactive)
REMARK    1  A    between atoms: O1_2  and  C2_3
REMARK    2  A    between atoms: C2_3  and  C3_5
REMARK    3  A    between atoms: C5_7  and  O3_8
REMARK    4  A    between atoms: O3_8  and  C6_9
REMARK       I    between atoms: C6_9  and  N1_11
REMARK    5  A    between atoms: N1_11  and  C7_13
REMARK       I    between atoms: N2_24  and  C18_25
REMARK    6  A    between atoms: C18_25  and  C19_27
REMARK    7  A    between atoms: C21_29  and  S1_30
REMARK    8  A    between atoms: C23_32  and  N3_33
REMARK       I    between atoms: N3_33  and  C24_35
REMARK    9  A    between atoms: N4_38  and  O7_39
REMARK   10  A    between atoms: C26_41  and  O8_42
ROOT
HETATM    1  C3  UNL     1       1.852  -4.218 -19.635  1.00  0.00     0.189 C
HETATM    2  C4  UNL     1       1.834  -4.020 -21.136  1.00  0.00     0.070 C
HETATM    3  C5  UNL     1       2.781  -5.066 -21.621  1.00  0.00     0.154 C
HETATM    4  C17 UNL     1       2.615  -6.201 -20.648  1.00  0.00     0.159 C
HETATM    5  N2  UNL     1       1.733  -5.684 -19.603  1.00  0.00    -0.335 N
HETATM    6  C18 UNL     1       0.901  -6.389 -18.716  1.00  0.00     0.232 C
HETATM    7  O5  UNL     1       0.200  -5.770 -17.884  1.00  0.00    -0.272 OA
ENDROOT
BRANCH   1   8
HETATM    8  C2  UNL     1       3.178  -3.864 -19.105  1.00  0.00     0.281 C
HETATM    9  O2  UNL     1       3.564  -4.438 -18.032  1.00  0.00    -0.263 OA
BRANCH   8  10
HETATM   10  O1  UNL     1       4.049  -2.962 -19.664  1.00  0.00    -0.325 OA
HETATM   11  C1  UNL     1       4.967  -2.172 -18.917  1.00  0.00     0.213 C
ENDBRANCH   8  10
ENDBRANCH   1   8
BRANCH   6  12
HETATM   12  C19 UNL     1       0.812  -7.877 -18.725  1.00  0.00     0.156 C
HETATM   13  C20 UNL     1       1.156  -8.511 -17.424  1.00  0.00     0.041 C
HETATM   14  C21 UNL     1       0.077  -9.242 -16.722  1.00  0.00     0.093 C
HETATM   15  C23 UNL     1      -1.306  -9.086 -17.255  1.00  0.00     0.230 C
HETATM   16  N4  UNL     1      -1.390  -8.878 -18.677  1.00  0.00    -0.217 N
HETATM   17  C26 UNL     1      -0.453  -8.340 -19.342  1.00  0.00     0.155 C
BRANCH  14  18
HETATM   18  S1  UNL     1       0.482 -11.030 -16.742  1.00  0.00    -0.165 SA
HETATM   19  C22 UNL     1       1.164 -11.524 -18.333  1.00  0.00     0.090 C
ENDBRANCH  14  18
BRANCH  15  20
HETATM   20  N3  UNL     1      -1.953  -7.953 -16.624  1.00  0.00    -0.337 N
HETATM   21  C24 UNL     1      -3.353  -7.929 -16.392  1.00  0.00     0.215 C
HETATM   22  C25 UNL     1      -4.028  -6.778 -15.748  1.00  0.00     0.117 C
HETATM   23  O6  UNL     1      -4.030  -8.918 -16.748  1.00  0.00    -0.274 OA
ATOM     24  H3  UNL     1      -1.389  -7.152 -16.339  1.00  0.00     0.164 HD
ENDBRANCH  15  20
BRANCH  16  25
HETATM   25  O7  UNL     1      -2.536  -9.282 -19.317  1.00  0.00    -0.284 OA
ATOM     26  H7  UNL     1      -2.579  -9.174 -20.259  1.00  0.00     0.245 HD
ENDBRANCH  16  25
BRANCH  17  27
HETATM   27  O8  UNL     1      -0.616  -8.180 -20.686  1.00  0.00    -0.342 OA
HETATM   28  C27 UNL     1       0.122  -8.737 -21.714  1.00  0.00     0.211 C
ENDBRANCH  17  27
ENDBRANCH   6  12
BRANCH   3  29
HETATM   29  O3  UNL     1       2.515  -5.475 -22.948  1.00  0.00    -0.297 OA
BRANCH  29  30
HETATM   30  C6  UNL     1       3.271  -6.507 -23.485  1.00  0.00     0.361 C
HETATM   31  O4  UNL     1       4.518  -6.377 -23.450  1.00  0.00    -0.238 OA
HETATM   32  N1  UNL     1       2.642  -7.666 -24.050  1.00  0.00    -0.328 N
ATOM     33  H1  UNL     1       1.623  -7.705 -24.040  1.00  0.00     0.165 HD
BRANCH  32  34
HETATM   34  C7  UNL     1       3.344  -8.770 -24.628  1.00  0.00     0.036 C
HETATM   35  C8  UNL     1       2.337  -9.751 -25.209  1.00  0.00     0.035 C
HETATM   36  C9  UNL     1       3.043 -10.916 -25.815  1.00  0.00    -0.012 C
HETATM   37  C10 UNL     1       3.892 -11.644 -24.802  1.00  0.00     0.009 C
HETATM   38  C14 UNL     1       3.921 -10.428 -26.933  1.00  0.00     0.009 C
HETATM   39  C11 UNL     1       4.897 -10.671 -24.243  1.00  0.00    -0.012 C
HETATM   40  C12 UNL     1       5.808 -10.140 -25.317  1.00  0.00     0.009 C
HETATM   41  C16 UNL     1       4.180  -9.492 -23.614  1.00  0.00     0.035 C
HETATM   42  C13 UNL     1       4.951  -9.468 -26.368  1.00  0.00    -0.012 C
HETATM   43  C15 UNL     1       4.210  -8.305 -25.781  1.00  0.00     0.035 C
ENDBRANCH  32  34
ENDBRANCH  29  30
ENDBRANCH   3  29
TORSDOF 10
ENDMDL