MODEL 1
REMARK VINA RESULT: -7.769250810      0.000      0.000
REMARK  8 active torsions:
REMARK  status: ('A' for Active; 'I' for Inactive)
REMARK    1  A    between atoms: O1_2  and  C2_3
REMARK    2  A    between atoms: C2_3  and  C3_4
REMARK    3  A    between atoms: C4_5  and  C5_6
REMARK       I    between atoms: C5_6  and  N1_8
REMARK    4  A    between atoms: C7_10  and  O3_11
REMARK    5  A    between atoms: C9_14  and  C10_15
REMARK       I    between atoms: C10_15  and  N2_17
REMARK    6  A    between atoms: C20_29  and  C21_30
REMARK       I    between atoms: C21_30  and  N4_32
REMARK    7  A    between atoms: C22_34  and  C23_35
REMARK    8  A    between atoms: C25_38  and  C26_39
ROOT
HETATM    1  C10 UNL     1      -4.778  -2.009 -13.111  1.00  0.00     0.226 C
HETATM    2  O4  UNL     1      -5.430  -0.922 -13.222  1.00  0.00    -0.273 OA
HETATM    3  N2  UNL     1      -3.536  -2.113 -13.744  1.00  0.00    -0.332 N
HETATM    4  C11 UNL     1      -2.921  -1.016 -14.515  1.00  0.00     0.179 C
HETATM    5  C12 UNL     1      -1.526  -1.111 -13.921  1.00  0.00     0.007 C
HETATM    6  N3  UNL     1      -0.516  -0.622 -13.379  1.00  0.00    -0.385 N
ATOM      7  H3  UNL     1      -0.445   0.370 -13.152  1.00  0.00     0.160 HD
HETATM    8  C13 UNL     1       0.527  -1.542 -13.102  1.00  0.00     0.030 C
HETATM    9  C14 UNL     1       1.156  -1.211 -11.779  1.00  0.00     0.031 C
HETATM   10  C15 UNL     1       2.033  -0.032 -12.152  1.00  0.00     0.002 C
HETATM   11  C16 UNL     1       2.466  -0.301 -13.561  1.00  0.00     0.002 C
HETATM   12  C17 UNL     1       1.674  -1.494 -14.049  1.00  0.00     0.031 C
HETATM   13  C18 UNL     1      -0.178  -2.892 -13.087  1.00  0.00     0.044 C
HETATM   14  C19 UNL     1      -1.253  -2.593 -14.120  1.00  0.00     0.067 C
HETATM   15  C20 UNL     1      -2.582  -3.204 -13.839  1.00  0.00     0.189 C
ENDROOT
BRANCH   1  16
HETATM   16  C9  UNL     1      -5.446  -3.053 -12.293  1.00  0.00     0.098 C
HETATM   17  C8  UNL     1      -5.567  -2.574 -10.896  1.00  0.00     0.049 C
HETATM   18  C7  UNL     1      -6.980  -2.285 -10.440  1.00  0.00     0.137 C
HETATM   19  C6  UNL     1      -7.765  -3.570 -10.649  1.00  0.00     0.157 C
HETATM   20  N1  UNL     1      -7.786  -3.790 -12.061  1.00  0.00    -0.345 N
HETATM   21  C5  UNL     1      -9.018  -4.281 -12.661  1.00  0.00     0.243 C
HETATM   22  C28 UNL     1      -6.690  -3.565 -12.942  1.00  0.00     0.140 C
HETATM   23  O2  UNL     1      -9.962  -4.463 -11.848  1.00  0.00    -0.268 OA
BRANCH  18  24
HETATM   24  O3  UNL     1      -6.943  -1.980  -9.100  1.00  0.00    -0.394 OA
ATOM     25  H3  UNL     1      -6.048  -1.795  -8.839  1.00  0.00     0.210 HD
ENDBRANCH  18  24
BRANCH  21  26
HETATM   26  C4  UNL     1      -9.119  -4.527 -14.062  1.00  0.00     0.072 C
HETATM   27  C3  UNL     1      -9.051  -5.636 -14.678  1.00  0.00     0.005 C
BRANCH  27  28
HETATM   28  C2  UNL     1      -8.852  -6.972 -14.145  1.00  0.00     0.194 C
BRANCH  28  29
HETATM   29  O1  UNL     1      -7.524  -7.154 -13.720  1.00  0.00    -0.392 OA
HETATM   30  C1  UNL     1      -6.731  -7.532 -14.820  1.00  0.00     0.201 C
ENDBRANCH  28  29
ENDBRANCH  27  28
ENDBRANCH  21  26
ENDBRANCH   1  16
BRANCH  15  31
HETATM   31  C21 UNL     1      -3.034  -4.174 -14.895  1.00  0.00     0.245 C
HETATM   32  O5  UNL     1      -3.918  -5.009 -14.484  1.00  0.00    -0.271 OA
HETATM   33  N4  UNL     1      -2.594  -4.214 -16.172  1.00  0.00    -0.335 N
HETATM   34  C22 UNL     1      -1.902  -4.778 -17.001  1.00  0.00     0.103 C
ATOM     35  H4  UNL     1      -3.035  -3.429 -16.652  1.00  0.00     0.168 HD
BRANCH  34  36
HETATM   36  C23 UNL     1      -1.043  -5.983 -16.826  1.00  0.00    -0.013 A
HETATM   37  C24 UNL     1       0.233  -5.849 -16.365  1.00  0.00     0.063 A
HETATM   38  S1  UNL     1       0.808  -7.453 -16.331  1.00  0.00    -0.096 SA
HETATM   39  C25 UNL     1      -0.584  -8.255 -16.900  1.00  0.00     0.070 A
HETATM   40  C27 UNL     1      -1.467  -7.228 -17.103  1.00  0.00     0.037 A
BRANCH  39  41
HETATM   41  C26 UNL     1      -0.793  -9.688 -17.122  1.00  0.00     0.271 C
HETATM   42  N5  UNL     1       0.207 -10.416 -17.789  1.00  0.00    -0.057 NA
HETATM   43  O6  UNL     1      -1.831 -10.218 -16.725  1.00  0.00    -0.270 OA
ENDBRANCH  39  41
ENDBRANCH  34  36
ENDBRANCH  15  31
TORSDOF 8
ENDMDL