MODEL 3
REMARK VINA RESULT: -8.016089864      6.743     13.407
REMARK  9 active torsions:
REMARK  status: ('A' for Active; 'I' for Inactive)
REMARK    1  A    between atoms: C3_5  and  C4_6
REMARK    2  A    between atoms: C7_9  and  C8_10
REMARK    3  A    between atoms: C8_10  and  C9_11
REMARK    4  A    between atoms: C9_11  and  O1_12
REMARK    5  A    between atoms: O1_12  and  C10_13
REMARK    6  A    between atoms: C10_13  and  C11_15
REMARK    7  A    between atoms: C13_19  and  N3_20
REMARK       I    between atoms: N3_20  and  C14_22
REMARK       I    between atoms: C14_22  and  N4_24
REMARK    8  A    between atoms: N4_24  and  C15_26
REMARK    9  A    between atoms: C15_26  and  C16_27
REMARK       I    between atoms: C16_27  and  N5_29
ROOT
HETATM    1  C11 UNL     1       1.868  -6.300 -18.756  1.00  0.00     0.206 C
HETATM    2  N2  UNL     1       0.720  -7.210 -18.957  1.00  0.00    -0.319 N
HETATM    3  C12 UNL     1      -0.347  -7.976 -19.399  1.00  0.00     0.247 C
HETATM    4  O3  UNL     1      -0.802  -8.341 -20.554  1.00  0.00    -0.271 OA
HETATM    5  C13 UNL     1      -0.865  -8.288 -18.069  1.00  0.00     0.211 C
HETATM    6  C21 UNL     1       0.479  -7.727 -17.600  1.00  0.00     0.183 C
HETATM    7  S1  UNL     1       0.332  -6.070 -16.778  1.00  0.00    -0.129 SA
HETATM    8  C22 UNL     1       1.121  -5.098 -18.167  1.00  0.00     0.033 C
HETATM    9  C23 UNL     1       0.021  -4.648 -19.115  1.00  0.00     0.029 C
HETATM   10  C24 UNL     1       2.005  -4.040 -17.671  1.00  0.00     0.029 C
ENDROOT
BRANCH   5  11
HETATM   11  N3  UNL     1      -1.934  -7.514 -17.501  1.00  0.00    -0.327 N
HETATM   12  C14 UNL     1      -2.847  -8.123 -16.615  1.00  0.00     0.317 C
HETATM   13  O4  UNL     1      -2.817  -9.338 -16.397  1.00  0.00    -0.247 OA
HETATM   14  N4  UNL     1      -3.796  -7.284 -15.973  1.00  0.00    -0.334 N
ATOM     15  H4  UNL     1      -3.797  -6.292 -16.209  1.00  0.00     0.164 HD
ATOM     16  H3  UNL     1      -2.032  -6.526 -17.736  1.00  0.00     0.165 HD
BRANCH  14  17
HETATM   17  C15 UNL     1      -4.754  -7.752 -15.012  1.00  0.00     0.227 C
BRANCH  17  18
HETATM   18  C16 UNL     1      -6.088  -7.904 -15.615  1.00  0.00     0.245 C
HETATM   19  O5  UNL     1      -6.288  -8.618 -16.651  1.00  0.00    -0.271 OA
HETATM   20  N5  UNL     1      -7.203  -7.229 -15.047  1.00  0.00    -0.267 N
HETATM   21  C17 UNL     1      -8.538  -7.183 -15.550  1.00  0.00     0.157 C
HETATM   22  C20 UNL     1      -7.209  -6.469 -13.815  1.00  0.00     0.327 C
HETATM   23  C18 UNL     1      -9.362  -7.184 -14.264  1.00  0.00     0.147 C
HETATM   24  N6  UNL     1      -8.579  -6.264 -13.426  1.00  0.00    -0.337 N
HETATM   25  C19 UNL     1      -9.019  -5.337 -12.417  1.00  0.00     0.154 C
HETATM   26  O6  UNL     1      -6.215  -6.062 -13.192  1.00  0.00    -0.247 OA
ENDBRANCH  17  18
ENDBRANCH  14  17
ENDBRANCH   5  11
BRANCH   1  27
HETATM   27  C10 UNL     1       2.639  -6.096 -19.947  1.00  0.00     0.283 C
HETATM   28  O2  UNL     1       3.628  -5.385 -20.024  1.00  0.00    -0.263 OA
BRANCH  27  29
HETATM   29  O1  UNL     1       2.183  -6.759 -21.127  1.00  0.00    -0.319 OA
BRANCH  29  30
HETATM   30  C9  UNL     1       3.162  -7.418 -21.926  1.00  0.00     0.184 C
BRANCH  30  31
HETATM   31  C8  UNL     1       3.265  -8.866 -21.716  1.00  0.00     0.075 C
BRANCH  31  32
HETATM   32  C7  UNL     1       2.146  -9.765 -22.003  1.00  0.00     0.013 A
HETATM   33  C3  UNL     1       1.027  -9.784 -22.781  1.00  0.00     0.047 A
HETATM   34  N1  UNL     1       0.161 -10.765 -22.523  1.00  0.00    -0.353 N
HETATM   35  C2  UNL     1       0.382 -11.659 -21.584  1.00  0.00     0.047 A
ATOM     36  H1  UNL     1      -0.699 -10.823 -23.070  1.00  0.00     0.166 HD
HETATM   37  C1  UNL     1      -0.461 -12.852 -21.173  1.00  0.00     0.076 C
HETATM   38  S2  UNL     1       1.873 -11.164 -20.977  1.00  0.00    -0.079 SA
BRANCH  33  39
HETATM   39  C4  UNL     1       0.866  -8.959 -24.033  1.00  0.00    -0.060 C
HETATM   40  C5  UNL     1       0.142  -7.671 -23.887  1.00  0.00     0.045 C
HETATM   41  C6  UNL     1       1.672  -9.242 -25.228  1.00  0.00     0.045 C
ENDBRANCH  33  39
ENDBRANCH  31  32
ENDBRANCH  30  31
ENDBRANCH  29  30
ENDBRANCH  27  29
ENDBRANCH   1  27
TORSDOF 9
ENDMDL