MODEL 5
REMARK VINA RESULT: -6.717956313      0.995      1.132
REMARK  11 active torsions:
REMARK  status: ('A' for Active; 'I' for Inactive)
REMARK    1  A    between atoms: C2_2  and  O1_4
REMARK    2  A    between atoms: O1_4  and  C4_5
REMARK       I    between atoms: C4_5  and  N1_7
REMARK    3  A    between atoms: N1_7  and  C5_9
REMARK    4  A    between atoms: C5_9  and  C6_10
REMARK    5  A    between atoms: C5_9  and  C24_41
REMARK       I    between atoms: C6_10  and  N2_12
REMARK    6  A    between atoms: C10_16  and  C11_17
REMARK       I    between atoms: C11_17  and  N3_19
REMARK    7  A    between atoms: N4_22  and  C14_23
REMARK    8  A    between atoms: C14_23  and  O5_24
REMARK    9  A    between atoms: C14_23  and  C15_26
REMARK   10  A    between atoms: C15_26  and  N5_27
REMARK       I    between atoms: N5_27  and  C16_29
REMARK   11  A    between atoms: C16_29  and  C17_31
ROOT
HETATM    1  C11 UNL     1       2.848  -5.099 -15.789  1.00  0.00     0.242 C
HETATM    2  O4  UNL     1       4.060  -4.834 -16.026  1.00  0.00    -0.271 OA
HETATM    3  N3  UNL     1       2.112  -4.273 -14.908  1.00  0.00    -0.347 N
HETATM    4  C12 UNL     1       0.745  -4.544 -14.619  1.00  0.00     0.145 C
HETATM    5  C13 UNL     1       0.152  -3.470 -13.707  1.00  0.00     0.144 C
HETATM    6  N4  UNL     1       0.529  -2.136 -14.043  1.00  0.00    -0.360 N
HETATM    7  C22 UNL     1       1.877  -1.929 -14.630  1.00  0.00     0.144 C
HETATM    8  C23 UNL     1       2.775  -3.110 -14.310  1.00  0.00     0.145 C
ENDROOT
BRANCH   1   9
HETATM    9  C10 UNL     1       2.147  -6.263 -16.414  1.00  0.00     0.179 C
HETATM   10  N2  UNL     1       2.408  -6.231 -17.835  1.00  0.00    -0.337 N
HETATM   11  C6  UNL     1       2.136  -5.142 -18.729  1.00  0.00     0.244 C
HETATM   12  C7  UNL     1       3.003  -7.497 -18.273  1.00  0.00     0.127 C
HETATM   13  O3  UNL     1       1.652  -4.090 -18.210  1.00  0.00    -0.271 OA
HETATM   14  C8  UNL     1       3.672  -7.985 -16.990  1.00  0.00     0.022 C
HETATM   15  C9  UNL     1       2.701  -7.562 -15.935  1.00  0.00     0.037 C
BRANCH  11  16
HETATM   16  C5  UNL     1       2.379  -5.171 -20.171  1.00  0.00     0.186 C
BRANCH  16  17
HETATM   17  N1  UNL     1       2.835  -3.841 -20.628  1.00  0.00    -0.323 N
HETATM   18  C4  UNL     1       4.043  -3.728 -21.366  1.00  0.00     0.361 C
HETATM   19  O2  UNL     1       4.774  -4.702 -21.671  1.00  0.00    -0.238 OA
ATOM     20  H1  UNL     1       2.285  -3.010 -20.415  1.00  0.00     0.165 HD
BRANCH  18  21
HETATM   21  O1  UNL     1       4.438  -2.465 -21.777  1.00  0.00    -0.299 OA
BRANCH  21  22
HETATM   22  C2  UNL     1       4.627  -1.380 -20.922  1.00  0.00     0.125 C
HETATM   23  C1  UNL     1       5.776  -1.732 -19.985  1.00  0.00     0.040 C
HETATM   24  C3  UNL     1       5.001  -0.092 -21.614  1.00  0.00     0.040 C
ENDBRANCH  21  22
ENDBRANCH  18  21
ENDBRANCH  16  17
BRANCH  16  25
HETATM   25  C24 UNL     1       1.107  -5.522 -20.946  1.00  0.00    -0.022 C
HETATM   26  C25 UNL     1       1.509  -6.300 -22.173  1.00  0.00     0.017 C
HETATM   27  C26 UNL     1       0.501  -4.219 -21.445  1.00  0.00     0.017 C
HETATM   28  C27 UNL     1       0.126  -6.308 -20.140  1.00  0.00     0.017 C
ENDBRANCH  16  25
ENDBRANCH  11  16
ENDBRANCH   1   9
BRANCH   6  29
HETATM   29  C14 UNL     1      -0.225  -0.978 -13.851  1.00  0.00     0.142 C
BRANCH  29  30
HETATM   30  O5  UNL     1      -0.314  -0.214 -14.921  1.00  0.00    -0.348 OA
ATOM     31  H5  UNL     1      -0.513  -0.688 -15.720  1.00  0.00     0.219 HD
ENDBRANCH  29  30
BRANCH  29  32
HETATM   32  C15 UNL     1      -0.934  -0.441 -12.699  1.00  0.00     0.098 A
HETATM   33  C20 UNL     1      -0.130  -0.242 -11.426  1.00  0.00     0.042 A
HETATM   34  C21 UNL     1      -0.717   0.917 -12.139  1.00  0.00     0.042 A
BRANCH  32  35
HETATM   35  N5  UNL     1      -2.273  -0.988 -12.433  1.00  0.00    -0.339 N
HETATM   36  C16 UNL     1      -3.393  -0.659 -13.230  1.00  0.00     0.269 C
HETATM   37  O6  UNL     1      -3.215   0.128 -14.190  1.00  0.00    -0.266 OA
ATOM     38  H5  UNL     1      -2.398  -1.626 -11.647  1.00  0.00     0.164 HD
BRANCH  36  39
HETATM   39  C17 UNL     1      -4.743  -1.225 -12.945  1.00  0.00     0.107 A
HETATM   40  C18 UNL     1      -4.891  -2.344 -12.155  1.00  0.00     0.086 A
HETATM   41  S1  UNL     1      -6.586  -2.549 -12.159  1.00  0.00    -0.094 SA
HETATM   42  C19 UNL     1      -7.002  -1.219 -13.148  1.00  0.00     0.138 A
HETATM   43  N6  UNL     1      -5.825  -0.695 -13.421  1.00  0.00    -0.355 N
ATOM     44  H6  UNL     1      -5.764   0.135 -14.012  1.00  0.00     0.166 HD
ENDBRANCH  36  39
ENDBRANCH  32  35
ENDBRANCH  29  32
ENDBRANCH   6  29
TORSDOF 11
ENDMDL