MODEL 4
REMARK VINA RESULT: -7.577463318      4.104      8.489
REMARK  10 active torsions:
REMARK  status: ('A' for Active; 'I' for Inactive)
REMARK    1  A    between atoms: O1_2  and  C2_3
REMARK    2  A    between atoms: C2_3  and  C3_5
REMARK    3  A    between atoms: N1_10  and  C8_11
REMARK    4  A    between atoms: C8_11  and  C9_12
REMARK    5  A    between atoms: C9_12  and  C10_13
REMARK    6  A    between atoms: N2_16  and  C13_17
REMARK    7  A    between atoms: C13_17  and  O3_19
REMARK    8  A    between atoms: O3_19  and  C14_20
REMARK    9  A    between atoms: C14_20  and  C15_21
REMARK   10  A    between atoms: C15_21  and  N3_22
REMARK       I    between atoms: N3_22  and  C16_24
REMARK       I    between atoms: C16_24  and  N4_26
ROOT
HETATM    1  C13 UNL     1      -7.610  -5.212 -12.777  1.00  0.00     0.216 C
HETATM    2  S1  UNL     1      -9.080  -5.816 -12.227  1.00  0.00    -0.033 SA
ENDROOT
BRANCH   1   3
HETATM    3  N2  UNL     1      -6.865  -6.133 -13.532  1.00  0.00    -0.352 N
HETATM    4  C12 UNL     1      -5.438  -5.992 -13.677  1.00  0.00     0.126 C
HETATM    5  C11 UNL     1      -4.752  -7.200 -14.262  1.00  0.00     0.024 C
HETATM    6  C10 UNL     1      -5.505  -7.973 -15.280  1.00  0.00    -0.010 C
HETATM    7  C23 UNL     1      -6.831  -7.354 -15.564  1.00  0.00     0.024 C
HETATM    8  C22 UNL     1      -7.538  -7.258 -14.197  1.00  0.00     0.126 C
BRANCH   6   9
HETATM    9  C9  UNL     1      -4.658  -8.182 -16.542  1.00  0.00     0.035 C
BRANCH   9  10
HETATM   10  C8  UNL     1      -3.473  -7.275 -16.475  1.00  0.00     0.274 C
BRANCH  10  11
HETATM   11  N1  UNL     1      -2.230  -8.032 -16.520  1.00  0.00     0.107 N
HETATM   12  C3  UNL     1      -1.185  -7.225 -17.123  1.00  0.00     0.242 C
HETATM   13  C4  UNL     1      -1.348  -5.762 -16.917  1.00  0.00     0.061 C
HETATM   14  C5  UNL     1      -1.264  -7.536 -18.611  1.00  0.00     0.054 C
HETATM   15  C6  UNL     1      -1.485  -9.035 -18.560  1.00  0.00     0.033 C
HETATM   16  C7  UNL     1      -2.349  -9.207 -17.362  1.00  0.00     0.274 C
BRANCH  12  17
HETATM   17  C2  UNL     1       0.163  -7.656 -16.680  1.00  0.00     0.297 C
HETATM   18  O2  UNL     1       1.171  -7.291 -17.323  1.00  0.00    -0.262 OA
BRANCH  17  19
HETATM   19  O1  UNL     1       0.338  -8.455 -15.567  1.00  0.00    -0.324 OA
HETATM   20  C1  UNL     1       1.501  -8.310 -14.788  1.00  0.00     0.213 C
ENDBRANCH  17  19
ENDBRANCH  12  17
ENDBRANCH  10  11
ENDBRANCH   9  10
ENDBRANCH   6   9
ENDBRANCH   1   3
BRANCH   1  21
HETATM   21  O3  UNL     1      -7.271  -3.937 -12.455  1.00  0.00    -0.295 OA
BRANCH  21  22
HETATM   22  C14 UNL     1      -7.730  -2.700 -12.684  1.00  0.00     0.162 C
BRANCH  22  23
HETATM   23  C15 UNL     1      -6.911  -1.528 -13.014  1.00  0.00     0.117 C
BRANCH  23  24
HETATM   24  N3  UNL     1      -6.909  -0.385 -12.215  1.00  0.00    -0.317 N
HETATM   25  C16 UNL     1      -6.617  -0.139 -10.873  1.00  0.00     0.326 C
HETATM   26  O4  UNL     1      -6.278  -1.020 -10.080  1.00  0.00    -0.247 OA
HETATM   27  N4  UNL     1      -6.720   1.168 -10.391  1.00  0.00    -0.287 N
HETATM   28  C17 UNL     1      -5.725   1.961 -10.254  1.00  0.00     0.170 A
ATOM     29  H4  UNL     1      -7.644   1.511 -10.132  1.00  0.00     0.172 HD
HETATM   30  N5  UNL     1      -4.423   1.792 -10.500  1.00  0.00    -0.276 N
HETATM   31  S2  UNL     1      -5.745   3.606  -9.694  1.00  0.00    -0.026 SA
HETATM   32  N6  UNL     1      -3.609   2.751 -10.294  1.00  0.00    -0.277 N
ATOM     33  H5  UNL     1      -4.081   0.898 -10.852  1.00  0.00     0.189 HD
HETATM   34  C18 UNL     1      -4.086   3.914  -9.828  1.00  0.00     0.132 A
HETATM   35  C21 UNL     1      -2.132   2.804 -10.476  1.00  0.00     0.151 C
HETATM   36  S3  UNL     1      -2.981   5.318  -9.538  1.00  0.00    -0.103 SA
HETATM   37  C19 UNL     1      -1.785   5.253 -10.921  1.00  0.00     0.083 C
HETATM   38  C20 UNL     1      -1.727   3.835 -11.476  1.00  0.00     0.032 C
ATOM     39  H3  UNL     1      -7.181   0.456 -12.723  1.00  0.00     0.170 HD
ENDBRANCH  23  24
ENDBRANCH  22  23
ENDBRANCH  21  22
ENDBRANCH   1  21
TORSDOF 10
ENDMDL