MODEL 4
REMARK VINA RESULT: -7.734763356      5.873     13.731
REMARK  9 active torsions:
REMARK  status: ('A' for Active; 'I' for Inactive)
REMARK    1  A    between atoms: C2_2  and  C3_4
REMARK    2  A    between atoms: C3_4  and  N1_5
REMARK    3  A    between atoms: C3_4  and  C27_41
REMARK       I    between atoms: N1_5  and  C4_7
REMARK    4  A    between atoms: C4_7  and  C5_9
REMARK    5  A    between atoms: C7_11  and  N2_12
REMARK       I    between atoms: N3_20  and  C15_21
REMARK    6  A    between atoms: C15_21  and  O4_23
REMARK    7  A    between atoms: O4_23  and  C16_24
REMARK       I    between atoms: N4_27  and  C19_28
REMARK       I    between atoms: C19_28  and  N5_30
REMARK    8  A    between atoms: N5_30  and  C20_32
REMARK    9  A    between atoms: N6_35  and  C23_36
ROOT
HETATM    1  C23 UNL     1      -8.411  -6.816 -13.404  1.00  0.00     0.246 C
HETATM    2  C24 UNL     1      -8.970  -5.464 -13.415  1.00  0.00     0.078 C
HETATM    3  N7  UNL     1      -9.429  -4.397 -13.440  1.00  0.00    -0.196 NA
ENDROOT
BRANCH   1   4
HETATM    4  N6  UNL     1      -6.985  -6.746 -13.568  1.00  0.00    -0.376 N
HETATM    5  C22 UNL     1      -6.060  -5.796 -13.016  1.00  0.00     0.084 C
HETATM    6  C21 UNL     1      -5.011  -5.701 -13.826  1.00  0.00     0.017 C
HETATM    7  C20 UNL     1      -5.199  -6.601 -14.967  1.00  0.00     0.128 C
HETATM    8  C25 UNL     1      -6.166  -7.646 -14.357  1.00  0.00     0.152 C
BRANCH   7   9
HETATM    9  N5  UNL     1      -3.989  -7.227 -15.454  1.00  0.00    -0.334 N
HETATM   10  C19 UNL     1      -3.873  -7.900 -16.666  1.00  0.00     0.319 C
HETATM   11  N4  UNL     1      -2.667  -8.475 -17.093  1.00  0.00    -0.332 N
HETATM   12  O5  UNL     1      -4.882  -8.006 -17.418  1.00  0.00    -0.247 OA
HETATM   13  C18 UNL     1      -1.367  -8.428 -16.403  1.00  0.00     0.130 C
HETATM   14  C26 UNL     1      -2.366  -9.261 -18.275  1.00  0.00     0.160 C
HETATM   15  C17 UNL     1      -0.401  -8.100 -17.562  1.00  0.00     0.054 C
HETATM   16  C16 UNL     1      -1.094  -8.557 -18.775  1.00  0.00     0.153 C
ATOM     17  H5  UNL     1      -3.158  -7.169 -14.865  1.00  0.00     0.165 HD
BRANCH  16  18
HETATM   18  O4  UNL     1      -0.390  -9.382 -19.650  1.00  0.00    -0.297 OA
BRANCH  18  19
HETATM   19  C15 UNL     1       0.909  -9.268 -20.078  1.00  0.00     0.363 C
HETATM   20  N3  UNL     1       1.219  -8.761 -21.396  1.00  0.00    -0.314 N
HETATM   21  C5  UNL     1       2.534  -8.477 -21.840  1.00  0.00     0.183 C
HETATM   22  C14 UNL     1       0.085  -8.601 -22.301  1.00  0.00     0.131 C
HETATM   23  C6  UNL     1       2.810  -8.500 -23.299  1.00  0.00     0.071 C
HETATM   24  C7  UNL     1       1.598  -8.492 -24.150  1.00  0.00     0.227 C
HETATM   25  C13 UNL     1       0.548  -9.387 -23.559  1.00  0.00     0.056 C
HETATM   26  O3  UNL     1       1.800  -9.623 -19.260  1.00  0.00    -0.238 OA
BRANCH  21  27
HETATM   27  C4  UNL     1       3.017  -7.158 -21.270  1.00  0.00     0.241 C
HETATM   28  N1  UNL     1       2.194  -6.035 -21.108  1.00  0.00    -0.348 N
ATOM     29  H1  UNL     1       1.215  -6.105 -21.384  1.00  0.00     0.163 HD
HETATM   30  O2  UNL     1       4.229  -7.066 -20.924  1.00  0.00    -0.271 OA
BRANCH  28  31
HETATM   31  C3  UNL     1       2.674  -4.768 -20.564  1.00  0.00     0.157 C
BRANCH  31  32
HETATM   32  C2  UNL     1       2.874  -3.788 -21.665  1.00  0.00     0.145 C
HETATM   33  C1  UNL     1       3.866  -2.707 -21.580  1.00  0.00     0.093 C
HETATM   34  O1  UNL     1       2.211  -3.858 -22.682  1.00  0.00    -0.296 OA
ENDBRANCH  31  32
BRANCH  31  35
HETATM   35  C27 UNL     1       1.688  -4.329 -19.518  1.00  0.00     0.007 C
HETATM   36  C28 UNL     1       2.067  -4.641 -18.109  1.00  0.00     0.012 C
HETATM   37  C29 UNL     1       0.361  -5.057 -19.773  1.00  0.00     0.012 C
ENDBRANCH  31  35
ENDBRANCH  28  31
ENDBRANCH  21  27
BRANCH  24  38
HETATM   38  N2  UNL     1       1.824  -8.700 -25.566  1.00  0.00     0.093 N
HETATM   39  C8  UNL     1       3.258  -8.645 -25.841  1.00  0.00     0.273 C
HETATM   40  C9  UNL     1       3.527  -9.062 -27.275  1.00  0.00     0.030 C
HETATM   41  C10 UNL     1       3.444 -10.593 -27.252  1.00  0.00     0.003 C
HETATM   42  C11 UNL     1       2.409 -11.017 -26.237  1.00  0.00     0.030 C
HETATM   43  C12 UNL     1       1.338 -10.010 -25.993  1.00  0.00     0.273 C
ENDBRANCH  24  38
ENDBRANCH  18  19
ENDBRANCH  16  18
ENDBRANCH   7   9
ENDBRANCH   1   4
TORSDOF 9
ENDMDL