MODEL 4
REMARK VINA RESULT: -8.587950742      3.347      8.299
REMARK  10 active torsions:
REMARK  status: ('A' for Active; 'I' for Inactive)
REMARK       I    between atoms: N1_5  and  C5_7
REMARK    1  A    between atoms: C5_7  and  C6_9
REMARK    2  A    between atoms: C8_11  and  C9_12
REMARK    3  A    between atoms: N4_20  and  C14_21
REMARK    4  A    between atoms: C14_21  and  C15_22
REMARK       I    between atoms: C15_22  and  N5_24
REMARK    5  A    between atoms: N5_24  and  C16_26
REMARK    6  A    between atoms: C17_29  and  C18_30
REMARK    7  A    between atoms: C18_30  and  C19_31
REMARK       I    between atoms: C19_31  and  N7_33
REMARK    8  A    between atoms: C23_38  and  N8_39
REMARK    9  A    between atoms: N8_39  and  C24_41
REMARK   10  A    between atoms: C24_41  and  C25_42
ROOT
HETATM    1  C1  UNL     1      -7.499  -3.260  -5.902  1.00  0.00     0.069 C
HETATM    2  C2  UNL     1      -7.500  -2.128  -6.883  1.00  0.00     0.026 A
HETATM    3  C3  UNL     1      -7.076  -2.340  -8.183  1.00  0.00     0.074 A
HETATM    4  C4  UNL     1      -7.111  -1.291  -9.061  1.00  0.00     0.128 A
HETATM    5  N1  UNL     1      -6.711  -1.468 -10.269  1.00  0.00    -0.307 N
ATOM      6  H1  UNL     1      -6.753  -0.665 -10.897  1.00  0.00     0.170 HD
HETATM    7  C5  UNL     1      -6.217  -2.677 -10.800  1.00  0.00     0.275 C
HETATM    8  O1  UNL     1      -5.192  -3.191 -10.306  1.00  0.00    -0.266 OA
HETATM    9  N4  UNL     1      -7.558  -0.055  -8.653  1.00  0.00    -0.160 N
HETATM   10  C23 UNL     1      -7.963   0.140  -7.393  1.00  0.00     0.682 A
HETATM   11  N9  UNL     1      -7.919  -0.918  -6.545  1.00  0.00    -0.196 N
ATOM     12  H9  UNL     1      -8.229  -0.771  -5.585  1.00  0.00     0.184 HD
ENDROOT
BRANCH   9  13
HETATM   13  C14 UNL     1      -7.593   0.943  -9.667  1.00  0.00     0.252 C
BRANCH  13  14
HETATM   14  C15 UNL     1      -6.322   1.674  -9.914  1.00  0.00     0.242 C
HETATM   15  O2  UNL     1      -5.974   2.568  -9.122  1.00  0.00    -0.271 OA
HETATM   16  N5  UNL     1      -5.591   1.311 -11.022  1.00  0.00    -0.306 N
ATOM     17  H5  UNL     1      -5.998   0.568 -11.590  1.00  0.00     0.171 HD
BRANCH  16  18
HETATM   18  C16 UNL     1      -4.470   1.774 -11.442  1.00  0.00     0.151 A
HETATM   19  N6  UNL     1      -3.675   2.740 -10.991  1.00  0.00    -0.339 N
HETATM   20  C17 UNL     1      -2.538   2.988 -11.602  1.00  0.00     0.026 A
ATOM     21  H6  UNL     1      -3.947   3.287 -10.174  1.00  0.00     0.168 HD
HETATM   22  C22 UNL     1      -2.236   2.218 -12.697  1.00  0.00     0.078 A
HETATM   23  S1  UNL     1      -3.565   1.184 -12.807  1.00  0.00    -0.064 SA
BRANCH  20  24
HETATM   24  C18 UNL     1      -1.564   4.087 -11.167  1.00  0.00     0.160 C
BRANCH  24  25
HETATM   25  C19 UNL     1      -2.240   4.959 -10.155  1.00  0.00     0.224 C
HETATM   26  O3  UNL     1      -3.265   5.605 -10.519  1.00  0.00    -0.273 OA
HETATM   27  N7  UNL     1      -1.724   5.031  -8.847  1.00  0.00    -0.361 N
HETATM   28  C20 UNL     1      -0.585   4.257  -8.477  1.00  0.00     0.152 C
HETATM   29  C21 UNL     1      -2.362   5.906  -7.896  1.00  0.00     0.152 C
ENDBRANCH  24  25
ENDBRANCH  20  24
ENDBRANCH  16  18
ENDBRANCH  13  14
ENDBRANCH   9  13
BRANCH  10  30
HETATM   30  N8  UNL     1      -8.356   1.306  -7.021  1.00  0.00    -0.225 N
ATOM     31  H8  UNL     1      -8.067   2.116  -7.571  1.00  0.00     0.177 HD
BRANCH  30  32
HETATM   32  C24 UNL     1      -9.190   1.524  -5.857  1.00  0.00     0.142 C
BRANCH  32  33
HETATM   33  C25 UNL     1     -10.337   2.465  -6.118  1.00  0.00    -0.004 C
HETATM   34  C26 UNL     1     -10.008   3.423  -7.258  1.00  0.00     0.011 C
HETATM   35  C27 UNL     1     -10.529   3.327  -4.888  1.00  0.00     0.011 C
ENDBRANCH  32  33
ENDBRANCH  30  32
ENDBRANCH  10  30
BRANCH   7  36
HETATM   36  C6  UNL     1      -6.914  -3.313 -11.922  1.00  0.00     0.120 A
HETATM   37  C7  UNL     1      -7.148  -4.669 -12.085  1.00  0.00     0.064 A
HETATM   38  C8  UNL     1      -7.820  -4.837 -13.270  1.00  0.00     0.036 A
HETATM   39  N2  UNL     1      -7.983  -3.605 -13.801  1.00  0.00    -0.302 N
HETATM   40  N3  UNL     1      -7.446  -2.713 -12.996  1.00  0.00    -0.291 N
ATOM     41  H2  UNL     1      -8.449  -3.399 -14.685  1.00  0.00     0.186 HD
HETATM   42  C13 UNL     1      -7.402  -1.267 -13.197  1.00  0.00     0.178 C
BRANCH  38  43
HETATM   43  C9  UNL     1      -8.278  -6.134 -13.847  1.00  0.00    -0.007 C
HETATM   44  C10 UNL     1      -8.938  -6.928 -12.748  1.00  0.00     0.021 C
HETATM   45  C11 UNL     1      -7.154  -6.934 -14.455  1.00  0.00     0.021 C
HETATM   46  C12 UNL     1      -9.329  -5.828 -14.914  1.00  0.00     0.021 C
ENDBRANCH  38  43
ENDBRANCH   7  36
TORSDOF 10
ENDMDL