MODEL 5
REMARK VINA RESULT: -4.851326509      4.043      7.401
REMARK  4 active torsions:
REMARK  status: ('A' for Active; 'I' for Inactive)
REMARK    1  A    between atoms: N1_2  and  C2_5
REMARK    2  A    between atoms: C2_5  and  C3_6
REMARK    3  A    between atoms: C3_6  and  N2_7
REMARK    4  A    between atoms: N2_7  and  C4_9
ROOT
HETATM    1  C4  UNL     1      -5.872 -29.619   5.573  1.00  0.00     0.136 C
HETATM    2  N3  UNL     1      -5.201 -28.869   4.772  1.00  0.00    -0.367 N
ATOM      3  H3  UNL     1      -5.703 -28.586   3.930  1.00  0.00     0.162 HD
HETATM    4  C5  UNL     1      -3.847 -28.358   4.870  1.00  0.00     0.079 C
HETATM    5  C6  UNL     1      -3.090 -28.714   3.637  1.00  0.00     0.032 C
HETATM    6  C7  UNL     1      -3.164 -28.746   6.162  1.00  0.00     0.025 C
HETATM    7  C8  UNL     1      -2.700 -30.176   6.169  1.00  0.00     0.013 C
HETATM    8  C9  UNL     1      -3.700 -31.106   6.806  1.00  0.00     0.082 C
HETATM    9  S1  UNL     1      -5.290 -30.274   7.119  1.00  0.00    -0.095 SA
ENDROOT
BRANCH   1  10
HETATM   10  N2  UNL     1      -7.185 -29.955   5.209  1.00  0.00    -0.369 N
ATOM     11  H2  UNL     1      -7.358 -30.811   4.683  1.00  0.00     0.161 HD
BRANCH  10  12
HETATM   12  C3  UNL     1      -8.289 -29.110   5.568  1.00  0.00     0.149 C
BRANCH  12  13
HETATM   13  C2  UNL     1      -8.974 -29.775   6.762  1.00  0.00     0.251 C
BRANCH  13  14
HETATM   14  N1  UNL     1     -10.349 -29.406   6.763  1.00  0.00    -0.077 N
HETATM   15  C1  UNL     1     -10.720 -28.767   8.033  1.00  0.00     0.267 C
ATOM     16  H12 UNL     1     -10.952 -30.201   6.551  1.00  0.00     0.276 HD
ATOM     17  H11 UNL     1     -10.581 -28.818   5.963  1.00  0.00     0.276 HD
ENDBRANCH  13  14
ENDBRANCH  12  13
ENDBRANCH  10  12
ENDBRANCH   1  10
TORSDOF 4
ENDMDL