MODEL 4
REMARK VINA RESULT: -5.914157100      4.387      6.539
REMARK  3 active torsions:
REMARK  status: ('A' for Active; 'I' for Inactive)
REMARK    1  A    between atoms: C2_6  and  C3_7
REMARK    2  A    between atoms: C3_7  and  N3_8
REMARK    3  A    between atoms: N3_8  and  C4_11
ROOT
HETATM    1  N3  UNL     1     -10.006 -32.455   8.032  1.00  0.00    -0.063 N
ATOM      2  H31 UNL     1     -10.646 -33.093   7.559  1.00  0.00     0.278 HD
ATOM      3  H32 UNL     1      -9.182 -32.630   7.458  1.00  0.00     0.278 HD
ENDROOT
BRANCH   1   4
HETATM    4  C3  UNL     1      -9.800 -32.806   9.420  1.00  0.00     0.318 C
BRANCH   4   5
HETATM    5  C2  UNL     1     -11.053 -32.775  10.200  1.00  0.00     0.165 A
HETATM    6  N2  UNL     1     -11.211 -32.099  11.349  1.00  0.00    -0.281 N
HETATM    7  N1  UNL     1     -12.442 -32.268  11.803  1.00  0.00    -0.288 N
ATOM      8  H2  UNL     1     -10.491 -31.539  11.804  1.00  0.00     0.189 HD
HETATM    9  C1  UNL     1     -13.060 -33.066  10.918  1.00  0.00     0.251 A
ATOM     10  H1  UNL     1     -12.841 -31.872  12.655  1.00  0.00     0.188 HD
HETATM   11  O1  UNL     1     -12.203 -33.348   9.976  1.00  0.00    -0.289 OA
ENDBRANCH   4   5
ENDBRANCH   1   4
BRANCH   1  12
HETATM   12  C4  UNL     1     -10.438 -31.107   7.964  1.00  0.00     0.191 C
HETATM   13  C5  UNL     1     -10.887 -30.696   6.557  1.00  0.00     0.038 C
HETATM   14  C6  UNL     1     -10.438 -29.269   6.403  1.00  0.00    -0.012 C
HETATM   15  C7  UNL     1      -8.994 -29.297   5.949  1.00  0.00     0.005 C
HETATM   16  C10 UNL     1     -10.197 -28.824   7.856  1.00  0.00     0.011 C
HETATM   17  C8  UNL     1      -8.372 -30.081   7.093  1.00  0.00     0.007 C
HETATM   18  C9  UNL     1      -9.374 -30.075   8.221  1.00  0.00     0.016 C
ENDBRANCH   1  12
TORSDOF 3
ENDMDL