MODEL 3
REMARK VINA RESULT: -5.398241301      2.021      7.398
REMARK  3 active torsions:
REMARK  status: ('A' for Active; 'I' for Inactive)
REMARK    1  A    between atoms: N1_2  and  C3_4
REMARK    2  A    between atoms: C4_5  and  C5_6
REMARK    3  A    between atoms: N2_7  and  N3_9
ROOT
HETATM    1  N3  UNL     1      -4.288 -29.636   5.936  1.00  0.00    -0.328 N
HETATM    2  C6  UNL     1      -3.969 -28.421   5.213  1.00  0.00     0.148 C
HETATM    3  C7  UNL     1      -3.020 -28.826   4.103  1.00  0.00     0.073 C
HETATM    4  C8  UNL     1      -1.807 -29.386   4.763  1.00  0.00    -0.017 C
HETATM    5  N4  UNL     1      -0.695 -29.294   4.136  1.00  0.00    -0.405 N
ATOM      6  H41 UNL     1       0.136 -29.678   4.587  1.00  0.00     0.155 HD
ATOM      7  H42 UNL     1      -0.652 -28.850   3.219  1.00  0.00     0.155 HD
HETATM    8  C9  UNL     1      -1.869 -30.025   6.082  1.00  0.00     0.073 C
HETATM    9  C10 UNL     1      -3.253 -30.480   6.467  1.00  0.00     0.148 C
ENDROOT
BRANCH   1  10
HETATM   10  N2  UNL     1      -5.614 -29.972   6.107  1.00  0.00    -0.314 N
HETATM   11  C5  UNL     1      -6.541 -29.442   5.405  1.00  0.00     0.108 C
ATOM     12  H2  UNL     1      -5.861 -30.664   6.815  1.00  0.00     0.185 HD
BRANCH  11  13
HETATM   13  C4  UNL     1      -7.911 -29.817   5.610  1.00  0.00     0.035 C
HETATM   14  C3  UNL     1      -8.362 -30.017   6.828  1.00  0.00     0.086 C
BRANCH  14  15
HETATM   15  N1  UNL     1      -9.711 -30.389   7.079  1.00  0.00    -0.398 N
HETATM   16  C1  UNL     1     -10.748 -29.715   6.327  1.00  0.00     0.148 C
HETATM   17  C2  UNL     1      -9.991 -31.414   8.062  1.00  0.00     0.148 C
ENDBRANCH  14  15
ENDBRANCH  11  13
ENDBRANCH   1  10
TORSDOF 3
ENDMDL