MODEL 3
REMARK VINA RESULT: -6.019679058      3.658      6.261
REMARK  4 active torsions:
REMARK  status: ('A' for Active; 'I' for Inactive)
REMARK    1  A    between atoms: N1_1  and  C1_4
REMARK    2  A    between atoms: N3_8  and  C3_9
REMARK    3  A    between atoms: C3_9  and  C4_10
REMARK    4  A    between atoms: C4_10  and  C5_11
ROOT
HETATM    1  C1  UNL     1     -10.568 -28.945   8.195  1.00  0.00     0.691 A
HETATM    2  N2  UNL     1     -11.301 -29.127   7.082  1.00  0.00    -0.185 N
ATOM      3  H2  UNL     1     -12.313 -29.021   7.011  1.00  0.00     0.185 HD
HETATM    4  C2  UNL     1     -10.471 -29.473   6.074  1.00  0.00     0.218 A
HETATM    5  N3  UNL     1      -9.211 -29.508   6.556  1.00  0.00    -0.273 N
HETATM    6  N4  UNL     1      -9.296 -29.188   7.830  1.00  0.00    -0.129 N
ATOM      7  H4  UNL     1      -8.497 -29.131   8.463  1.00  0.00     0.206 HD
ENDROOT
BRANCH   5   8
HETATM    8  C3  UNL     1      -8.007 -29.833   5.819  1.00  0.00     0.153 C
BRANCH   8   9
HETATM    9  C4  UNL     1      -6.907 -30.282   6.759  1.00  0.00     0.053 C
BRANCH   9  10
HETATM   10  C5  UNL     1      -5.577 -30.340   6.048  1.00  0.00     0.123 C
HETATM   11  C6  UNL     1      -5.507 -29.163   5.090  1.00  0.00     0.032 C
HETATM   12  C7  UNL     1      -4.188 -28.431   5.217  1.00  0.00     0.004 C
HETATM   13  C8  UNL     1      -3.035 -29.355   5.464  1.00  0.00     0.026 C
HETATM   14  C9  UNL     1      -3.315 -30.437   6.453  1.00  0.00     0.168 C
HETATM   15  O1  UNL     1      -4.570 -30.247   6.999  1.00  0.00    -0.386 OA
ENDBRANCH   9  10
ENDBRANCH   8   9
ENDBRANCH   5   8
BRANCH   1  16
HETATM   16  N1  UNL     1     -11.009 -28.602   9.381  1.00  0.00    -0.233 N
ATOM     17  H12 UNL     1     -11.789 -27.982   9.600  1.00  0.00     0.174 HD
ATOM     18  H11 UNL     1     -10.639 -28.903  10.283  1.00  0.00     0.174 HD
ENDBRANCH   1  16
TORSDOF 4
ENDMDL