MODEL 2
REMARK VINA RESULT: -5.413621468      1.863      3.423
REMARK  5 active torsions:
REMARK  status: ('A' for Active; 'I' for Inactive)
REMARK    1  A    between atoms: N1_2  and  N2_4
REMARK    2  A    between atoms: N2_4  and  C2_6
REMARK    3  A    between atoms: C6_12  and  N4_13
REMARK    4  A    between atoms: N4_13  and  C7_15
REMARK    5  A    between atoms: C7_15  and  C8_16
ROOT
HETATM    1  C2  UNL     1     -11.350 -33.191   9.490  1.00  0.00     0.068 C
HETATM    2  C3  UNL     1     -11.970 -33.367  10.852  1.00  0.00     0.064 C
HETATM    3  C4  UNL     1     -11.264 -32.415  11.788  1.00  0.00     0.026 C
HETATM    4  C5  UNL     1     -11.515 -31.009  11.238  1.00  0.00     0.121 C
HETATM    5  N3  UNL     1     -10.816 -30.895   9.969  1.00  0.00    -0.375 N
ATOM      6  H3  UNL     1     -10.379 -30.012   9.709  1.00  0.00     0.161 HD
HETATM    7  C6  UNL     1     -10.743 -31.922   9.157  1.00  0.00     0.121 C
ENDROOT
BRANCH   7   8
HETATM    8  N4  UNL     1     -10.035 -31.697   7.960  1.00  0.00    -0.374 N
ATOM      9  H4  UNL     1      -9.329 -32.376   7.673  1.00  0.00     0.161 HD
BRANCH   8  10
HETATM   10  C7  UNL     1     -10.266 -30.552   7.130  1.00  0.00     0.126 C
BRANCH  10  11
HETATM   11  C8  UNL     1      -9.123 -29.587   7.041  1.00  0.00     0.003 A
HETATM   12  C9  UNL     1      -8.850 -29.128   5.605  1.00  0.00     0.007 A
HETATM   13  C10 UNL     1      -7.852 -29.926   6.356  1.00  0.00     0.007 A
ENDBRANCH  10  11
ENDBRANCH   8  10
ENDBRANCH   7   8
BRANCH   1  14
HETATM   14  N2  UNL     1     -11.413 -34.203   8.715  1.00  0.00    -0.306 N
ATOM     15  H2  UNL     1     -10.637 -34.861   8.777  1.00  0.00     0.186 HD
BRANCH  14  16
HETATM   16  N1  UNL     1     -12.396 -34.517   7.808  1.00  0.00    -0.341 N
HETATM   17  C1  UNL     1     -12.116 -34.372   6.393  1.00  0.00     0.167 C
ATOM     18  H1  UNL     1     -13.307 -34.846   8.124  1.00  0.00     0.179 HD
ENDBRANCH  14  16
ENDBRANCH   1  14
TORSDOF 5
ENDMDL