MODEL 3
REMARK VINA RESULT: -5.580612326      3.747      5.456
REMARK  4 active torsions:
REMARK  status: ('A' for Active; 'I' for Inactive)
REMARK    1  A    between atoms: N1_2  and  N2_3
REMARK    2  A    between atoms: N1_2  and  C3_9
REMARK    3  A    between atoms: C3_9  and  O1_10
REMARK    4  A    between atoms: C3_9  and  C4_12
ROOT
HETATM    1  N2  UNL     1     -11.060 -32.634   8.723  1.00  0.00    -0.234 N
ATOM      2  H2  UNL     1     -12.054 -32.443   8.842  1.00  0.00     0.209 HD
HETATM    3  N3  UNL     1     -10.654 -33.348   7.765  1.00  0.00    -0.222 N
ATOM      4  H3  UNL     1      -9.651 -33.516   7.682  1.00  0.00     0.201 HD
HETATM    5  C2  UNL     1     -11.496 -33.921   6.812  1.00  0.00     0.199 C
HETATM    6  N4  UNL     1     -12.191 -34.387   6.013  1.00  0.00    -0.170 NA
ENDROOT
BRANCH   1   7
HETATM    7  N1  UNL     1     -10.136 -32.115   9.608  1.00  0.00    -0.288 N
HETATM    8  C1  UNL     1     -10.442 -32.073  11.017  1.00  0.00     0.175 C
BRANCH   7   9
HETATM    9  C3  UNL     1      -8.885 -31.606   9.152  1.00  0.00     0.240 C
BRANCH   9  10
HETATM   10  O1  UNL     1      -8.039 -31.577  10.288  1.00  0.00    -0.375 OA
ATOM     11  H1  UNL     1      -7.286 -31.053  10.040  1.00  0.00     0.212 HD
ENDBRANCH   9  10
BRANCH   9  12
HETATM   12  C4  UNL     1      -8.940 -30.221   8.521  1.00  0.00     0.036 C
HETATM   13  C5  UNL     1     -10.306 -29.674   8.666  1.00  0.00     0.009 C
HETATM   14  C6  UNL     1     -10.919 -28.965   7.523  1.00  0.00     0.001 C
HETATM   15  C7  UNL     1     -10.476 -29.340   6.155  1.00  0.00     0.000 C
HETATM   16  C8  UNL     1      -8.941 -29.310   6.162  1.00  0.00     0.001 C
HETATM   17  C9  UNL     1      -8.544 -30.412   7.090  1.00  0.00     0.009 C
ENDBRANCH   9  12
ENDBRANCH   7   9
ENDBRANCH   1   7
TORSDOF 4
ENDMDL