MODEL 2
REMARK VINA RESULT: -6.077517794      4.102      5.455
REMARK  3 active torsions:
REMARK  status: ('A' for Active; 'I' for Inactive)
REMARK    1  A    between atoms: C4_6  and  C5_7
REMARK    2  A    between atoms: C5_7  and  C6_8
REMARK    3  A    between atoms: C6_8  and  C7_9
ROOT
HETATM    1  C6  UNL     1      -4.332 -32.049   9.341  1.00  0.00     0.081 C
ENDROOT
BRANCH   1   2
HETATM    2  C5  UNL     1      -3.876 -31.844   7.914  1.00  0.00     0.032 C
BRANCH   2   3
HETATM    3  C4  UNL     1      -4.267 -30.470   7.419  1.00  0.00     0.077 C
HETATM    4  N1  UNL     1      -5.684 -30.378   7.367  1.00  0.00    -0.417 N
HETATM    5  C3  UNL     1      -6.262 -30.587   6.070  1.00  0.00     0.114 C
ATOM      6  H1  UNL     1      -6.249 -30.178   8.191  1.00  0.00     0.153 HD
HETATM    7  C2  UNL     1      -6.372 -29.348   5.240  1.00  0.00     0.019 C
HETATM    8  C1  UNL     1      -5.062 -28.921   4.627  1.00  0.00     0.002 C
HETATM    9  C9  UNL     1      -4.070 -28.722   5.739  1.00  0.00     0.002 C
HETATM   10  C8  UNL     1      -3.573 -30.107   6.136  1.00  0.00     0.024 C
ENDBRANCH   2   3
ENDBRANCH   1   2
BRANCH   1  11
HETATM   11  C7  UNL     1      -4.446 -33.476   9.657  1.00  0.00     0.113 A
HETATM   12  N2  UNL     1      -3.922 -34.569   9.070  1.00  0.00    -0.272 N
HETATM   13  N3  UNL     1      -4.337 -35.640   9.754  1.00  0.00    -0.227 N
ATOM     14  H2  UNL     1      -3.316 -34.578   8.250  1.00  0.00     0.190 HD
HETATM   15  N4  UNL     1      -5.104 -35.252  10.752  1.00  0.00    -0.227 N
ATOM     16  H3  UNL     1      -4.097 -36.607   9.537  1.00  0.00     0.210 HD
HETATM   17  N5  UNL     1      -5.177 -33.957  10.705  1.00  0.00    -0.272 N
ATOM     18  H4  UNL     1      -5.557 -35.858  11.435  1.00  0.00     0.210 HD
ATOM     19  H5  UNL     1      -5.706 -33.380  11.359  1.00  0.00     0.190 HD
ENDBRANCH   1  11
TORSDOF 3
ENDMDL