MODEL 1
REMARK VINA RESULT: -6.239741412      0.000      0.000
REMARK  4 active torsions:
REMARK  status: ('A' for Active; 'I' for Inactive)
REMARK    1  A    between atoms: N1_2  and  C2_3
REMARK    2  A    between atoms: N1_2  and  C5_14
REMARK    3  A    between atoms: C2_3  and  C3_4
REMARK    4  A    between atoms: C4_10  and  N4_11
ROOT
HETATM    1  C3  UNL     1     -11.017 -32.109   9.957  1.00  0.00     0.112 A
HETATM    2  N2  UNL     1     -10.573 -30.876   9.520  1.00  0.00    -0.237 N
ATOM      3  H2  UNL     1      -9.979 -30.719   8.705  1.00  0.00     0.197 HD
HETATM    4  O1  UNL     1     -11.022 -29.956  10.297  1.00  0.00    -0.155 OA
HETATM    5  N3  UNL     1     -11.747 -30.442  11.242  1.00  0.00    -0.224 N
ATOM      6  H3  UNL     1     -12.217 -29.919  11.982  1.00  0.00     0.198 HD
HETATM    7  C4  UNL     1     -11.764 -31.783  11.061  1.00  0.00     0.151 A
ENDROOT
BRANCH   1   8
HETATM    8  C2  UNL     1     -10.737 -33.342   9.248  1.00  0.00     0.095 C
BRANCH   8   9
HETATM    9  N1  UNL     1     -11.848 -34.078   8.737  1.00  0.00    -0.290 NA
HETATM   10  C1  UNL     1     -11.930 -34.046   7.301  1.00  0.00     0.116 C
BRANCH   9  11
HETATM   11  C5  UNL     1     -11.960 -35.401   9.225  1.00  0.00     0.062 C
HETATM   12  C6  UNL     1     -10.793 -35.844  10.060  1.00  0.00     0.020 C
HETATM   13  C7  UNL     1     -10.360 -37.262   9.774  1.00  0.00     0.002 C
HETATM   14  C8  UNL     1     -11.566 -38.187   9.677  1.00  0.00     0.000 C
HETATM   15  C9  UNL     1     -12.588 -37.681   8.678  1.00  0.00     0.002 C
HETATM   16  C10 UNL     1     -12.049 -36.403   8.072  1.00  0.00     0.020 C
ENDBRANCH   9  11
ENDBRANCH   8   9
ENDBRANCH   1   8
BRANCH   7  17
HETATM   17  N4  UNL     1     -12.366 -32.596  11.841  1.00  0.00    -0.382 N
ATOM     18  H42 UNL     1     -13.000 -33.326  11.517  1.00  0.00     0.157 HD
ATOM     19  H41 UNL     1     -12.321 -32.608  12.860  1.00  0.00     0.157 HD
ENDBRANCH   7  17
TORSDOF 4
ENDMDL