MODEL 1
REMARK VINA RESULT: -7.617468302      0.000      0.000
REMARK  8 active torsions:
REMARK  status: ('A' for Active; 'I' for Inactive)
REMARK    1  A    between atoms: N1_1  and  C1_4
REMARK    2  A    between atoms: N3_8  and  C3_10
REMARK    3  A    between atoms: C3_10  and  C4_11
REMARK    4  A    between atoms: C4_11  and  C5_12
REMARK    5  A    between atoms: C5_12  and  C6_13
REMARK    6  A    between atoms: C6_13  and  C7_14
REMARK    7  A    between atoms: C7_14  and  C8_15
REMARK    8  A    between atoms: C8_15  and  N4_16
ROOT
HETATM    1  C1  UNL     1     -34.326  19.234  38.109  1.00  0.00     0.157 A
HETATM    2  N2  UNL     1     -33.211  19.362  37.323  1.00  0.00    -0.173 N
ATOM      3  H2  UNL     1     -32.513  18.619  37.284  1.00  0.00     0.186 HD
HETATM    4  C2  UNL     1     -33.061  20.475  36.612  1.00  0.00     0.694 A
HETATM    5  N3  UNL     1     -32.055  20.660  35.865  1.00  0.00    -0.225 N
ATOM      6  H3  UNL     1     -31.989  21.534  35.343  1.00  0.00     0.177 HD
HETATM    7  N5  UNL     1     -33.987  21.446  36.671  1.00  0.00    -0.131 N
ATOM      8  H5  UNL     1     -33.850  22.291  36.116  1.00  0.00     0.205 HD
HETATM    9  N6  UNL     1     -35.075  21.346  37.426  1.00  0.00    -0.270 N
ATOM     10  H6  UNL     1     -35.758  22.103  37.448  1.00  0.00     0.189 HD
HETATM   11  C9  UNL     1     -35.269  20.232  38.164  1.00  0.00     0.175 A
HETATM   12  N7  UNL     1     -36.418  20.063  38.995  1.00  0.00    -0.077 NA
ENDROOT
BRANCH   5  13
HETATM   13  C3  UNL     1     -31.005  19.694  35.724  1.00  0.00     0.138 C
BRANCH  13  14
HETATM   14  C4  UNL     1     -29.880  20.330  34.934  1.00  0.00     0.020 C
BRANCH  14  15
HETATM   15  C5  UNL     1     -28.590  20.054  35.678  1.00  0.00     0.002 C
BRANCH  15  16
HETATM   16  C6  UNL     1     -28.693  18.660  36.258  1.00  0.00     0.002 C
BRANCH  16  17
HETATM   17  C7  UNL     1     -27.628  18.419  37.308  1.00  0.00     0.027 C
BRANCH  17  18
HETATM   18  C8  UNL     1     -27.267  19.758  37.915  1.00  0.00     0.229 C
BRANCH  18  19
HETATM   19  N4  UNL     1     -27.052  19.661  39.329  1.00  0.00    -0.079 N
ATOM     20  H43 UNL     1     -27.121  20.574  39.778  1.00  0.00     0.274 HD
ATOM     21  H42 UNL     1     -27.832  19.195  39.792  1.00  0.00     0.274 HD
ATOM     22  H41 UNL     1     -26.166  19.206  39.547  1.00  0.00     0.274 HD
ENDBRANCH  18  19
ENDBRANCH  17  18
ENDBRANCH  16  17
ENDBRANCH  15  16
ENDBRANCH  14  15
ENDBRANCH  13  14
ENDBRANCH   5  13
BRANCH   1  23
HETATM   23  N1  UNL     1     -34.470  18.151  38.799  1.00  0.00    -0.382 N
ATOM     24  H12 UNL     1     -33.958  17.305  38.552  1.00  0.00     0.157 HD
ATOM     25  H11 UNL     1     -35.108  18.165  39.595  1.00  0.00     0.157 HD
ENDBRANCH   1  23
TORSDOF 8
ENDMDL