MODEL 5
REMARK VINA RESULT: -6.910362018      1.016      1.933
REMARK  8 active torsions:
REMARK  status: ('A' for Active; 'I' for Inactive)
REMARK    1  A    between atoms: N1_1  and  C1_4
REMARK    2  A    between atoms: N5_14  and  C5_15
REMARK    3  A    between atoms: C5_15  and  C6_16
REMARK    4  A    between atoms: C6_16  and  N6_17
REMARK    5  A    between atoms: N6_17  and  C7_19
REMARK    6  A    between atoms: C7_19  and  C8_20
REMARK    7  A    between atoms: C8_20  and  C9_21
REMARK    8  A    between atoms: C9_21  and  N7_22
ROOT
HETATM    1  C1  UNL     1     -31.547  20.545  35.138  1.00  0.00     0.132 A
HETATM    2  N2  UNL     1     -31.583  21.429  34.134  1.00  0.00    -0.337 N
ATOM      3  H2  UNL     1     -32.481  21.771  33.791  1.00  0.00     0.168 HD
HETATM    4  C2  UNL     1     -30.449  21.865  33.579  1.00  0.00     0.183 A
HETATM    5  N3  UNL     1     -29.282  21.399  34.051  1.00  0.00    -0.335 N
ATOM      6  H3  UNL     1     -28.420  21.736  33.623  1.00  0.00     0.168 HD
HETATM    7  C3  UNL     1     -29.189  20.513  35.055  1.00  0.00     0.155 A
HETATM    8  C4  UNL     1     -30.354  20.043  35.649  1.00  0.00     0.138 A
HETATM    9  N4  UNL     1     -29.644  19.276  36.490  1.00  0.00    -0.290 N
ATOM     10  H4  UNL     1     -29.867  18.626  37.243  1.00  0.00     0.187 HD
HETATM   11  N5  UNL     1     -28.540  19.716  35.931  1.00  0.00    -0.272 N
ENDROOT
BRANCH  11  12
HETATM   12  C5  UNL     1     -27.105  19.462  36.129  1.00  0.00     0.170 C
BRANCH  12  13
HETATM   13  C6  UNL     1     -26.712  18.348  35.179  1.00  0.00     0.135 C
BRANCH  13  14
HETATM   14  N6  UNL     1     -26.296  17.147  35.793  1.00  0.00    -0.419 N
ATOM     15  H6  UNL     1     -25.305  16.922  35.876  1.00  0.00     0.153 HD
BRANCH  14  16
HETATM   16  C7  UNL     1     -27.283  16.261  36.292  1.00  0.00     0.115 C
BRANCH  16  17
HETATM   17  C8  UNL     1     -28.446  16.042  35.346  1.00  0.00     0.046 C
BRANCH  17  18
HETATM   18  C9  UNL     1     -28.488  14.560  34.968  1.00  0.00     0.231 C
BRANCH  18  19
HETATM   19  N7  UNL     1     -29.836  14.052  35.038  1.00  0.00    -0.079 N
ATOM     20  H73 UNL     1     -30.486  14.753  35.396  1.00  0.00     0.274 HD
ATOM     21  H72 UNL     1     -30.242  13.926  34.111  1.00  0.00     0.274 HD
ATOM     22  H71 UNL     1     -29.870  13.192  35.585  1.00  0.00     0.274 HD
ENDBRANCH  18  19
ENDBRANCH  17  18
ENDBRANCH  16  17
ENDBRANCH  14  16
ENDBRANCH  13  14
ENDBRANCH  12  13
ENDBRANCH  11  12
BRANCH   1  23
HETATM   23  N1  UNL     1     -32.622  20.080  35.715  1.00  0.00    -0.383 N
ATOM     24  H12 UNL     1     -32.554  19.991  36.729  1.00  0.00     0.157 HD
ATOM     25  H11 UNL     1     -33.463  19.822  35.198  1.00  0.00     0.157 HD
ENDBRANCH   1  23
TORSDOF 8
ENDMDL