MODEL 2
REMARK VINA RESULT: -7.445394343      2.452      3.940
REMARK  7 active torsions:
REMARK  status: ('A' for Active; 'I' for Inactive)
REMARK    1  A    between atoms: N1_1  and  N2_4
REMARK    2  A    between atoms: N2_4  and  C1_6
REMARK    3  A    between atoms: C1_6  and  C2_7
REMARK    4  A    between atoms: C4_9  and  C5_10
REMARK    5  A    between atoms: C5_10  and  O1_11
REMARK    6  A    between atoms: C6_16  and  C7_17
REMARK    7  A    between atoms: C8_18  and  C9_19
ROOT
HETATM    1  C2  UNL     1     -28.806  16.956  34.429  1.00  0.00     0.041 C
HETATM    2  C3  UNL     1     -27.613  17.309  35.291  1.00  0.00     0.044 C
HETATM    3  C4  UNL     1     -27.074  18.507  34.533  1.00  0.00     0.210 C
HETATM    4  N3  UNL     1     -28.273  19.265  34.304  1.00  0.00    -0.061 N
ATOM      5  H31 UNL     1     -28.190  19.918  33.525  1.00  0.00     0.278 HD
ATOM      6  H32 UNL     1     -28.456  19.953  35.033  1.00  0.00     0.278 HD
HETATM    7  C6  UNL     1     -29.354  18.313  34.136  1.00  0.00     0.215 C
ENDROOT
BRANCH   7   8
HETATM    8  C7  UNL     1     -30.441  18.739  35.037  1.00  0.00     0.008 C
HETATM    9  C8  UNL     1     -31.076  19.868  34.764  1.00  0.00     0.029 C
BRANCH   9  10
HETATM   10  C9  UNL     1     -32.171  20.330  35.643  1.00  0.00     0.048 A
HETATM   11  C10 UNL     1     -32.989  21.415  35.465  1.00  0.00     0.118 A
HETATM   12  N4  UNL     1     -33.859  21.495  36.486  1.00  0.00    -0.360 N
HETATM   13  C11 UNL     1     -33.589  20.465  37.301  1.00  0.00     0.180 A
ATOM     14  H4  UNL     1     -34.583  22.201  36.615  1.00  0.00     0.166 HD
HETATM   15  N5  UNL     1     -32.563  19.751  36.794  1.00  0.00    -0.351 N
ATOM     16  H5  UNL     1     -32.154  18.915  37.211  1.00  0.00     0.166 HD
ENDBRANCH   9  10
ENDBRANCH   7   8
BRANCH   1  17
HETATM   17  C1  UNL     1     -29.755  16.011  35.070  1.00  0.00     0.145 C
BRANCH  17  18
HETATM   18  N2  UNL     1     -29.158  14.714  35.150  1.00  0.00    -0.342 N
ATOM     19  H2  UNL     1     -28.197  14.574  35.461  1.00  0.00     0.179 HD
BRANCH  18  20
HETATM   20  N1  UNL     1     -29.969  13.668  34.777  1.00  0.00    -0.349 N
ATOM     21  H12 UNL     1     -30.703  13.787  34.079  1.00  0.00     0.176 HD
ATOM     22  H11 UNL     1     -29.783  12.781  35.245  1.00  0.00     0.176 HD
ENDBRANCH  18  20
ENDBRANCH  17  18
ENDBRANCH   1  17
BRANCH   3  23
HETATM   23  C5  UNL     1     -26.059  19.268  35.356  1.00  0.00     0.197 C
BRANCH  23  24
HETATM   24  O1  UNL     1     -25.570  18.495  36.406  1.00  0.00    -0.399 OA
ATOM     25  H1  UNL     1     -25.959  18.747  37.235  1.00  0.00     0.209 HD
ENDBRANCH  23  24
ENDBRANCH   3  23
TORSDOF 7
ENDMDL