MODEL 2
REMARK VINA RESULT: -7.066513807      0.853      1.073
REMARK  8 active torsions:
REMARK  status: ('A' for Active; 'I' for Inactive)
REMARK    1  A    between atoms: C2_2  and  C3_3
REMARK    2  A    between atoms: C3_3  and  N1_4
REMARK    3  A    between atoms: N1_4  and  C4_7
REMARK    4  A    between atoms: C4_7  and  C5_8
REMARK    5  A    between atoms: C7_12  and  N3_13
REMARK    6  A    between atoms: N3_13  and  C8_15
REMARK    7  A    between atoms: C8_15  and  C9_16
REMARK    8  A    between atoms: C9_16  and  N4_17
ROOT
HETATM    1  C5  UNL     1     -30.383  20.443  35.208  1.00  0.00     0.097 C
HETATM    2  C6  UNL     1     -31.226  21.458  34.472  1.00  0.00     0.152 C
HETATM    3  N2  UNL     1     -32.373  21.793  35.268  1.00  0.00    -0.225 N
ATOM      4  H2  UNL     1     -32.745  22.736  35.149  1.00  0.00     0.177 HD
HETATM    5  C7  UNL     1     -32.984  21.043  36.110  1.00  0.00     0.675 C
HETATM    6  N5  UNL     1     -32.453  19.714  36.299  1.00  0.00    -0.181 N
ATOM      7  H5  UNL     1     -32.890  19.065  36.953  1.00  0.00     0.185 HD
HETATM    8  C10 UNL     1     -31.306  19.330  35.551  1.00  0.00     0.098 C
HETATM    9  N6  UNL     1     -31.096  18.113  35.210  1.00  0.00    -0.388 N
ATOM     10  H61 UNL     1     -31.730  17.350  35.446  1.00  0.00     0.157 HD
ATOM     11  H62 UNL     1     -30.273  17.838  34.674  1.00  0.00     0.157 HD
ENDROOT
BRANCH   5  12
HETATM   12  N3  UNL     1     -34.116  21.479  36.847  1.00  0.00    -0.225 N
ATOM     13  H3  UNL     1     -34.518  22.397  36.659  1.00  0.00     0.177 HD
BRANCH  12  14
HETATM   14  C8  UNL     1     -34.701  20.640  37.853  1.00  0.00     0.165 C
BRANCH  14  15
HETATM   15  C9  UNL     1     -34.409  21.139  39.249  1.00  0.00     0.249 C
BRANCH  15  16
HETATM   16  N4  UNL     1     -35.243  22.247  39.622  1.00  0.00    -0.078 N
ATOM     17  H43 UNL     1     -34.690  23.006  40.020  1.00  0.00     0.274 HD
ATOM     18  H42 UNL     1     -35.609  22.725  38.799  1.00  0.00     0.274 HD
ATOM     19  H41 UNL     1     -35.996  21.972  40.253  1.00  0.00     0.274 HD
ENDBRANCH  15  16
ENDBRANCH  14  15
ENDBRANCH  12  14
ENDBRANCH   5  12
BRANCH   1  20
HETATM   20  C4  UNL     1     -29.208  19.938  34.421  1.00  0.00     0.246 C
BRANCH  20  21
HETATM   21  N1  UNL     1     -28.017  20.113  35.201  1.00  0.00    -0.074 N
ATOM     22  H12 UNL     1     -28.201  20.668  36.037  1.00  0.00     0.277 HD
ATOM     23  H11 UNL     1     -27.358  20.738  34.735  1.00  0.00     0.277 HD
BRANCH  21  24
HETATM   24  C3  UNL     1     -27.394  18.841  35.535  1.00  0.00     0.232 C
BRANCH  24  25
HETATM   25  C2  UNL     1     -27.846  18.477  36.931  1.00  0.00     0.023 C
HETATM   26  C1  UNL     1     -27.461  19.575  37.921  1.00  0.00     0.007 C
ENDBRANCH  24  25
ENDBRANCH  21  24
ENDBRANCH  20  21
ENDBRANCH   1  20
TORSDOF 8
ENDMDL