MODEL 4
REMARK VINA RESULT: -7.031376044      0.892      1.846
REMARK  8 active torsions:
REMARK  status: ('A' for Active; 'I' for Inactive)
REMARK    1  A    between atoms: N1_1  and  C1_5
REMARK    2  A    between atoms: C1_5  and  C2_6
REMARK    3  A    between atoms: C2_6  and  C3_7
REMARK    4  A    between atoms: C3_7  and  C4_8
REMARK    5  A    between atoms: C4_8  and  C5_9
REMARK    6  A    between atoms: C5_9  and  C6_10
REMARK    7  A    between atoms: C6_10  and  N2_11
REMARK    8  A    between atoms: N2_11  and  C7_13
ROOT
HETATM    1  C7  UNL     1     -33.687  20.670  37.428  1.00  0.00     0.672 C
HETATM    2  N3  UNL     1     -34.784  21.363  37.512  1.00  0.00    -0.223 N
ATOM      3  H3  UNL     1     -34.796  22.250  37.009  1.00  0.00     0.177 HD
HETATM    4  C8  UNL     1     -35.990  21.022  38.237  1.00  0.00     0.201 C
HETATM    5  C9  UNL     1     -36.101  19.612  38.658  1.00  0.00     0.409 C
HETATM    6  N4  UNL     1     -35.669  18.608  37.743  1.00  0.00     0.003 N
ATOM      7  H41 UNL     1     -35.630  18.805  36.743  1.00  0.00     0.284 HD
ATOM      8  H42 UNL     1     -36.256  17.796  37.553  1.00  0.00     0.284 HD
HETATM    9  C10 UNL     1     -34.427  18.463  38.523  1.00  0.00     0.504 C
HETATM   10  N5  UNL     1     -33.409  19.410  38.027  1.00  0.00    -0.173 N
ATOM     11  H5  UNL     1     -32.430  19.140  38.122  1.00  0.00     0.181 HD
HETATM   12  N6  UNL     1     -35.115  19.152  39.597  1.00  0.00     0.003 N
ATOM     13  H61 UNL     1     -35.402  18.643  40.433  1.00  0.00     0.284 HD
ATOM     14  H62 UNL     1     -34.614  19.821  40.182  1.00  0.00     0.284 HD
ENDROOT
BRANCH   1  15
HETATM   15  N2  UNL     1     -32.652  21.228  36.653  1.00  0.00    -0.227 N
ATOM     16  H2  UNL     1     -31.843  21.593  37.154  1.00  0.00     0.177 HD
BRANCH  15  17
HETATM   17  C6  UNL     1     -32.634  21.329  35.214  1.00  0.00     0.138 C
BRANCH  17  18
HETATM   18  C5  UNL     1     -31.277  21.223  34.621  1.00  0.00     0.020 C
BRANCH  18  19
HETATM   19  C4  UNL     1     -30.584  19.986  35.116  1.00  0.00     0.002 C
BRANCH  19  20
HETATM   20  C3  UNL     1     -29.127  20.121  35.373  1.00  0.00     0.002 C
BRANCH  20  21
HETATM   21  C2  UNL     1     -28.698  19.408  36.637  1.00  0.00     0.027 C
BRANCH  21  22
HETATM   22  C1  UNL     1     -27.320  19.794  37.073  1.00  0.00     0.229 C
BRANCH  22  23
HETATM   23  N1  UNL     1     -27.224  19.547  38.508  1.00  0.00    -0.079 N
ATOM     24  H13 UNL     1     -26.904  20.362  39.031  1.00  0.00     0.274 HD
ATOM     25  H12 UNL     1     -28.136  19.451  38.956  1.00  0.00     0.274 HD
ATOM     26  H11 UNL     1     -26.630  18.729  38.642  1.00  0.00     0.274 HD
ENDBRANCH  22  23
ENDBRANCH  21  22
ENDBRANCH  20  21
ENDBRANCH  19  20
ENDBRANCH  18  19
ENDBRANCH  17  18
ENDBRANCH  15  17
ENDBRANCH   1  15
TORSDOF 8
ENDMDL