MODEL 5
REMARK VINA RESULT: -6.809180653      2.829      4.603
REMARK  6 active torsions:
REMARK  status: ('A' for Active; 'I' for Inactive)
REMARK    1  A    between atoms: O1_2  and  C2_3
REMARK    2  A    between atoms: C2_3  and  N1_4
REMARK    3  A    between atoms: N1_4  and  C3_7
REMARK    4  A    between atoms: C3_7  and  C4_8
REMARK    5  A    between atoms: C9_13  and  N2_14
REMARK       I    between atoms: N2_14  and  C10_16
REMARK    6  A    between atoms: N4_18  and  N5_20
ROOT
HETATM    1  C4  UNL     1     -29.055  18.039  35.777  1.00  0.00    -0.006 A
HETATM    2  C5  UNL     1     -28.096  17.754  36.689  1.00  0.00     0.011 A
HETATM    3  C6  UNL     1     -27.213  18.688  37.120  1.00  0.00     0.001 A
HETATM    4  C7  UNL     1     -27.296  19.999  36.627  1.00  0.00     0.002 A
HETATM    5  C8  UNL     1     -28.276  20.301  35.706  1.00  0.00     0.030 A
HETATM    6  C9  UNL     1     -29.146  19.318  35.282  1.00  0.00     0.042 A
ENDROOT
BRANCH   6   7
HETATM    7  N2  UNL     1     -30.118  19.587  34.266  1.00  0.00    -0.329 N
HETATM    8  C10 UNL     1     -30.952  20.691  34.217  1.00  0.00     0.207 C
HETATM    9  N3  UNL     1     -32.266  20.480  34.824  1.00  0.00    -0.062 NA
HETATM   10  N4  UNL     1     -30.799  21.824  33.673  1.00  0.00    -0.280 N
ATOM     11  H4  UNL     1     -31.605  22.437  33.805  1.00  0.00     0.189 HD
ATOM     12  H2  UNL     1     -30.203  18.906  33.511  1.00  0.00     0.168 HD
BRANCH  10  13
HETATM   13  N5  UNL     1     -29.818  22.403  32.961  1.00  0.00    -0.343 N
ATOM     14  H52 UNL     1     -29.054  22.708  33.562  1.00  0.00     0.176 HD
ATOM     15  H51 UNL     1     -29.673  22.601  31.971  1.00  0.00     0.176 HD
ENDBRANCH  10  13
ENDBRANCH   6   7
BRANCH   1  16
HETATM   16  C3  UNL     1     -29.945  17.009  35.196  1.00  0.00     0.275 C
BRANCH  16  17
HETATM   17  N1  UNL     1     -28.918  15.995  34.784  1.00  0.00    -0.050 N
ATOM     18  H12 UNL     1     -28.006  16.202  35.191  1.00  0.00     0.280 HD
ATOM     19  H11 UNL     1     -28.676  16.089  33.798  1.00  0.00     0.280 HD
BRANCH  17  20
HETATM   20  C2  UNL     1     -29.336  14.679  35.093  1.00  0.00     0.399 C
BRANCH  20  21
HETATM   21  O1  UNL     1     -29.380  13.889  33.976  1.00  0.00    -0.369 OA
HETATM   22  C1  UNL     1     -28.119  13.310  33.799  1.00  0.00     0.203 C
ENDBRANCH  20  21
ENDBRANCH  17  20
ENDBRANCH  16  17
ENDBRANCH   1  16
TORSDOF 6
ENDMDL