MODEL 3
REMARK VINA RESULT: -7.274594974      3.386      6.146
REMARK  8 active torsions:
REMARK  status: ('A' for Active; 'I' for Inactive)
REMARK    1  A    between atoms: C2_2  and  N1_3
REMARK    2  A    between atoms: N1_3  and  C3_6
REMARK    3  A    between atoms: C3_6  and  C4_7
REMARK    4  A    between atoms: C4_7  and  C5_8
REMARK    5  A    between atoms: C5_8  and  C6_9
REMARK    6  A    between atoms: C6_9  and  N2_10
REMARK    7  A    between atoms: N2_10  and  C7_12
REMARK    8  A    between atoms: C9_19  and  N6_20
ROOT
HETATM    1  C7  UNL     1     -30.580  19.450  34.916  1.00  0.00     0.695 A
HETATM    2  N3  UNL     1     -31.493  20.079  35.699  1.00  0.00    -0.162 N
ATOM      3  H3  UNL     1     -31.832  19.586  36.525  1.00  0.00     0.187 HD
HETATM    4  C8  UNL     1     -31.976  21.301  35.458  1.00  0.00     0.221 A
HETATM    5  N4  UNL     1     -32.932  21.944  36.307  1.00  0.00    -0.062 NA
HETATM    6  N5  UNL     1     -31.519  21.938  34.360  1.00  0.00    -0.163 N
ATOM      7  H5  UNL     1     -31.860  22.872  34.135  1.00  0.00     0.187 HD
HETATM    8  C9  UNL     1     -30.602  21.337  33.551  1.00  0.00     0.692 A
HETATM    9  N7  UNL     1     -30.139  20.105  33.831  1.00  0.00    -0.023 N
ATOM     10  H7  UNL     1     -29.452  19.668  33.218  1.00  0.00     0.203 HD
ENDROOT
BRANCH   1  11
HETATM   11  N2  UNL     1     -30.138  18.273  35.175  1.00  0.00    -0.225 N
ATOM     12  H2  UNL     1     -30.585  17.705  35.894  1.00  0.00     0.177 HD
BRANCH  11  13
HETATM   13  C6  UNL     1     -29.014  17.764  34.448  1.00  0.00     0.138 C
BRANCH  13  14
HETATM   14  C5  UNL     1     -28.466  16.467  34.999  1.00  0.00     0.022 C
BRANCH  14  15
HETATM   15  C4  UNL     1     -27.802  16.734  36.323  1.00  0.00     0.029 C
BRANCH  15  16
HETATM   16  C3  UNL     1     -26.786  17.856  36.218  1.00  0.00     0.232 C
BRANCH  16  17
HETATM   17  N1  UNL     1     -26.714  18.652  37.420  1.00  0.00    -0.075 N
ATOM     18  H12 UNL     1     -25.754  18.896  37.667  1.00  0.00     0.277 HD
ATOM     19  H11 UNL     1     -26.945  18.115  38.256  1.00  0.00     0.277 HD
BRANCH  17  20
HETATM   20  C2  UNL     1     -27.559  19.824  37.264  1.00  0.00     0.228 C
HETATM   21  C1  UNL     1     -27.169  20.561  35.975  1.00  0.00     0.034 C
ENDBRANCH  17  20
ENDBRANCH  16  17
ENDBRANCH  15  16
ENDBRANCH  14  15
ENDBRANCH  13  14
ENDBRANCH  11  13
ENDBRANCH   1  11
BRANCH   8  22
HETATM   22  N6  UNL     1     -30.171  21.954  32.502  1.00  0.00    -0.234 N
ATOM     23  H62 UNL     1     -30.558  22.867  32.262  1.00  0.00     0.174 HD
ATOM     24  H61 UNL     1     -29.448  21.526  31.923  1.00  0.00     0.174 HD
ENDBRANCH   8  22
TORSDOF 8
ENDMDL