MODEL 5
REMARK VINA RESULT: -7.250127050      2.053      3.094
REMARK  8 active torsions:
REMARK  status: ('A' for Active; 'I' for Inactive)
REMARK    1  A    between atoms: N1_1  and  C1_5
REMARK    2  A    between atoms: C1_5  and  C2_6
REMARK    3  A    between atoms: C2_6  and  N2_7
REMARK    4  A    between atoms: N2_7  and  C3_10
REMARK    5  A    between atoms: C3_10  and  C4_11
REMARK    6  A    between atoms: C4_11  and  C5_12
REMARK    7  A    between atoms: C5_12  and  N3_13
REMARK    8  A    between atoms: N3_13  and  C6_15
ROOT
HETATM    1  N3  UNL     1     -31.920  19.792  36.976  1.00  0.00    -0.375 N
ATOM      2  H3  UNL     1     -31.214  19.752  37.710  1.00  0.00     0.161 HD
ENDROOT
BRANCH   1   3
HETATM    3  C5  UNL     1     -31.459  19.690  35.632  1.00  0.00     0.123 C
BRANCH   3   4
HETATM    4  C4  UNL     1     -30.437  18.581  35.560  1.00  0.00     0.047 C
BRANCH   4   5
HETATM    5  C3  UNL     1     -29.112  18.993  36.161  1.00  0.00     0.234 C
BRANCH   5   6
HETATM    6  N2  UNL     1     -28.385  17.809  36.577  1.00  0.00    -0.073 N
ATOM      7  H22 UNL     1     -28.197  17.170  35.804  1.00  0.00     0.277 HD
ATOM      8  H21 UNL     1     -28.952  17.178  37.142  1.00  0.00     0.277 HD
BRANCH   6   9
HETATM    9  C2  UNL     1     -27.189  18.231  37.249  1.00  0.00     0.259 C
BRANCH   9  10
HETATM   10  C1  UNL     1     -27.313  19.662  37.770  1.00  0.00     0.257 C
BRANCH  10  11
HETATM   11  N1  UNL     1     -27.086  19.707  39.192  1.00  0.00    -0.078 N
ATOM     12  H13 UNL     1     -26.337  19.074  39.476  1.00  0.00     0.274 HD
ATOM     13  H12 UNL     1     -26.658  20.587  39.479  1.00  0.00     0.274 HD
ATOM     14  H11 UNL     1     -27.950  19.523  39.701  1.00  0.00     0.274 HD
ENDBRANCH  10  11
ENDBRANCH   9  10
ENDBRANCH   6   9
ENDBRANCH   5   6
ENDBRANCH   4   5
ENDBRANCH   3   4
ENDBRANCH   1   3
BRANCH   1  15
HETATM   15  C6  UNL     1     -33.140  19.929  37.350  1.00  0.00     0.117 A
HETATM   16  C7  UNL     1     -33.894  21.045  37.162  1.00  0.00     0.138 A
HETATM   17  N4  UNL     1     -35.166  21.082  37.595  1.00  0.00    -0.347 N
HETATM   18  C8  UNL     1     -35.749  20.045  38.223  1.00  0.00     0.124 A
ATOM     19  H4  UNL     1     -35.712  21.930  37.441  1.00  0.00     0.167 HD
HETATM   20  C9  UNL     1     -34.992  18.913  38.418  1.00  0.00     0.056 A
HETATM   21  N6  UNL     1     -37.065  19.843  38.768  1.00  0.00    -0.374 N
HETATM   22  N5  UNL     1     -33.703  18.881  37.977  1.00  0.00    -0.342 N
HETATM   23  C10 UNL     1     -35.856  17.934  39.124  1.00  0.00     0.080 C
ATOM     24  H5  UNL     1     -33.150  18.037  38.125  1.00  0.00     0.167 HD
HETATM   25  C11 UNL     1     -37.245  18.397  38.745  1.00  0.00     0.127 C
ATOM     26  H6  UNL     1     -37.723  20.550  39.095  1.00  0.00     0.161 HD
ENDBRANCH   1  15
TORSDOF 8
ENDMDL