MODEL 4
REMARK VINA RESULT: -6.409604290      2.301      5.623
REMARK  9 active torsions:
REMARK  status: ('A' for Active; 'I' for Inactive)
REMARK    1  A    between atoms: C2_2  and  N1_3
REMARK    2  A    between atoms: N1_3  and  C3_5
REMARK    3  A    between atoms: C5_7  and  N2_8
REMARK    4  A    between atoms: N2_8  and  C6_11
REMARK    5  A    between atoms: C8_13  and  N3_14
REMARK    6  A    between atoms: C9_18  and  N4_19
REMARK    7  A    between atoms: N4_19  and  C10_21
REMARK    8  A    between atoms: C10_21  and  C11_22
REMARK    9  A    between atoms: C11_22  and  N5_23
ROOT
HETATM    1  C6  UNL     1     -30.384  19.711  34.664  1.00  0.00     0.213 C
HETATM    2  C7  UNL     1     -30.015  20.071  33.245  1.00  0.00     0.070 C
HETATM    3  C8  UNL     1     -30.072  21.522  33.653  1.00  0.00     0.210 C
HETATM    4  C9  UNL     1     -30.936  21.071  34.835  1.00  0.00     0.141 C
ENDROOT
BRANCH   1   5
HETATM    5  N2  UNL     1     -31.165  18.538  34.840  1.00  0.00    -0.062 N
ATOM      6  H22 UNL     1     -31.520  18.192  33.949  1.00  0.00     0.278 HD
ATOM      7  H21 UNL     1     -32.053  18.748  35.297  1.00  0.00     0.278 HD
BRANCH   5   8
HETATM    8  C5  UNL     1     -30.443  17.517  35.547  1.00  0.00     0.211 A
HETATM    9  C3  UNL     1     -29.011  17.290  35.412  1.00  0.00     0.113 A
HETATM   10  C4  UNL     1     -29.952  16.302  34.843  1.00  0.00     0.062 A
BRANCH   9  11
HETATM   11  N1  UNL     1     -28.128  17.122  36.479  1.00  0.00    -0.396 N
ATOM     12  H1  UNL     1     -28.123  16.210  36.935  1.00  0.00     0.159 HD
BRANCH  11  13
HETATM   13  C2  UNL     1     -27.261  18.074  36.975  1.00  0.00     0.051 C
HETATM   14  C1  UNL     1     -27.900  19.333  37.477  1.00  0.00     0.054 C
ENDBRANCH  11  13
ENDBRANCH   9  11
ENDBRANCH   5   8
ENDBRANCH   1   5
BRANCH   4  15
HETATM   15  N4  UNL     1     -32.287  21.313  34.623  1.00  0.00    -0.392 N
ATOM     16  H4  UNL     1     -32.711  21.120  33.716  1.00  0.00     0.159 HD
BRANCH  15  17
HETATM   17  C10 UNL     1     -33.055  21.822  35.667  1.00  0.00     0.083 C
BRANCH  17  18
HETATM   18  C11 UNL     1     -33.426  20.769  36.709  1.00  0.00     0.273 C
BRANCH  18  19
HETATM   19  N5  UNL     1     -34.649  21.049  37.381  1.00  0.00    -0.075 N
ATOM     20  H53 UNL     1     -35.403  21.204  36.712  1.00  0.00     0.274 HD
ATOM     21  H52 UNL     1     -35.006  20.215  37.847  1.00  0.00     0.274 HD
ATOM     22  H51 UNL     1     -34.579  21.829  38.036  1.00  0.00     0.274 HD
ENDBRANCH  18  19
ENDBRANCH  17  18
ENDBRANCH  15  17
ENDBRANCH   4  15
BRANCH   3  23
HETATM   23  N3  UNL     1     -30.807  22.364  32.713  1.00  0.00    -0.073 N
ATOM     24  H33 UNL     1     -30.351  22.369  31.801  1.00  0.00     0.274 HD
ATOM     25  H32 UNL     1     -31.693  21.930  32.458  1.00  0.00     0.274 HD
ATOM     26  H31 UNL     1     -30.953  23.315  33.049  1.00  0.00     0.274 HD
ENDBRANCH   3  23
TORSDOF 9
ENDMDL