MODEL 2
REMARK VINA RESULT: -7.373739229      1.184      2.781
REMARK  10 active torsions:
REMARK  status: ('A' for Active; 'I' for Inactive)
REMARK    1  A    between atoms: C3_5  and  N2_6
REMARK    2  A    between atoms: C4_11  and  C5_12
REMARK    3  A    between atoms: C5_12  and  C6_13
REMARK    4  A    between atoms: C6_13  and  C7_14
REMARK    5  A    between atoms: C7_14  and  C8_15
REMARK    6  A    between atoms: C8_15  and  C9_16
REMARK    7  A    between atoms: C9_16  and  C10_17
REMARK    8  A    between atoms: C10_17  and  N4_18
REMARK    9  A    between atoms: N5_22  and  N6_23
REMARK   10  A    between atoms: N6_23  and  N7_25
ROOT
HETATM    1  C1  UNL     1     -30.154  22.098  33.137  1.00  0.00     0.092 C
HETATM    2  C2  UNL     1     -30.601  21.220  34.268  1.00  0.00     0.118 A
HETATM    3  N1  UNL     1     -31.896  21.238  34.627  1.00  0.00    -0.179 N
ATOM      4  H1  UNL     1     -32.573  21.828  34.143  1.00  0.00     0.185 HD
HETATM    5  C3  UNL     1     -32.262  20.449  35.645  1.00  0.00     0.678 A
HETATM    6  N3  UNL     1     -31.384  19.668  36.291  1.00  0.00    -0.179 N
ATOM      7  H3  UNL     1     -31.705  19.084  37.063  1.00  0.00     0.185 HD
HETATM    8  C4  UNL     1     -30.067  19.644  35.931  1.00  0.00     0.122 A
HETATM    9  N5  UNL     1     -29.692  20.431  34.915  1.00  0.00    -0.217 N
ENDROOT
BRANCH   8  10
HETATM   10  C5  UNL     1     -29.118  18.811  36.665  1.00  0.00     0.079 C
BRANCH  10  11
HETATM   11  C6  UNL     1     -28.911  17.427  36.096  1.00  0.00     0.007 C
BRANCH  11  12
HETATM   12  C7  UNL     1     -27.527  16.938  36.455  1.00  0.00     0.000 C
BRANCH  12  13
HETATM   13  C8  UNL     1     -27.058  15.762  35.680  1.00  0.00     0.002 C
BRANCH  13  14
HETATM   14  C9  UNL     1     -27.903  15.537  34.449  1.00  0.00     0.027 C
BRANCH  14  15
HETATM   15  C10 UNL     1     -28.453  14.106  34.429  1.00  0.00     0.229 C
BRANCH  15  16
HETATM   16  N4  UNL     1     -29.758  14.030  35.018  1.00  0.00    -0.079 N
ATOM     17  H43 UNL     1     -29.706  14.023  36.036  1.00  0.00     0.274 HD
ATOM     18  H42 UNL     1     -30.274  14.900  34.890  1.00  0.00     0.274 HD
ATOM     19  H41 UNL     1     -30.285  13.231  34.667  1.00  0.00     0.274 HD
ENDBRANCH  15  16
ENDBRANCH  14  15
ENDBRANCH  13  14
ENDBRANCH  12  13
ENDBRANCH  11  12
ENDBRANCH  10  11
ENDBRANCH   8  10
BRANCH   9  20
HETATM   20  N6  UNL     1     -28.343  20.449  34.553  1.00  0.00    -0.240 N
ATOM     21  H6  UNL     1     -28.014  19.895  33.763  1.00  0.00     0.208 HD
BRANCH  20  22
HETATM   22  N7  UNL     1     -27.455  21.232  35.281  1.00  0.00    -0.330 N
ATOM     23  H72 UNL     1     -26.572  21.514  34.856  1.00  0.00     0.178 HD
ATOM     24  H71 UNL     1     -27.700  21.512  36.231  1.00  0.00     0.178 HD
ENDBRANCH  20  22
ENDBRANCH   9  20
BRANCH   5  25
HETATM   25  N2  UNL     1     -33.504  20.422  36.039  1.00  0.00    -0.234 N
ATOM     26  H22 UNL     1     -33.767  21.018  36.824  1.00  0.00     0.174 HD
ATOM     27  H21 UNL     1     -34.179  19.820  35.567  1.00  0.00     0.174 HD
ENDBRANCH   5  25
TORSDOF 10
ENDMDL