MODEL 5
REMARK VINA RESULT: -7.252975079      1.788      4.864
REMARK  7 active torsions:
REMARK  status: ('A' for Active; 'I' for Inactive)
REMARK    1  A    between atoms: O1_1  and  C1_3
REMARK    2  A    between atoms: C1_3  and  O2_4
REMARK    3  A    between atoms: O2_4  and  C2_5
REMARK    4  A    between atoms: C2_5  and  C3_6
REMARK    5  A    between atoms: C3_6  and  O3_7
REMARK    6  A    between atoms: C3_6  and  C4_9
REMARK    7  A    between atoms: C3_6  and  C10_15
ROOT
HETATM    1  C3  UNL     1     -26.895 -18.789  10.489  1.00  0.00     0.133 C
ENDROOT
BRANCH   1   2
HETATM    2  C2  UNL     1     -27.821 -19.919  10.817  1.00  0.00     0.218 C
BRANCH   2   3
HETATM    3  O2  UNL     1     -27.765 -20.997   9.975  1.00  0.00    -0.364 OA
BRANCH   3   4
HETATM    4  C1  UNL     1     -28.877 -20.938   9.134  1.00  0.00     0.334 C
BRANCH   4   5
HETATM    5  O1  UNL     1     -28.498 -20.498   7.866  1.00  0.00    -0.377 OA
ATOM      6  H1  UNL     1     -27.699 -20.934   7.593  1.00  0.00     0.212 HD
ENDBRANCH   4   5
ENDBRANCH   3   4
ENDBRANCH   2   3
ENDBRANCH   1   2
BRANCH   1   7
HETATM    7  O3  UNL     1     -26.040 -19.271   9.468  1.00  0.00    -0.378 OA
ATOM      8  H3  UNL     1     -25.556 -18.515   9.155  1.00  0.00     0.211 HD
ENDBRANCH   1   7
BRANCH   1   9
HETATM    9  C4  UNL     1     -26.035 -18.429  11.674  1.00  0.00    -0.017 A
HETATM   10  C5  UNL     1     -25.119 -19.326  12.181  1.00  0.00     0.011 A
HETATM   11  C6  UNL     1     -24.337 -18.966  13.275  1.00  0.00     0.001 A
HETATM   12  C7  UNL     1     -24.466 -17.726  13.861  1.00  0.00     0.000 A
HETATM   13  C8  UNL     1     -25.380 -16.815  13.365  1.00  0.00     0.001 A
HETATM   14  C9  UNL     1     -26.142 -17.197  12.280  1.00  0.00     0.011 A
ENDBRANCH   1   9
BRANCH   1  15
HETATM   15  C10 UNL     1     -27.541 -17.597   9.926  1.00  0.00    -0.017 A
HETATM   16  C11 UNL     1     -26.819 -16.700   9.192  1.00  0.00     0.011 A
HETATM   17  C12 UNL     1     -27.425 -15.558   8.644  1.00  0.00     0.001 A
HETATM   18  C13 UNL     1     -28.755 -15.339   8.849  1.00  0.00     0.000 A
HETATM   19  C14 UNL     1     -29.481 -16.250   9.594  1.00  0.00     0.001 A
HETATM   20  C15 UNL     1     -28.879 -17.391  10.141  1.00  0.00     0.011 A
ENDBRANCH   1  15
TORSDOF 7
ENDMDL