MODEL 5
REMARK VINA RESULT: -6.967737488      3.423      7.406
REMARK  6 active torsions:
REMARK  status: ('A' for Active; 'I' for Inactive)
REMARK    1  A    between atoms: N1_2  and  C2_4
REMARK    2  A    between atoms: C4_6  and  C5_7
REMARK    3  A    between atoms: C5_7  and  N2_8
REMARK    4  A    between atoms: N2_8  and  C6_11
REMARK    5  A    between atoms: C6_11  and  C7_12
REMARK    6  A    between atoms: C10_15  and  O1_16
ROOT
HETATM    1  N2  UNL     1     -26.658 -18.583   8.689  1.00  0.00    -0.066 N
ATOM      2  H21 UNL     1     -25.646 -18.497   8.597  1.00  0.00     0.277 HD
ATOM      3  H22 UNL     1     -26.720 -19.575   8.920  1.00  0.00     0.277 HD
ENDROOT
BRANCH   1   4
HETATM    4  C5  UNL     1     -27.308 -18.307   7.447  1.00  0.00     0.291 C
BRANCH   4   5
HETATM    5  C4  UNL     1     -28.668 -18.892   7.448  1.00  0.00     0.055 A
HETATM    6  C3  UNL     1     -29.101 -20.169   7.733  1.00  0.00     0.077 A
HETATM    7  C2  UNL     1     -30.472 -20.215   7.592  1.00  0.00     0.117 A
HETATM    8  N4  UNL     1     -30.852 -18.986   7.227  1.00  0.00    -0.286 N
HETATM    9  N3  UNL     1     -29.787 -18.218   7.146  1.00  0.00    -0.302 N
ATOM     10  H4  UNL     1     -31.812 -18.692   7.041  1.00  0.00     0.188 HD
ATOM     11  H3  UNL     1     -29.810 -17.231   6.885  1.00  0.00     0.186 HD
BRANCH   7  12
HETATM   12  N1  UNL     1     -31.253 -21.254   7.776  1.00  0.00    -0.380 N
HETATM   13  C1  UNL     1     -30.627 -22.560   7.895  1.00  0.00     0.147 C
ATOM     14  H1  UNL     1     -32.265 -21.147   7.834  1.00  0.00     0.160 HD
ENDBRANCH   7  12
ENDBRANCH   4   5
ENDBRANCH   1   4
BRANCH   1  15
HETATM   15  C6  UNL     1     -27.150 -17.767   9.775  1.00  0.00     0.271 C
BRANCH  15  16
HETATM   16  C7  UNL     1     -26.395 -17.950  11.017  1.00  0.00    -0.033 A
HETATM   17  C8  UNL     1     -26.321 -16.996  11.990  1.00  0.00     0.011 A
HETATM   18  C9  UNL     1     -25.597 -17.185  13.169  1.00  0.00     0.037 A
HETATM   19  C10 UNL     1     -24.929 -18.371  13.373  1.00  0.00     0.068 A
HETATM   20  C12 UNL     1     -24.998 -19.341  12.395  1.00  0.00     0.037 A
HETATM   21  C13 UNL     1     -25.712 -19.146  11.239  1.00  0.00     0.011 A
BRANCH  19  22
HETATM   22  O1  UNL     1     -24.195 -18.593  14.541  1.00  0.00    -0.356 OA
HETATM   23  C11 UNL     1     -23.917 -19.878  15.018  1.00  0.00     0.210 C
ENDBRANCH  19  22
ENDBRANCH  15  16
ENDBRANCH   1  15
TORSDOF 6
ENDMDL