MODEL 1
REMARK VINA RESULT: -6.650291694      0.000      0.000
REMARK  9 active torsions:
REMARK  status: ('A' for Active; 'I' for Inactive)
REMARK    1  A    between atoms: C2_2  and  C4_4
REMARK    2  A    between atoms: C6_8  and  N2_9
REMARK    3  A    between atoms: C7_14  and  C8_15
REMARK    4  A    between atoms: C9_16  and  C10_17
REMARK    5  A    between atoms: C10_17  and  C11_18
REMARK    6  A    between atoms: C11_18  and  O1_19
REMARK    7  A    between atoms: C11_18  and  C12_21
REMARK    8  A    between atoms: C12_21  and  N4_22
REMARK    9  A    between atoms: N4_22  and  N5_23
ROOT
HETATM    1  C4  UNL     1     -29.083 -19.626   8.549  1.00  0.00    -0.011 A
HETATM    2  C5  UNL     1     -29.908 -19.014   7.614  1.00  0.00     0.116 A
HETATM    3  N1  UNL     1     -29.775 -17.697   7.392  1.00  0.00    -0.202 N
ATOM      4  H1  UNL     1     -30.395 -17.275   6.700  1.00  0.00     0.183 HD
HETATM    5  C6  UNL     1     -28.903 -16.896   7.998  1.00  0.00     0.676 A
HETATM    6  N3  UNL     1     -28.099 -17.480   8.902  1.00  0.00    -0.192 N
ATOM      7  H3  UNL     1     -27.410 -16.911   9.394  1.00  0.00     0.184 HD
HETATM    8  C7  UNL     1     -28.181 -18.819   9.181  1.00  0.00     0.057 A
ENDROOT
BRANCH   8   9
HETATM    9  C8  UNL     1     -27.307 -19.356  10.226  1.00  0.00     0.027 C
HETATM   10  C9  UNL     1     -26.443 -18.492  10.772  1.00  0.00    -0.022 C
BRANCH  10  11
HETATM   11  C10 UNL     1     -25.538 -18.978  11.840  1.00  0.00     0.065 C
BRANCH  11  12
HETATM   12  C11 UNL     1     -25.126 -17.839  12.772  1.00  0.00     0.175 C
BRANCH  12  13
HETATM   13  O1  UNL     1     -26.325 -17.333  13.312  1.00  0.00    -0.389 OA
ATOM     14  H1  UNL     1     -26.336 -17.611  14.221  1.00  0.00     0.210 HD
ENDBRANCH  12  13
BRANCH  12  15
HETATM   15  C12 UNL     1     -24.299 -18.310  13.891  1.00  0.00     0.212 C
BRANCH  15  16
HETATM   16  N4  UNL     1     -23.914 -19.494  13.982  1.00  0.00    -0.347 NA
BRANCH  16  17
HETATM   17  N5  UNL     1     -23.747 -20.695  14.244  1.00  0.00    -0.281 N
ATOM     18  H52 UNL     1     -24.133 -20.972  13.342  1.00  0.00     0.191 HD
ATOM     19  H51 UNL     1     -23.527 -21.600  14.658  1.00  0.00     0.191 HD
ENDBRANCH  16  17
ENDBRANCH  15  16
ENDBRANCH  12  15
ENDBRANCH  11  12
ENDBRANCH  10  11
ENDBRANCH   8   9
BRANCH   1  20
HETATM   20  C2  UNL     1     -29.090 -21.086   8.756  1.00  0.00     0.014 C
HETATM   21  C1  UNL     1     -30.404 -21.645   9.260  1.00  0.00     0.015 C
HETATM   22  C3  UNL     1     -29.045 -21.685   7.290  1.00  0.00     0.015 C
ENDBRANCH   1  20
BRANCH   5  23
HETATM   23  N2  UNL     1     -28.798 -15.619   7.743  1.00  0.00    -0.234 N
ATOM     24  H22 UNL     1     -28.447 -15.298   6.841  1.00  0.00     0.174 HD
ATOM     25  H21 UNL     1     -29.062 -14.889   8.405  1.00  0.00     0.174 HD
ENDBRANCH   5  23
TORSDOF 9
ENDMDL