MODEL 5
REMARK VINA RESULT: -6.032762686      1.465      1.574
REMARK  7 active torsions:
REMARK  status: ('A' for Active; 'I' for Inactive)
REMARK    1  A    between atoms: N1_2  and  C2_5
REMARK    2  A    between atoms: C2_5  and  C3_6
REMARK    3  A    between atoms: C3_6  and  N2_8
REMARK    4  A    between atoms: N2_8  and  C5_10
REMARK    5  A    between atoms: C5_10  and  N3_12
REMARK    6  A    between atoms: N3_12  and  C6_14
REMARK    7  A    between atoms: C6_14  and  C7_15
ROOT
HETATM    1  C5  UNL     1     -28.601 -16.679   9.530  1.00  0.00     0.168 C
HETATM    2  S1  UNL     1     -29.009 -15.255   8.875  1.00  0.00    -0.041 SA
ENDROOT
BRANCH   1   3
HETATM    3  N2  UNL     1     -29.327 -17.843   9.182  1.00  0.00    -0.361 N
ATOM      4  H2  UNL     1     -29.810 -18.380   9.903  1.00  0.00     0.162 HD
BRANCH   3   5
HETATM    5  C3  UNL     1     -29.380 -18.263   7.812  1.00  0.00     0.105 C
HETATM    6  C4  UNL     1     -28.011 -18.242   7.152  1.00  0.00     0.034 C
BRANCH   5   7
HETATM    7  C2  UNL     1     -29.876 -19.682   7.722  1.00  0.00     0.256 C
BRANCH   7   8
HETATM    8  N1  UNL     1     -28.674 -20.521   7.671  1.00  0.00    -0.077 N
HETATM    9  C1  UNL     1     -29.104 -21.827   7.226  1.00  0.00     0.267 C
ATOM     10  H12 UNL     1     -28.159 -20.543   8.552  1.00  0.00     0.276 HD
ATOM     11  H11 UNL     1     -27.928 -20.124   7.099  1.00  0.00     0.276 HD
ENDBRANCH   7   8
ENDBRANCH   5   7
ENDBRANCH   3   5
ENDBRANCH   1   3
BRANCH   1  12
HETATM   12  N3  UNL     1     -27.498 -16.731  10.427  1.00  0.00    -0.363 N
ATOM     13  H3  UNL     1     -27.165 -15.890  10.898  1.00  0.00     0.162 HD
BRANCH  12  14
HETATM   14  C6  UNL     1     -26.872 -17.986  10.650  1.00  0.00     0.160 C
BRANCH  14  15
HETATM   15  C7  UNL     1     -25.967 -18.079  11.798  1.00  0.00    -0.038 A
HETATM   16  C8  UNL     1     -25.732 -17.077  12.704  1.00  0.00     0.025 A
HETATM   17  C9  UNL     1     -24.842 -17.284  13.767  1.00  0.00     0.088 A
HETATM   18  N4  UNL     1     -24.197 -18.436  13.942  1.00  0.00    -0.375 N
HETATM   19  C10 UNL     1     -24.410 -19.435  13.067  1.00  0.00     0.088 A
ATOM     20  H4  UNL     1     -23.554 -18.558  14.724  1.00  0.00     0.164 HD
HETATM   21  C11 UNL     1     -25.277 -19.271  12.010  1.00  0.00     0.025 A
ENDBRANCH  14  15
ENDBRANCH  12  14
ENDBRANCH   1  12
TORSDOF 7
ENDMDL