MODEL 2
REMARK VINA RESULT: -6.856451936      0.177      1.122
REMARK  6 active torsions:
REMARK  status: ('A' for Active; 'I' for Inactive)
REMARK    1  A    between atoms: O1_2  and  C2_3
REMARK    2  A    between atoms: C5_6  and  C6_7
REMARK    3  A    between atoms: C6_7  and  C7_8
REMARK    4  A    between atoms: C7_8  and  N1_9
REMARK    5  A    between atoms: N1_9  and  C8_11
REMARK    6  A    between atoms: C11_16  and  N3_17
ROOT
HETATM    1  N1  UNL     1     -28.650 -17.409   7.651  1.00  0.00    -0.376 N
ATOM      2  H1  UNL     1     -29.009 -16.568   7.199  1.00  0.00     0.161 HD
ENDROOT
BRANCH   1   3
HETATM    3  C7  UNL     1     -27.469 -17.286   8.445  1.00  0.00     0.126 C
BRANCH   3   4
HETATM    4  C6  UNL     1     -27.789 -16.978   9.895  1.00  0.00     0.058 C
BRANCH   4   5
HETATM    5  C5  UNL     1     -26.798 -17.615  10.799  1.00  0.00    -0.057 A
HETATM    6  C4  UNL     1     -26.394 -16.966  11.944  1.00  0.00     0.010 A
HETATM    7  C3  UNL     1     -25.470 -17.516  12.824  1.00  0.00     0.037 A
HETATM    8  C2  UNL     1     -24.923 -18.756  12.564  1.00  0.00     0.068 A
HETATM    9  C13 UNL     1     -25.331 -19.400  11.417  1.00  0.00     0.037 A
HETATM   10  C12 UNL     1     -26.251 -18.854  10.541  1.00  0.00     0.010 A
BRANCH   8  11
HETATM   11  O1  UNL     1     -23.998 -19.374  13.387  1.00  0.00    -0.356 OA
HETATM   12  C1  UNL     1     -24.155 -19.561  14.761  1.00  0.00     0.210 C
ENDBRANCH   8  11
ENDBRANCH   4   5
ENDBRANCH   3   4
ENDBRANCH   1   3
BRANCH   1  13
HETATM   13  C8  UNL     1     -29.295 -18.512   7.467  1.00  0.00     0.118 A
HETATM   14  C9  UNL     1     -28.672 -19.713   7.734  1.00  0.00     0.066 A
HETATM   15  C10 UNL     1     -29.359 -20.918   7.540  1.00  0.00     0.110 A
HETATM   16  N2  UNL     1     -30.605 -20.840   7.098  1.00  0.00    -0.202 N
HETATM   17  C11 UNL     1     -31.238 -19.689   6.830  1.00  0.00     0.677 A
ATOM     18  H2  UNL     1     -31.116 -21.711   6.953  1.00  0.00     0.183 HD
HETATM   19  N4  UNL     1     -30.561 -18.535   7.022  1.00  0.00    -0.177 N
ATOM     20  H4  UNL     1     -31.029 -17.650   6.822  1.00  0.00     0.185 HD
BRANCH  17  21
HETATM   21  N3  UNL     1     -32.461 -19.700   6.399  1.00  0.00    -0.234 N
ATOM     22  H32 UNL     1     -33.243 -19.940   7.008  1.00  0.00     0.174 HD
ATOM     23  H31 UNL     1     -32.666 -19.463   5.429  1.00  0.00     0.174 HD
ENDBRANCH  17  21
ENDBRANCH   1  13
TORSDOF 6
ENDMDL