MODEL 2
REMARK VINA RESULT: -7.377951525      1.793      3.516
REMARK  4 active torsions:
REMARK  status: ('A' for Active; 'I' for Inactive)
REMARK       I    between atoms: C1_4  and  N3_6
REMARK    1  A    between atoms: N3_6  and  C2_8
REMARK    2  A    between atoms: C2_8  and  C3_9
REMARK    3  A    between atoms: C3_9  and  C4_10
REMARK    4  A    between atoms: C3_9  and  N5_17
ROOT
HETATM    1  C3  UNL     1     -26.601 -18.863  10.760  1.00  0.00     0.152 C
ENDROOT
BRANCH   1   2
HETATM    2  C2  UNL     1     -27.458 -20.038  10.996  1.00  0.00     0.093 C
BRANCH   2   3
HETATM    3  N3  UNL     1     -27.828 -20.919   9.984  1.00  0.00    -0.342 N
HETATM    4  C1  UNL     1     -28.802 -20.537   9.000  1.00  0.00     0.185 C
HETATM    5  N1  UNL     1     -30.059 -20.527   9.212  1.00  0.00    -0.374 N
HETATM    6  N2  UNL     1     -28.355 -20.158   7.717  1.00  0.00    -0.064 NA
ATOM      7  H12 UNL     1     -30.751 -20.256   8.513  1.00  0.00     0.158 HD
ATOM      8  H11 UNL     1     -30.383 -20.801  10.140  1.00  0.00     0.158 HD
ATOM      9  H3  UNL     1     -27.402 -21.844   9.940  1.00  0.00     0.167 HD
ENDBRANCH   2   3
ENDBRANCH   1   2
BRANCH   1  10
HETATM   10  C4  UNL     1     -25.691 -18.696  11.938  1.00  0.00    -0.015 A
HETATM   11  C5  UNL     1     -25.636 -17.484  12.638  1.00  0.00     0.012 A
HETATM   12  C6  UNL     1     -24.771 -17.367  13.707  1.00  0.00     0.018 A
HETATM   13  C7  UNL     1     -23.967 -18.436  14.076  1.00  0.00     0.087 A
HETATM   14  N4  UNL     1     -24.050 -19.581  13.377  1.00  0.00    -0.375 N
HETATM   15  C8  UNL     1     -24.888 -19.727  12.332  1.00  0.00     0.097 A
ATOM     16  H4  UNL     1     -23.459 -20.367  13.648  1.00  0.00     0.164 HD
ENDBRANCH   1  10
BRANCH   1  17
HETATM   17  N5  UNL     1     -27.137 -17.619  10.381  1.00  0.00    -0.400 N
HETATM   18  C9  UNL     1     -28.524 -17.394  10.649  1.00  0.00     0.118 C
HETATM   19  C10 UNL     1     -29.361 -16.938   9.482  1.00  0.00     0.019 C
HETATM   20  C11 UNL     1     -28.741 -15.914   8.601  1.00  0.00     0.003 C
HETATM   21  C12 UNL     1     -27.270 -15.774   8.799  1.00  0.00     0.019 C
HETATM   22  C13 UNL     1     -26.737 -17.169   9.080  1.00  0.00     0.118 C
ENDBRANCH   1  17
TORSDOF 4
ENDMDL