MODEL 3
REMARK VINA RESULT: -6.929675648      1.589      2.772
REMARK  5 active torsions:
REMARK  status: ('A' for Active; 'I' for Inactive)
REMARK       I    between atoms: C2_4  and  N2_5
REMARK       I    between atoms: C2_4  and  N4_9
REMARK    1  A    between atoms: N4_9  and  C4_11
REMARK    2  A    between atoms: C4_11  and  C6_13
REMARK    3  A    between atoms: C6_13  and  N5_14
REMARK    4  A    between atoms: N5_14  and  C7_16
REMARK    5  A    between atoms: C7_16  and  C8_17
ROOT
HETATM    1  C1  UNL     1     -28.881 -16.677   8.115  1.00  0.00     0.165 C
HETATM    2  N1  UNL     1     -29.782 -17.567   7.417  1.00  0.00    -0.230 N
ATOM      3  H1  UNL     1     -30.077 -17.320   6.473  1.00  0.00     0.177 HD
HETATM    4  C2  UNL     1     -30.228 -18.659   7.935  1.00  0.00     0.682 C
HETATM    5  N2  UNL     1     -31.105 -19.449   7.157  1.00  0.00    -0.126 N
ATOM      6  H2  UNL     1     -30.707 -20.199   6.591  1.00  0.00     0.197 HD
HETATM    7  C3  UNL     1     -32.494 -19.256   7.121  1.00  0.00     0.196 C
HETATM    8  N3  UNL     1     -33.637 -19.088   7.102  1.00  0.00    -0.171 NA
HETATM    9  N4  UNL     1     -29.815 -18.996   9.243  1.00  0.00    -0.220 N
ATOM     10  H4  UNL     1     -29.733 -18.241   9.923  1.00  0.00     0.178 HD
ENDROOT
BRANCH   9  11
HETATM   11  C4  UNL     1     -29.505 -20.325   9.681  1.00  0.00     0.112 C
HETATM   12  C5  UNL     1     -28.899 -21.084   8.494  1.00  0.00     0.034 C
BRANCH  11  13
HETATM   13  C6  UNL     1     -28.450 -20.345  10.760  1.00  0.00     0.139 C
BRANCH  13  14
HETATM   14  N5  UNL     1     -27.138 -20.042  10.315  1.00  0.00    -0.415 N
ATOM     15  H5  UNL     1     -26.516 -20.755   9.934  1.00  0.00     0.153 HD
BRANCH  14  16
HETATM   16  C7  UNL     1     -26.747 -18.678  10.436  1.00  0.00     0.152 C
BRANCH  16  17
HETATM   17  C8  UNL     1     -25.945 -18.441  11.637  1.00  0.00    -0.041 A
HETATM   18  C9  UNL     1     -25.976 -17.255  12.363  1.00  0.00     0.009 A
HETATM   19  C10 UNL     1     -25.194 -17.094  13.492  1.00  0.00     0.001 A
HETATM   20  C11 UNL     1     -24.361 -18.095  13.935  1.00  0.00     0.000 A
HETATM   21  C12 UNL     1     -24.324 -19.274  13.223  1.00  0.00     0.001 A
HETATM   22  C13 UNL     1     -25.104 -19.425  12.104  1.00  0.00     0.009 A
ENDBRANCH  16  17
ENDBRANCH  14  16
ENDBRANCH  13  14
ENDBRANCH  11  13
ENDBRANCH   9  11
TORSDOF 5
ENDMDL