MODEL 1
REMARK VINA RESULT: -6.990098706      0.000      0.000
REMARK  5 active torsions:
REMARK  status: ('A' for Active; 'I' for Inactive)
REMARK    1  A    between atoms: N1_2  and  C3_4
REMARK    2  A    between atoms: C3_4  and  C4_5
REMARK    3  A    between atoms: C4_5  and  O1_6
REMARK    4  A    between atoms: C4_5  and  C5_8
REMARK    5  A    between atoms: C4_5  and  C11_14
ROOT
HETATM    1  C4  UNL     1     -27.624 -18.852  10.711  1.00  0.00     0.159 C
ENDROOT
BRANCH   1   2
HETATM    2  C3  UNL     1     -28.897 -19.109  11.472  1.00  0.00     0.106 C
BRANCH   2   3
HETATM    3  N1  UNL     1     -29.287 -20.436  11.618  1.00  0.00    -0.398 N
HETATM    4  C1  UNL     1     -30.425 -20.871  10.883  1.00  0.00     0.148 C
HETATM    5  C2  UNL     1     -28.972 -21.149  12.777  1.00  0.00     0.148 C
ENDBRANCH   2   3
ENDBRANCH   1   2
BRANCH   1   6
HETATM    6  O1  UNL     1     -27.251 -19.983   9.991  1.00  0.00    -0.373 OA
ATOM      7  H1  UNL     1     -26.480 -20.384  10.376  1.00  0.00     0.212 HD
ENDBRANCH   1   6
BRANCH   1   8
HETATM    8  C5  UNL     1     -26.531 -18.524  11.705  1.00  0.00    -0.013 A
HETATM    9  C6  UNL     1     -26.519 -17.279  12.292  1.00  0.00     0.011 A
HETATM   10  C7  UNL     1     -25.512 -17.010  13.196  1.00  0.00     0.001 A
HETATM   11  C8  UNL     1     -24.566 -17.970  13.482  1.00  0.00     0.000 A
HETATM   12  C9  UNL     1     -24.587 -19.201  12.895  1.00  0.00     0.001 A
HETATM   13  C10 UNL     1     -25.600 -19.483  11.981  1.00  0.00     0.011 A
ENDBRANCH   1   8
BRANCH   1  14
HETATM   14  C11 UNL     1     -27.719 -17.644   9.854  1.00  0.00     0.055 A
HETATM   15  C12 UNL     1     -26.794 -17.172   8.971  1.00  0.00     0.032 A
HETATM   16  C13 UNL     1     -27.291 -16.025   8.379  1.00  0.00     0.047 A
HETATM   17  C14 UNL     1     -28.534 -15.830   8.934  1.00  0.00     0.116 A
HETATM   18  N2  UNL     1     -29.409 -14.762   8.618  1.00  0.00    -0.083 NA
HETATM   19  N3  UNL     1     -28.768 -16.824   9.824  1.00  0.00    -0.345 N
ATOM     20  H3  UNL     1     -29.614 -16.928  10.384  1.00  0.00     0.167 HD
ENDBRANCH   1  14
TORSDOF 5
ENDMDL