MODEL 2
REMARK VINA RESULT: -6.889257561      1.421      2.716
REMARK  7 active torsions:
REMARK  status: ('A' for Active; 'I' for Inactive)
REMARK    1  A    between atoms: C1_2  and  N1_3
REMARK    2  A    between atoms: N1_3  and  C2_5
REMARK    3  A    between atoms: C2_5  and  C3_6
REMARK    4  A    between atoms: C3_6  and  N2_7
REMARK    5  A    between atoms: N2_7  and  C4_10
REMARK    6  A    between atoms: C4_10  and  O2_11
REMARK    7  A    between atoms: C4_10  and  C5_13
ROOT
HETATM    1  C4  UNL     1     -26.868 -19.272  10.469  1.00  0.00     0.353 C
ENDROOT
BRANCH   1   2
HETATM    2  N2  UNL     1     -28.199 -18.620  10.449  1.00  0.00    -0.043 N
ATOM      3  H22 UNL     1     -28.121 -17.614  10.605  1.00  0.00     0.280 HD
ATOM      4  H21 UNL     1     -28.746 -18.868  11.274  1.00  0.00     0.280 HD
BRANCH   2   5
HETATM    5  C3  UNL     1     -28.925 -18.908   9.231  1.00  0.00     0.255 C
BRANCH   5   6
HETATM    6  C2  UNL     1     -29.384 -17.713   8.484  1.00  0.00     0.149 C
BRANCH   6   7
HETATM    7  N1  UNL     1     -28.340 -16.738   8.378  1.00  0.00    -0.367 N
ATOM      8  H1  UNL     1     -27.447 -17.040   7.990  1.00  0.00     0.161 HD
BRANCH   7   9
HETATM    9  C1  UNL     1     -28.461 -15.399   8.771  1.00  0.00     0.348 C
HETATM   10  O1  UNL     1     -29.332 -14.656   8.267  1.00  0.00    -0.284 OA
ENDBRANCH   7   9
ENDBRANCH   6   7
ENDBRANCH   5   6
ENDBRANCH   2   5
ENDBRANCH   1   2
BRANCH   1  11
HETATM   11  O2  UNL     1     -26.196 -18.945   9.282  1.00  0.00    -0.366 OA
ATOM     12  H2  UNL     1     -26.808 -19.018   8.559  1.00  0.00     0.212 HD
ENDBRANCH   1  11
BRANCH   1  13
HETATM   13  C5  UNL     1     -26.181 -18.616  11.611  1.00  0.00     0.008 A
HETATM   14  C6  UNL     1     -26.283 -17.226  11.762  1.00  0.00     0.012 A
HETATM   15  C7  UNL     1     -25.688 -16.566  12.797  1.00  0.00     0.002 A
HETATM   16  C8  UNL     1     -24.974 -17.285  13.707  1.00  0.00     0.012 A
HETATM   17  C9  UNL     1     -24.820 -18.664  13.634  1.00  0.00    -0.025 A
HETATM   18  C10 UNL     1     -24.087 -19.347  14.573  1.00  0.00     0.012 A
HETATM   19  C14 UNL     1     -25.450 -19.292  12.555  1.00  0.00    -0.015 A
HETATM   20  C11 UNL     1     -23.952 -20.700  14.472  1.00  0.00     0.001 A
HETATM   21  C12 UNL     1     -24.560 -21.337  13.421  1.00  0.00     0.001 A
HETATM   22  C13 UNL     1     -25.292 -20.657  12.483  1.00  0.00     0.013 A
ENDBRANCH   1  13
TORSDOF 7
ENDMDL