MODEL 5
REMARK VINA RESULT: -7.097872426      1.319      6.309
REMARK  8 active torsions:
REMARK  status: ('A' for Active; 'I' for Inactive)
REMARK    1  A    between atoms: N1_1  and  C1_5
REMARK    2  A    between atoms: C1_5  and  C2_6
REMARK    3  A    between atoms: C1_5  and  C9_13
REMARK    4  A    between atoms: C2_6  and  C3_7
REMARK    5  A    between atoms: C9_13  and  N2_14
REMARK    6  A    between atoms: C9_13  and  C10_18
REMARK    7  A    between atoms: C10_18  and  N3_19
REMARK    8  A    between atoms: C10_18  and  C11_23
ROOT
HETATM    1  C9  UNL     1     -27.178 -17.894   9.730  1.00  0.00     0.244 C
ENDROOT
BRANCH   1   2
HETATM    2  C1  UNL     1     -28.464 -18.117   9.037  1.00  0.00     0.220 C
BRANCH   2   3
HETATM    3  N1  UNL     1     -28.987 -16.916   8.409  1.00  0.00    -0.073 N
ATOM      4  H13 UNL     1     -29.016 -16.958   7.390  1.00  0.00     0.274 HD
ATOM      5  H12 UNL     1     -29.989 -16.777   8.544  1.00  0.00     0.274 HD
ATOM      6  H11 UNL     1     -28.406 -16.164   8.780  1.00  0.00     0.274 HD
ENDBRANCH   2   3
BRANCH   2   7
HETATM    7  C2  UNL     1     -28.269 -19.104   7.870  1.00  0.00     0.073 C
BRANCH   7   8
HETATM    8  C3  UNL     1     -29.114 -20.306   8.131  1.00  0.00    -0.056 A
HETATM    9  C4  UNL     1     -29.145 -21.413   7.341  1.00  0.00     0.007 A
HETATM   10  C5  UNL     1     -29.952 -22.484   7.647  1.00  0.00     0.001 A
HETATM   11  C6  UNL     1     -30.763 -22.485   8.764  1.00  0.00     0.000 A
HETATM   12  C7  UNL     1     -30.752 -21.378   9.581  1.00  0.00     0.001 A
HETATM   13  C8  UNL     1     -29.940 -20.317   9.260  1.00  0.00     0.007 A
ENDBRANCH   7   8
ENDBRANCH   2   7
ENDBRANCH   1   2
BRANCH   1  14
HETATM   14  N2  UNL     1     -26.134 -18.599   8.962  1.00  0.00    -0.071 N
ATOM     15  H23 UNL     1     -26.198 -19.614   9.042  1.00  0.00     0.274 HD
ATOM     16  H22 UNL     1     -26.272 -18.537   7.953  1.00  0.00     0.274 HD
ATOM     17  H21 UNL     1     -25.232 -18.232   9.265  1.00  0.00     0.274 HD
ENDBRANCH   1  14
BRANCH   1  18
HETATM   18  C10 UNL     1     -27.048 -18.199  11.155  1.00  0.00     0.223 C
BRANCH  18  19
HETATM   19  N3  UNL     1     -27.773 -17.145  11.902  1.00  0.00    -0.072 N
ATOM     20  H33 UNL     1     -27.563 -16.205  11.568  1.00  0.00     0.274 HD
ATOM     21  H32 UNL     1     -28.774 -17.135  11.706  1.00  0.00     0.274 HD
ATOM     22  H31 UNL     1     -27.561 -17.273  12.892  1.00  0.00     0.274 HD
ENDBRANCH  18  19
BRANCH  18  23
HETATM   23  C11 UNL     1     -25.713 -18.254  11.785  1.00  0.00     0.040 C
HETATM   24  C12 UNL     1     -25.658 -17.086  12.757  1.00  0.00    -0.024 C
HETATM   25  C13 UNL     1     -24.834 -17.388  13.754  1.00  0.00    -0.030 C
HETATM   26  C14 UNL     1     -24.285 -18.755  13.529  1.00  0.00     0.027 C
HETATM   27  C15 UNL     1     -25.469 -19.375  12.754  1.00  0.00     0.014 C
ENDBRANCH  18  23
ENDBRANCH   1  18
TORSDOF 8
ENDMDL