MODEL 3
REMARK VINA RESULT: -6.792287185      1.410      2.428
REMARK  6 active torsions:
REMARK  status: ('A' for Active; 'I' for Inactive)
REMARK    1  A    between atoms: C2_2  and  C3_3
REMARK    2  A    between atoms: C3_3  and  N1_4
REMARK    3  A    between atoms: N1_4  and  C4_6
REMARK    4  A    between atoms: C4_6  and  C5_7
REMARK    5  A    between atoms: C5_7  and  N2_8
REMARK    6  A    between atoms: N2_8  and  C6_11
ROOT
HETATM    1  C6  UNL     1      18.748  26.653  -9.953  1.00  0.00     0.240 C
HETATM    2  C7  UNL     1      19.805  26.189 -10.926  1.00  0.00     0.079 C
HETATM    3  C8  UNL     1      19.046  25.560 -12.019  1.00  0.00    -0.044 A
HETATM    4  C9  UNL     1      19.423  24.671 -13.019  1.00  0.00     0.008 A
HETATM    5  C10 UNL     1      18.497  24.233 -13.936  1.00  0.00     0.001 A
HETATM    6  C11 UNL     1      17.171  24.659 -13.893  1.00  0.00     0.001 A
HETATM    7  C12 UNL     1      16.816  25.536 -12.901  1.00  0.00     0.014 A
HETATM    8  C13 UNL     1      17.742  25.990 -11.963  1.00  0.00    -0.006 A
HETATM    9  C14 UNL     1      17.584  26.922 -10.822  1.00  0.00     0.045 C
HETATM   10  N3  UNL     1      16.603  27.735 -10.728  1.00  0.00    -0.400 N
ATOM     11  H31 UNL     1      15.799  27.920 -11.328  1.00  0.00     0.156 HD
ATOM     12  H32 UNL     1      16.495  28.376  -9.942  1.00  0.00     0.156 HD
ENDROOT
BRANCH   1  13
HETATM   13  N2  UNL     1      19.233  27.851  -9.309  1.00  0.00    -0.064 N
ATOM     14  H22 UNL     1      19.022  28.674  -9.873  1.00  0.00     0.278 HD
ATOM     15  H21 UNL     1      20.253  27.885  -9.332  1.00  0.00     0.278 HD
BRANCH  13  16
HETATM   16  C5  UNL     1      18.747  28.022  -7.957  1.00  0.00     0.252 C
BRANCH  16  17
HETATM   17  C4  UNL     1      18.088  29.377  -7.909  1.00  0.00     0.141 C
BRANCH  17  18
HETATM   18  N1  UNL     1      18.611  30.285  -6.946  1.00  0.00    -0.417 N
ATOM     19  H1  UNL     1      18.079  30.580  -6.128  1.00  0.00     0.153 HD
BRANCH  18  20
HETATM   20  C3  UNL     1      19.941  30.756  -7.212  1.00  0.00     0.140 C
BRANCH  20  21
HETATM   21  C2  UNL     1      20.055  32.157  -6.723  1.00  0.00    -0.018 C
HETATM   22  C1  UNL     1      19.352  33.165  -7.169  1.00  0.00     0.008 C
ENDBRANCH  20  21
ENDBRANCH  18  20
ENDBRANCH  17  18
ENDBRANCH  16  17
ENDBRANCH  13  16
ENDBRANCH   1  13
TORSDOF 6
ENDMDL