MODEL 5
REMARK VINA RESULT: -6.246204232      2.535      6.677
REMARK  7 active torsions:
REMARK  status: ('A' for Active; 'I' for Inactive)
REMARK    1  A    between atoms: C6_6  and  C7_7
REMARK    2  A    between atoms: C7_7  and  C8_8
REMARK    3  A    between atoms: C9_9  and  C10_10
REMARK    4  A    between atoms: C10_10  and  N1_11
REMARK    5  A    between atoms: C10_10  and  C11_15
REMARK    6  A    between atoms: C11_15  and  C12_16
REMARK    7  A    between atoms: C12_16  and  N2_17
ROOT
HETATM    1  C10 UNL     1      17.662  25.289 -12.621  1.00  0.00     0.207 C
ENDROOT
BRANCH   1   2
HETATM    2  C9  UNL     1      18.611  26.209 -11.960  1.00  0.00     0.002 C
HETATM    3  C8  UNL     1      18.247  26.953 -10.910  1.00  0.00    -0.028 C
BRANCH   3   4
HETATM    4  C7  UNL     1      16.940  26.986 -10.274  1.00  0.00     0.036 C
BRANCH   4   5
HETATM    5  C6  UNL     1      16.947  27.256  -8.779  1.00  0.00     0.017 C
HETATM    6  C2  UNL     1      16.459  28.586  -8.404  1.00  0.00    -0.085 C
HETATM    7  C1  UNL     1      15.237  29.079  -8.391  1.00  0.00     0.014 C
HETATM    8  C3  UNL     1      17.676  29.382  -7.982  1.00  0.00     0.034 C
HETATM    9  C4  UNL     1      18.533  28.301  -7.323  1.00  0.00     0.005 C
HETATM   10  C5  UNL     1      18.377  27.197  -8.330  1.00  0.00     0.009 C
ENDBRANCH   4   5
ENDBRANCH   3   4
ENDBRANCH   1   2
BRANCH   1  11
HETATM   11  N1  UNL     1      16.561  26.000 -13.249  1.00  0.00    -0.072 N
ATOM     12  H13 UNL     1      16.162  26.695 -12.619  1.00  0.00     0.275 HD
ATOM     13  H12 UNL     1      16.894  26.621 -13.986  1.00  0.00     0.275 HD
ATOM     14  H11 UNL     1      15.844  25.364 -13.599  1.00  0.00     0.275 HD
ENDBRANCH   1  11
BRANCH   1  15
HETATM   15  C11 UNL     1      18.319  24.464 -13.680  1.00  0.00     0.056 C
BRANCH  15  16
HETATM   16  C12 UNL     1      19.612  25.022 -14.175  1.00  0.00     0.122 C
BRANCH  16  17
HETATM   17  N2  UNL     1      20.678  24.095 -13.835  1.00  0.00    -0.388 N
HETATM   18  C13 UNL     1      21.834  24.565 -13.561  1.00  0.00     0.185 C
HETATM   19  N3  UNL     1      22.059  25.959 -13.592  1.00  0.00    -0.097 NA
ATOM     20  H2  UNL     1      20.507  23.089 -13.815  1.00  0.00     0.159 HD
ENDBRANCH  16  17
ENDBRANCH  15  16
ENDBRANCH   1  15
TORSDOF 7
ENDMDL