MODEL 2
REMARK VINA RESULT: -6.315938342      1.133      1.532
REMARK  7 active torsions:
REMARK  status: ('A' for Active; 'I' for Inactive)
REMARK    1  A    between atoms: C2_2  and  C3_3
REMARK    2  A    between atoms: C3_3  and  N1_4
REMARK    3  A    between atoms: C3_3  and  C10_14
REMARK    4  A    between atoms: N1_4  and  C4_6
REMARK    5  A    between atoms: C4_6  and  C5_7
REMARK    6  A    between atoms: C5_7  and  C6_8
REMARK    7  A    between atoms: C10_14  and  N3_17
ROOT
HETATM    1  C3  UNL     1      18.049  28.082  -8.918  1.00  0.00     0.134 C
ENDROOT
BRANCH   1   2
HETATM    2  C2  UNL     1      16.746  27.861  -8.220  1.00  0.00    -0.010 C
HETATM    3  C1  UNL     1      15.675  27.505  -8.920  1.00  0.00     0.009 C
ENDBRANCH   1   2
BRANCH   1   4
HETATM    4  N1  UNL     1      18.787  26.898  -9.189  1.00  0.00    -0.411 N
ATOM      5  H1  UNL     1      18.962  26.207  -8.458  1.00  0.00     0.153 HD
BRANCH   4   6
HETATM    6  C4  UNL     1      19.272  26.708 -10.510  1.00  0.00     0.119 C
BRANCH   6   7
HETATM    7  C5  UNL     1      18.048  26.335 -11.367  1.00  0.00     0.059 C
BRANCH   7   8
HETATM    8  C6  UNL     1      18.405  25.379 -12.430  1.00  0.00    -0.040 A
HETATM    9  C7  UNL     1      17.569  24.932 -13.429  1.00  0.00     0.025 A
HETATM   10  C8  UNL     1      18.260  24.047 -14.233  1.00  0.00     0.088 A
HETATM   11  N2  UNL     1      19.492  23.953 -13.738  1.00  0.00    -0.375 N
HETATM   12  C9  UNL     1      19.612  24.749 -12.644  1.00  0.00     0.094 A
ATOM     13  H2  UNL     1      20.235  23.370 -14.123  1.00  0.00     0.164 HD
ENDBRANCH   7   8
ENDBRANCH   6   7
ENDBRANCH   4   6
ENDBRANCH   1   4
BRANCH   1  14
HETATM   14  C10 UNL     1      18.831  29.231  -8.370  1.00  0.00     0.139 C
HETATM   15  C11 UNL     1      19.224  30.284  -9.342  1.00  0.00     0.048 C
HETATM   16  C12 UNL     1      20.055  28.663  -7.679  1.00  0.00     0.048 C
BRANCH  14  17
HETATM   17  N3  UNL     1      17.946  29.874  -7.382  1.00  0.00    -0.069 N
ATOM     18  H33 UNL     1      18.363  30.684  -6.925  1.00  0.00     0.275 HD
ATOM     19  H32 UNL     1      17.155  30.365  -7.798  1.00  0.00     0.275 HD
ATOM     20  H31 UNL     1      17.675  29.132  -6.735  1.00  0.00     0.275 HD
ENDBRANCH  14  17
ENDBRANCH   1  14
TORSDOF 7
ENDMDL