MODEL 4
REMARK VINA RESULT: -7.053853263      1.037      1.179
REMARK  7 active torsions:
REMARK  status: ('A' for Active; 'I' for Inactive)
REMARK    1  A    between atoms: C2_2  and  N1_3
REMARK    2  A    between atoms: C2_2  and  C3_7
REMARK    3  A    between atoms: C3_7  and  N2_8
REMARK    4  A    between atoms: N2_8  and  C4_11
REMARK    5  A    between atoms: C4_11  and  C6_14
REMARK    6  A    between atoms: C6_14  and  C7_15
REMARK    7  A    between atoms: C7_15  and  C8_16
ROOT
HETATM    1  C4  UNL     1      17.018  27.069  -8.627  1.00  0.00     0.291 C
HETATM    2  C5  UNL     1      15.816  27.898  -8.790  1.00  0.00     0.092 C
HETATM    3  N3  UNL     1      14.889  28.559  -8.931  1.00  0.00    -0.195 NA
ENDROOT
BRANCH   1   4
HETATM    4  N2  UNL     1      17.847  27.672  -7.593  1.00  0.00    -0.057 N
ATOM      5  H22 UNL     1      17.980  27.023  -6.817  1.00  0.00     0.278 HD
ATOM      6  H21 UNL     1      17.337  28.413  -7.112  1.00  0.00     0.278 HD
BRANCH   4   7
HETATM    7  C3  UNL     1      19.105  28.154  -8.061  1.00  0.00     0.266 C
BRANCH   7   8
HETATM    8  C2  UNL     1      19.316  29.632  -7.939  1.00  0.00     0.205 C
HETATM    9  C1  UNL     1      20.739  29.820  -7.404  1.00  0.00     0.041 C
BRANCH   8  10
HETATM   10  N1  UNL     1      18.386  30.301  -7.090  1.00  0.00    -0.074 N
ATOM     11  H13 UNL     1      18.847  30.763  -6.307  1.00  0.00     0.274 HD
ATOM     12  H12 UNL     1      17.986  31.127  -7.536  1.00  0.00     0.274 HD
ATOM     13  H11 UNL     1      17.667  29.648  -6.780  1.00  0.00     0.274 HD
ENDBRANCH   8  10
ENDBRANCH   7   8
ENDBRANCH   4   7
ENDBRANCH   1   4
BRANCH   1  14
HETATM   14  C6  UNL     1      17.851  27.100  -9.883  1.00  0.00     0.052 C
BRANCH  14  15
HETATM   15  C7  UNL     1      17.098  26.925 -11.155  1.00  0.00     0.041 C
BRANCH  15  16
HETATM   16  C8  UNL     1      17.704  25.949 -12.095  1.00  0.00    -0.058 A
HETATM   17  C9  UNL     1      16.942  25.408 -13.100  1.00  0.00     0.007 A
HETATM   18  C10 UNL     1      17.573  24.485 -13.943  1.00  0.00     0.001 A
HETATM   19  C11 UNL     1      18.885  24.117 -13.799  1.00  0.00     0.000 A
HETATM   20  C12 UNL     1      19.620  24.678 -12.783  1.00  0.00     0.001 A
HETATM   21  C13 UNL     1      19.052  25.590 -11.925  1.00  0.00     0.007 A
ENDBRANCH  15  16
ENDBRANCH  14  15
ENDBRANCH   1  14
TORSDOF 7
ENDMDL