MODEL 4
REMARK VINA RESULT: -6.642394059      1.730      3.158
REMARK  6 active torsions:
REMARK  status: ('A' for Active; 'I' for Inactive)
REMARK    1  A    between atoms: N2_3  and  C2_5
REMARK    2  A    between atoms: C2_5  and  C3_6
REMARK    3  A    between atoms: C2_5  and  C8_13
REMARK    4  A    between atoms: C3_6  and  N3_7
REMARK    5  A    between atoms: N3_7  and  C4_9
REMARK    6  A    between atoms: C4_9  and  C5_10
ROOT
HETATM    1  C2  UNL     1      18.868  27.314 -10.575  1.00  0.00     0.132 C
ENDROOT
BRANCH   1   2
HETATM    2  N2  UNL     1      18.719  26.648  -9.310  1.00  0.00    -0.378 N
HETATM    3  C1  UNL     1      17.781  26.708  -8.470  1.00  0.00     0.185 C
HETATM    4  N1  UNL     1      16.646  27.516  -8.672  1.00  0.00    -0.097 NA
ATOM      5  H2  UNL     1      19.490  26.032  -9.052  1.00  0.00     0.160 HD
ENDBRANCH   1   2
BRANCH   1   6
HETATM    6  C3  UNL     1      20.366  27.642 -10.664  1.00  0.00     0.148 C
BRANCH   6   7
HETATM    7  N3  UNL     1      20.846  28.157  -9.453  1.00  0.00    -0.400 N
ATOM      8  H3  UNL     1      21.336  27.544  -8.801  1.00  0.00     0.158 HD
BRANCH   7   9
HETATM    9  C4  UNL     1      20.658  29.511  -9.131  1.00  0.00     0.060 C
BRANCH   9  10
HETATM   10  C5  UNL     1      20.204  29.603  -7.681  1.00  0.00     0.024 A
HETATM   11  C6  UNL     1      18.802  30.215  -7.520  1.00  0.00     0.010 A
HETATM   12  C7  UNL     1      20.048  30.892  -7.001  1.00  0.00     0.010 A
ENDBRANCH   9  10
ENDBRANCH   7   9
ENDBRANCH   6   7
ENDBRANCH   1   6
BRANCH   1  13
HETATM   13  C8  UNL     1      18.509  26.325 -11.648  1.00  0.00    -0.034 A
HETATM   14  C9  UNL     1      17.230  26.230 -12.179  1.00  0.00     0.009 A
HETATM   15  C10 UNL     1      16.878  25.348 -13.176  1.00  0.00     0.001 A
HETATM   16  C11 UNL     1      17.825  24.505 -13.690  1.00  0.00     0.000 A
HETATM   17  C12 UNL     1      19.101  24.574 -13.184  1.00  0.00     0.001 A
HETATM   18  C13 UNL     1      19.445  25.458 -12.189  1.00  0.00     0.009 A
ENDBRANCH   1  13
TORSDOF 6
ENDMDL