MODEL 5
REMARK VINA RESULT: -6.940837893      0.958      1.059
REMARK  6 active torsions:
REMARK  status: ('A' for Active; 'I' for Inactive)
REMARK    1  A    between atoms: C4_4  and  C5_5
REMARK    2  A    between atoms: C5_5  and  C6_6
REMARK    3  A    between atoms: C6_6  and  N1_7
REMARK    4  A    between atoms: N1_7  and  C7_10
REMARK    5  A    between atoms: C7_10  and  C8_11
REMARK    6  A    between atoms: C8_11  and  C9_12
ROOT
HETATM    1  N1  UNL     1      16.435  27.470  -9.803  1.00  0.00    -0.074 N
ATOM      2  H11 UNL     1      15.624  26.861  -9.915  1.00  0.00     0.277 HD
ATOM      3  H12 UNL     1      15.940  28.350  -9.662  1.00  0.00     0.277 HD
ENDROOT
BRANCH   1   4
HETATM    4  C6  UNL     1      17.249  27.496 -10.970  1.00  0.00     0.237 C
BRANCH   4   5
HETATM    5  C5  UNL     1      18.422  26.558 -10.843  1.00  0.00     0.066 C
BRANCH   5   6
HETATM    6  C4  UNL     1      18.416  25.687 -12.032  1.00  0.00    -0.057 A
HETATM    7  C3  UNL     1      17.260  25.520 -12.741  1.00  0.00     0.007 A
HETATM    8  C2  UNL     1      17.261  24.700 -13.854  1.00  0.00     0.001 A
HETATM    9  C1  UNL     1      18.394  24.038 -14.281  1.00  0.00     0.000 A
HETATM   10  C13 UNL     1      19.535  24.239 -13.531  1.00  0.00     0.001 A
HETATM   11  C12 UNL     1      19.559  25.050 -12.420  1.00  0.00     0.007 A
ENDBRANCH   5   6
ENDBRANCH   4   5
ENDBRANCH   1   4
BRANCH   1  12
HETATM   12  C7  UNL     1      17.235  27.105  -8.652  1.00  0.00     0.238 C
BRANCH  12  13
HETATM   13  C8  UNL     1      17.049  28.246  -7.656  1.00  0.00     0.086 C
BRANCH  13  14
HETATM   14  C9  UNL     1      18.275  29.055  -7.510  1.00  0.00     0.027 A
HETATM   15  C10 UNL     1      19.547  28.582  -7.778  1.00  0.00     0.114 A
HETATM   16  N2  UNL     1      20.412  29.575  -7.540  1.00  0.00    -0.360 N
HETATM   17  C11 UNL     1      19.753  30.668  -7.130  1.00  0.00     0.180 A
ATOM     18  H2  UNL     1      21.423  29.509  -7.653  1.00  0.00     0.166 HD
HETATM   19  N3  UNL     1      18.433  30.319  -7.120  1.00  0.00    -0.355 N
ATOM     20  H3  UNL     1      17.671  30.941  -6.851  1.00  0.00     0.166 HD
ENDBRANCH  13  14
ENDBRANCH  12  13
ENDBRANCH   1  12
TORSDOF 6
ENDMDL