MODEL 3
REMARK VINA RESULT: -6.314593675      1.702      3.143
REMARK  7 active torsions:
REMARK  status: ('A' for Active; 'I' for Inactive)
REMARK    1  A    between atoms: N1_1  and  C1_5
REMARK    2  A    between atoms: C1_5  and  C2_6
REMARK    3  A    between atoms: C1_5  and  C7_13
REMARK    4  A    between atoms: C2_6  and  N2_7
REMARK    5  A    between atoms: N2_7  and  C3_9
REMARK    6  A    between atoms: C3_9  and  C4_10
REMARK    7  A    between atoms: C7_13  and  C8_14
ROOT
HETATM    1  C1  UNL     1      17.970  27.166  -9.716  1.00  0.00     0.225 C
ENDROOT
BRANCH   1   2
HETATM    2  N1  UNL     1      17.854  26.413  -8.495  1.00  0.00    -0.070 N
ATOM      3  H13 UNL     1      18.352  26.883  -7.739  1.00  0.00     0.275 HD
ATOM      4  H12 UNL     1      16.901  26.463  -8.135  1.00  0.00     0.275 HD
ATOM      5  H11 UNL     1      18.157  25.442  -8.571  1.00  0.00     0.275 HD
ENDBRANCH   1   2
BRANCH   1   6
HETATM    6  C2  UNL     1      17.745  28.622  -9.558  1.00  0.00     0.088 C
BRANCH   6   7
HETATM    7  N2  UNL     1      17.834  29.199  -8.283  1.00  0.00    -0.400 N
ATOM      8  H2  UNL     1      17.066  29.083  -7.621  1.00  0.00     0.158 HD
BRANCH   7   9
HETATM    9  C3  UNL     1      18.976  29.938  -7.908  1.00  0.00     0.123 C
BRANCH   9  10
HETATM   10  C4  UNL     1      20.170  29.068  -7.568  1.00  0.00     0.003 A
HETATM   11  C5  UNL     1      21.454  29.762  -7.171  1.00  0.00     0.007 A
HETATM   12  C6  UNL     1      21.371  29.130  -8.523  1.00  0.00     0.007 A
ENDBRANCH   9  10
ENDBRANCH   7   9
ENDBRANCH   6   7
ENDBRANCH   1   6
BRANCH   1  13
HETATM   13  C7  UNL     1      19.125  26.725 -10.538  1.00  0.00     0.076 C
BRANCH  13  14
HETATM   14  C8  UNL     1      18.600  25.940 -11.718  1.00  0.00    -0.056 A
HETATM   15  C9  UNL     1      19.433  25.062 -12.374  1.00  0.00     0.007 A
HETATM   16  C10 UNL     1      18.959  24.343 -13.450  1.00  0.00     0.001 A
HETATM   17  C11 UNL     1      17.654  24.511 -13.857  1.00  0.00     0.000 A
HETATM   18  C12 UNL     1      16.783  25.376 -13.232  1.00  0.00     0.001 A
HETATM   19  C13 UNL     1      17.304  26.076 -12.159  1.00  0.00     0.007 A
ENDBRANCH  13  14
ENDBRANCH   1  13
TORSDOF 7
ENDMDL