MODEL 1
REMARK VINA RESULT: -6.977897395      0.000      0.000
REMARK  5 active torsions:
REMARK  status: ('A' for Active; 'I' for Inactive)
REMARK    1  A    between atoms: C3_5  and  C4_6
REMARK    2  A    between atoms: N3_9  and  N4_10
REMARK    3  A    between atoms: C6_15  and  C7_16
REMARK    4  A    between atoms: C9_21  and  N7_22
REMARK    5  A    between atoms: N7_22  and  N8_24
ROOT
HETATM    1  C1  UNL     1       7.615   4.312  27.125  1.00  0.00     0.069 C
HETATM    2  C2  UNL     1       8.296   2.989  26.894  1.00  0.00     0.024 A
HETATM    3  N1  UNL     1       8.862   2.379  27.991  1.00  0.00    -0.340 N
ATOM      4  H1  UNL     1       8.819   2.851  28.894  1.00  0.00     0.167 HD
HETATM    5  C3  UNL     1       9.466   1.193  27.913  1.00  0.00     0.194 A
HETATM    6  N3  UNL     1       9.543   0.542  26.739  1.00  0.00    -0.230 N
HETATM    7  C5  UNL     1       9.002   1.126  25.685  1.00  0.00     0.140 A
HETATM    8  S1  UNL     1       9.097   0.339  24.262  1.00  0.00    -0.057 SA
HETATM    9  C6  UNL     1       8.356   2.363  25.694  1.00  0.00     0.072 A
ENDROOT
BRANCH   9  10
HETATM   10  C7  UNL     1       7.834   2.941  24.468  1.00  0.00     0.151 A
HETATM   11  N5  UNL     1       6.683   2.420  23.898  1.00  0.00    -0.268 N
HETATM   12  N6  UNL     1       6.345   3.080  22.828  1.00  0.00    -0.125 N
ATOM     13  H5  UNL     1       6.167   1.623  24.269  1.00  0.00     0.189 HD
HETATM   14  C8  UNL     1       5.217   2.861  21.946  1.00  0.00     0.197 C
HETATM   15  C9  UNL     1       7.257   4.035  22.676  1.00  0.00     0.714 A
HETATM   16  N9  UNL     1       8.155   3.936  23.680  1.00  0.00    -0.172 N
ATOM     17  H9  UNL     1       8.963   4.547  23.806  1.00  0.00     0.186 HD
BRANCH  15  18
HETATM   18  N7  UNL     1       7.345   4.947  21.751  1.00  0.00    -0.137 N
ATOM     19  H7  UNL     1       8.019   4.817  20.996  1.00  0.00     0.205 HD
BRANCH  18  20
HETATM   20  N8  UNL     1       6.554   6.093  21.753  1.00  0.00    -0.331 N
ATOM     21  H82 UNL     1       5.578   5.996  21.475  1.00  0.00     0.177 HD
ATOM     22  H81 UNL     1       6.917   7.009  22.020  1.00  0.00     0.177 HD
ENDBRANCH  18  20
ENDBRANCH  15  18
ENDBRANCH   9  10
BRANCH   6  23
HETATM   23  N4  UNL     1      10.181  -0.700  26.677  1.00  0.00    -0.336 N
ATOM     24  H42 UNL     1      10.471  -1.217  27.507  1.00  0.00     0.177 HD
ATOM     25  H41 UNL     1      10.372  -1.124  25.769  1.00  0.00     0.177 HD
ENDBRANCH   6  23
BRANCH   5  26
HETATM   26  C4  UNL     1      10.068   0.556  29.105  1.00  0.00     0.300 C
HETATM   27  N2  UNL     1      11.456   0.282  29.095  1.00  0.00    -0.054 NA
HETATM   28  O1  UNL     1       9.350   0.275  30.093  1.00  0.00    -0.268 OA
ENDBRANCH   5  26
TORSDOF 5
ENDMDL