MODEL 5
REMARK VINA RESULT: -6.608540129      3.234      4.811
REMARK  3 active torsions:
REMARK  status: ('A' for Active; 'I' for Inactive)
REMARK    1  A    between atoms: C5_16  and  C6_17
REMARK    2  A    between atoms: C6_17  and  O3_18
REMARK    3  A    between atoms: O3_18  and  C7_19
ROOT
HETATM    1  O1  UNL     1      11.518   0.073  29.286  1.00  0.00    -0.260 OA
HETATM    2  C1  UNL     1      10.781   0.909  28.705  1.00  0.00     0.292 A
HETATM    3  N1  UNL     1      10.086   0.650  27.597  1.00  0.00    -0.284 N
ATOM      4  H1  UNL     1      10.177  -0.294  27.223  1.00  0.00     0.172 HD
HETATM    5  C2  UNL     1       9.283   1.476  26.916  1.00  0.00     0.259 A
HETATM    6  O2  UNL     1       8.760   0.925  25.900  1.00  0.00    -0.267 OA
HETATM    7  C3  UNL     1       8.965   2.778  27.162  1.00  0.00     0.071 A
HETATM    8  C4  UNL     1       9.500   3.413  28.262  1.00  0.00     0.109 A
HETATM    9  S1  UNL     1      10.573   2.493  29.265  1.00  0.00    -0.009 SA
HETATM   10  N2  UNL     1       9.046   4.713  28.723  1.00  0.00    -0.279 N
ATOM     11  H2  UNL     1       9.482   5.157  29.530  1.00  0.00     0.189 HD
HETATM   12  N3  UNL     1       8.109   5.285  28.113  1.00  0.00    -0.245 N
ATOM     13  H3  UNL     1       7.782   6.204  28.412  1.00  0.00     0.208 HD
HETATM   14  N4  UNL     1       7.525   4.652  27.030  1.00  0.00    -0.310 N
ATOM     15  H4  UNL     1       6.565   4.887  26.779  1.00  0.00     0.182 HD
HETATM   16  C5  UNL     1       8.229   3.677  26.251  1.00  0.00     0.166 C
ENDROOT
BRANCH  16  17
HETATM   17  C6  UNL     1       7.430   3.078  25.170  1.00  0.00     0.210 C
BRANCH  17  18
HETATM   18  O3  UNL     1       7.721   3.513  23.874  1.00  0.00    -0.320 OA
BRANCH  18  19
HETATM   19  C7  UNL     1       8.037   2.735  22.803  1.00  0.00     0.215 C
HETATM   20  N5  UNL     1       8.798   1.735  22.949  1.00  0.00    -0.355 N
HETATM   21  C8  UNL     1       9.030   1.023  21.722  1.00  0.00     0.143 C
ATOM     22  H5  UNL     1       9.203   1.461  23.844  1.00  0.00     0.163 HD
HETATM   23  C9  UNL     1       8.019   1.597  20.747  1.00  0.00     0.143 C
HETATM   24  N6  UNL     1       7.646   2.839  21.437  1.00  0.00    -0.355 N
ATOM     25  H6  UNL     1       7.184   3.642  21.009  1.00  0.00     0.163 HD
ENDBRANCH  18  19
ENDBRANCH  17  18
ENDBRANCH  16  17
TORSDOF 3
ENDMDL