MODEL 5
REMARK VINA RESULT: -7.219455432      1.258      1.414
REMARK  3 active torsions:
REMARK  status: ('A' for Active; 'I' for Inactive)
REMARK    1  A    between atoms: C3_7  and  N3_8
REMARK    2  A    between atoms: C5_16  and  C6_17
REMARK    3  A    between atoms: C8_23  and  N8_24
ROOT
HETATM    1  C1  UNL     1       7.767  -0.385  21.838  1.00  0.00     0.147 C
HETATM    2  N1  UNL     1       8.276  -1.571  22.418  1.00  0.00    -0.378 N
ATOM      3  H1  UNL     1       8.208  -2.401  21.829  1.00  0.00     0.160 HD
HETATM    4  C2  UNL     1       8.802  -1.765  23.551  1.00  0.00     0.148 A
HETATM    5  N2  UNL     1       9.202  -3.042  23.826  1.00  0.00    -0.175 N
ATOM      6  H2  UNL     1       9.062  -3.766  23.121  1.00  0.00     0.186 HD
HETATM    7  C3  UNL     1       9.772  -3.373  24.991  1.00  0.00     0.679 A
HETATM    8  N4  UNL     1       9.970  -2.444  25.939  1.00  0.00    -0.174 N
ATOM      9  H4  UNL     1      10.404  -2.701  26.825  1.00  0.00     0.186 HD
HETATM   10  C4  UNL     1       9.589  -1.157  25.710  1.00  0.00     0.154 A
HETATM   11  N5  UNL     1       9.783  -0.222  26.649  1.00  0.00    -0.323 N
ATOM     12  H5  UNL     1      10.216  -0.456  27.543  1.00  0.00     0.169 HD
HETATM   13  C5  UNL     1       9.382   1.059  26.372  1.00  0.00     0.153 A
HETATM   14  N9  UNL     1       8.818   1.341  25.196  1.00  0.00    -0.283 N
ATOM     15  H9  UNL     1       8.531   2.303  25.020  1.00  0.00     0.188 HD
HETATM   16  N10 UNL     1       8.610   0.449  24.246  1.00  0.00    -0.292 N
ATOM     17  H10 UNL     1       8.176   0.698  23.357  1.00  0.00     0.187 HD
HETATM   18  C9  UNL     1       9.003  -0.805  24.518  1.00  0.00     0.137 A
ENDROOT
BRANCH  13  19
HETATM   19  C6  UNL     1       9.642   2.032  27.441  1.00  0.00     0.130 A
HETATM   20  N6  UNL     1      10.739   2.021  28.259  1.00  0.00    -0.346 N
HETATM   21  C7  UNL     1      10.675   3.049  29.109  1.00  0.00     0.182 A
ATOM     22  H6  UNL     1      11.490   1.333  28.225  1.00  0.00     0.167 HD
HETATM   23  N7  UNL     1       9.572   3.734  28.872  1.00  0.00    -0.332 N
HETATM   24  C8  UNL     1       8.900   3.121  27.833  1.00  0.00     0.205 A
ATOM     25  H7  UNL     1       9.268   4.569  29.371  1.00  0.00     0.168 HD
BRANCH  24  26
HETATM   26  N8  UNL     1       7.687   3.642  27.356  1.00  0.00    -0.095 N
HETATM   27  O1  UNL     1       7.571   3.907  26.117  1.00  0.00    -0.530 OA
HETATM   28  O2  UNL     1       6.604   3.891  28.110  1.00  0.00    -0.530 OA
ENDBRANCH  24  26
ENDBRANCH  13  19
BRANCH   7  29
HETATM   29  N3  UNL     1      10.123  -4.583  25.190  1.00  0.00    -0.234 N
ATOM     30  H32 UNL     1      11.110  -4.843  25.180  1.00  0.00     0.174 HD
ATOM     31  H31 UNL     1       9.405  -5.288  25.358  1.00  0.00     0.174 HD
ENDBRANCH   7  29
TORSDOF 3
ENDMDL