MODEL 2
REMARK VINA RESULT: -6.277231467      1.427      2.273
REMARK  7 active torsions:
REMARK  status: ('A' for Active; 'I' for Inactive)
REMARK    1  A    between atoms: O1_2  and  C2_3
REMARK    2  A    between atoms: C3_4  and  O2_5
REMARK    3  A    between atoms: C6_9  and  O3_10
REMARK    4  A    between atoms: C7_12  and  O4_13
REMARK    5  A    between atoms: C10_17  and  O6_18
REMARK    6  A    between atoms: C10_17  and  O7_20
REMARK    7  A    between atoms: N1_22  and  O8_23
ROOT
HETATM    1  C2  UNL     1       9.426   2.059  27.858  1.00  0.00     0.138 A
HETATM    2  C3  UNL     1       8.694   2.591  26.771  1.00  0.00     0.118 A
HETATM    3  C4  UNL     1       8.457   1.792  25.668  1.00  0.00     0.087 A
HETATM    4  C5  UNL     1       8.910   0.479  25.586  1.00  0.00     0.072 A
HETATM    5  C6  UNL     1       9.617  -0.040  26.629  1.00  0.00     0.117 A
HETATM    6  C7  UNL     1       9.858   0.776  27.755  1.00  0.00     0.138 A
HETATM    7  C9  UNL     1       8.585  -0.318  24.388  1.00  0.00     0.250 C
HETATM    8  O5  UNL     1       8.430  -1.534  24.510  1.00  0.00    -0.284 OA
HETATM    9  C10 UNL     1       8.464   0.419  23.105  1.00  0.00     0.342 C
HETATM   10  N1  UNL     1       7.488   1.494  23.341  1.00  0.00    -0.154 N
HETATM   11  C11 UNL     1       7.728   2.287  24.498  1.00  0.00     0.286 C
HETATM   12  O9  UNL     1       7.272   3.462  24.467  1.00  0.00    -0.265 OA
ENDROOT
BRANCH   9  13
HETATM   13  O6  UNL     1       8.065  -0.365  22.059  1.00  0.00    -0.341 OA
ATOM     14  H6  UNL     1       8.149   0.058  21.213  1.00  0.00     0.215 HD
ENDBRANCH   9  13
BRANCH   9  15
HETATM   15  O7  UNL     1       9.686   1.018  22.834  1.00  0.00    -0.341 OA
ATOM     16  H7  UNL     1      10.304   0.336  22.598  1.00  0.00     0.215 HD
ENDBRANCH   9  15
BRANCH  10  17
HETATM   17  O8  UNL     1       6.445   1.696  22.505  1.00  0.00    -0.280 OA
ATOM     18  H8  UNL     1       5.579   1.903  22.835  1.00  0.00     0.245 HD
ENDBRANCH  10  17
BRANCH   5  19
HETATM   19  O3  UNL     1      10.092  -1.315  26.612  1.00  0.00    -0.357 OA
ATOM     20  H3  UNL     1      10.423  -1.717  25.816  1.00  0.00     0.217 HD
ENDBRANCH   5  19
BRANCH   2  21
HETATM   21  O2  UNL     1       8.249   3.858  26.835  1.00  0.00    -0.357 OA
ATOM     22  H2  UNL     1       7.972   4.294  26.038  1.00  0.00     0.217 HD
ENDBRANCH   2  21
BRANCH   6  23
HETATM   23  O4  UNL     1      10.573   0.223  28.791  1.00  0.00    -0.351 OA
HETATM   24  C8  UNL     1      11.957   0.273  28.948  1.00  0.00     0.210 C
ENDBRANCH   6  23
BRANCH   1  25
HETATM   25  O1  UNL     1       9.672   2.827  28.956  1.00  0.00    -0.351 OA
HETATM   26  C1  UNL     1      10.724   3.724  29.134  1.00  0.00     0.210 C
ENDBRANCH   1  25
TORSDOF 7
ENDMDL