MODEL 3
REMARK VINA RESULT: -6.305274345      0.128      1.849
REMARK  6 active torsions:
REMARK  status: ('A' for Active; 'I' for Inactive)
REMARK    1  A    between atoms: C2_2  and  N1_3
REMARK    2  A    between atoms: C3_6  and  C4_7
REMARK    3  A    between atoms: C4_7  and  C5_8
REMARK    4  A    between atoms: N5_19  and  N6_20
REMARK    5  A    between atoms: C9_23  and  S1_24
REMARK    6  A    between atoms: S1_24  and  N7_25
ROOT
HETATM    1  N1  UNL     1       9.228   0.437  22.405  1.00  0.00    -0.267 N
HETATM    2  N2  UNL     1       8.673   1.092  23.430  1.00  0.00    -0.280 N
ATOM      3  H2  UNL     1       8.186   1.986  23.370  1.00  0.00     0.189 HD
HETATM    4  C3  UNL     1       8.863   0.378  24.551  1.00  0.00     0.144 A
HETATM    5  N5  UNL     1       9.561  -0.748  24.173  1.00  0.00    -0.220 N
HETATM    6  C9  UNL     1       9.775  -0.694  22.854  1.00  0.00     0.204 A
ENDROOT
BRANCH   4   7
HETATM    7  C4  UNL     1       8.469   0.636  25.912  1.00  0.00     0.074 C
BRANCH   7   8
HETATM    8  C5  UNL     1       8.972   1.496  26.766  1.00  0.00     0.104 A
HETATM    9  C6  UNL     1       8.652   2.902  26.869  1.00  0.00     0.265 A
HETATM   10  O1  UNL     1       7.791   3.424  26.107  1.00  0.00    -0.267 OA
HETATM   11  N3  UNL     1       9.295   3.733  27.834  1.00  0.00    -0.275 N
HETATM   12  C7  UNL     1      10.272   3.260  28.743  1.00  0.00     0.329 A
ATOM     13  H3  UNL     1       9.038   4.719  27.870  1.00  0.00     0.173 HD
HETATM   14  O2  UNL     1      10.812   4.050  29.581  1.00  0.00    -0.246 OA
HETATM   15  N4  UNL     1      10.608   1.892  28.669  1.00  0.00    -0.275 N
HETATM   16  C8  UNL     1      10.003   1.027  27.737  1.00  0.00     0.265 A
ATOM     17  H4  UNL     1      11.309   1.518  29.309  1.00  0.00     0.173 HD
HETATM   18  O3  UNL     1      10.341  -0.194  27.712  1.00  0.00    -0.267 OA
ENDBRANCH   7   8
ENDBRANCH   4   7
BRANCH   5  19
HETATM   19  N6  UNL     1       9.955  -1.746  25.048  1.00  0.00    -0.335 N
ATOM     20  H62 UNL     1      10.242  -1.638  26.022  1.00  0.00     0.177 HD
ATOM     21  H61 UNL     1      10.003  -2.735  24.802  1.00  0.00     0.177 HD
ENDBRANCH   5  19
BRANCH   1  22
HETATM   22  C2  UNL     1       9.253   0.858  21.016  1.00  0.00     0.147 C
HETATM   23  C1  UNL     1       7.987   1.620  20.711  1.00  0.00     0.028 C
ENDBRANCH   1  22
BRANCH   6  24
HETATM   24  S1  UNL     1      10.565  -1.832  22.007  1.00  0.00     0.019 SA
BRANCH  24  25
HETATM   25  N7  UNL     1      12.333  -1.770  21.779  1.00  0.00    -0.367 N
ATOM     26  H72 UNL     1      12.702  -1.169  21.043  1.00  0.00     0.164 HD
ATOM     27  H71 UNL     1      12.966  -2.316  22.363  1.00  0.00     0.164 HD
ENDBRANCH  24  25
ENDBRANCH   6  24
TORSDOF 6
ENDMDL