MODEL 1
REMARK VINA RESULT: -6.372512906      0.000      0.000
REMARK  6 active torsions:
REMARK  status: ('A' for Active; 'I' for Inactive)
REMARK    1  A    between atoms: C2_2  and  N2_7
REMARK    2  A    between atoms: N1_3  and  O1_5
REMARK    3  A    between atoms: N2_7  and  N3_9
REMARK    4  A    between atoms: N3_9  and  N4_11
REMARK    5  A    between atoms: N4_11  and  C3_13
REMARK    6  A    between atoms: C5_17  and  N7_20
ROOT
HETATM    1  C3  UNL     1       7.007   2.384  23.564  1.00  0.00     0.689 C
HETATM    2  N5  UNL     1       7.027   1.326  24.313  1.00  0.00    -0.222 N
ATOM      3  H5  UNL     1       6.443   0.545  24.014  1.00  0.00     0.177 HD
HETATM    4  C4  UNL     1       7.778   1.139  25.506  1.00  0.00     0.186 C
HETATM    5  C5  UNL     1       8.652   2.289  25.927  1.00  0.00     0.151 C
HETATM    6  C6  UNL     1       7.760   3.179  26.716  1.00  0.00     0.094 C
HETATM    7  N6  UNL     1       7.040   3.880  27.329  1.00  0.00    -0.194 NA
HETATM    8  C11 UNL     1       9.071   3.071  24.734  1.00  0.00     0.186 C
HETATM    9  N9  UNL     1       7.852   3.444  24.041  1.00  0.00    -0.222 N
ATOM     10  H9  UNL     1       7.604   4.423  23.897  1.00  0.00     0.177 HD
ENDROOT
BRANCH   5  11
HETATM   11  N7  UNL     1       9.727   1.874  26.770  1.00  0.00    -0.386 N
HETATM   12  C7  UNL     1       9.606   0.536  27.271  1.00  0.00     0.146 C
HETATM   13  C8  UNL     1      10.750   0.096  28.106  1.00  0.00     0.251 C
HETATM   14  N8  UNL     1      11.231   1.024  29.070  1.00  0.00    -0.072 N
HETATM   15  C9  UNL     1      10.362   2.168  29.127  1.00  0.00     0.251 C
ATOM     16  H82 UNL     1      11.356   0.593  29.986  1.00  0.00     0.277 HD
ATOM     17  H81 UNL     1      12.200   1.289  28.896  1.00  0.00     0.277 HD
HETATM   18  C10 UNL     1      10.201   2.786  27.722  1.00  0.00     0.146 C
ENDBRANCH   5  11
BRANCH   1  19
HETATM   19  N4  UNL     1       6.244   2.527  22.378  1.00  0.00    -0.118 N
ATOM     20  H4  UNL     1       6.490   2.009  21.534  1.00  0.00     0.207 HD
BRANCH  19  21
HETATM   21  N3  UNL     1       5.220   3.334  22.389  1.00  0.00    -0.227 N
ATOM     22  H3  UNL     1       4.519   3.308  23.130  1.00  0.00     0.209 HD
BRANCH  21  23
HETATM   23  N2  UNL     1       5.140   4.251  21.306  1.00  0.00    -0.273 N
ATOM     24  H2  UNL     1       4.923   3.910  20.370  1.00  0.00     0.190 HD
BRANCH  23  25
HETATM   25  C2  UNL     1       5.360   5.632  21.516  1.00  0.00     0.113 C
HETATM   26  C1  UNL     1       4.203   6.572  21.489  1.00  0.00     0.092 C
HETATM   27  N1  UNL     1       6.538   6.133  21.751  1.00  0.00    -0.256 N
ATOM     28  H1  UNL     1       6.635   7.135  21.911  1.00  0.00     0.195 HD
BRANCH  27  29
HETATM   29  O1  UNL     1       7.655   5.330  21.784  1.00  0.00    -0.288 OA
ATOM     30  H1  UNL     1       8.123   5.176  22.597  1.00  0.00     0.244 HD
ENDBRANCH  27  29
ENDBRANCH  23  25
ENDBRANCH  21  23
ENDBRANCH  19  21
ENDBRANCH   1  19
TORSDOF 6
ENDMDL