MODEL 3
REMARK VINA RESULT: -7.348789547      1.561      2.106
REMARK  4 active torsions:
REMARK  status: ('A' for Active; 'I' for Inactive)
REMARK       I    between atoms: C2_2  and  N1_4
REMARK    1  A    between atoms: N1_4  and  C3_6
REMARK    2  A    between atoms: C4_9  and  C5_10
REMARK    3  A    between atoms: C6_14  and  C7_15
REMARK    4  A    between atoms: C8_21  and  N6_22
ROOT
HETATM    1  C5  UNL     1       8.955  -1.537  24.968  1.00  0.00     0.174 A
HETATM    2  N3  UNL     1       9.877  -1.894  25.877  1.00  0.00    -0.239 N
ATOM      3  H3  UNL     1      10.364  -1.236  26.485  1.00  0.00     0.196 HD
HETATM    4  O2  UNL     1      10.069  -3.156  25.889  1.00  0.00    -0.215 OA
HETATM    5  C6  UNL     1       9.264  -3.676  24.972  1.00  0.00     0.204 A
HETATM    6  N7  UNL     1       8.567  -2.683  24.392  1.00  0.00    -0.315 N
ATOM      7  H7  UNL     1       7.872  -2.783  23.653  1.00  0.00     0.169 HD
ENDROOT
BRANCH   1   8
HETATM    8  C4  UNL     1       8.491  -0.173  24.687  1.00  0.00     0.182 A
HETATM    9  N2  UNL     1       8.407   0.860  25.545  1.00  0.00    -0.170 N
HETATM   10  C3  UNL     1       7.937   1.956  24.932  1.00  0.00     0.701 A
ATOM     11  H2  UNL     1       8.666   0.815  26.530  1.00  0.00     0.186 HD
HETATM   12  N9  UNL     1       7.720   1.603  23.653  1.00  0.00    -0.130 N
HETATM   13  N8  UNL     1       8.057   0.311  23.509  1.00  0.00    -0.268 N
ATOM     14  H9  UNL     1       7.361   2.212  22.917  1.00  0.00     0.205 HD
ATOM     15  H8  UNL     1       7.993  -0.221  22.641  1.00  0.00     0.189 HD
BRANCH  10  16
HETATM   16  N1  UNL     1       7.715   3.144  25.417  1.00  0.00    -0.159 N
HETATM   17  C2  UNL     1       8.009   3.462  26.769  1.00  0.00     0.232 C
HETATM   18  C1  UNL     1       7.024   4.115  27.644  1.00  0.00     0.118 C
HETATM   19  O1  UNL     1       9.143   3.176  27.229  1.00  0.00    -0.273 OA
ATOM     20  H1  UNL     1       7.320   3.863  24.810  1.00  0.00     0.187 HD
ENDBRANCH  10  16
ENDBRANCH   1   8
BRANCH   5  21
HETATM   21  C7  UNL     1       9.213  -5.105  24.706  1.00  0.00     0.155 A
HETATM   22  N4  UNL     1       8.105  -5.807  24.334  1.00  0.00    -0.234 N
HETATM   23  O3  UNL     1       8.444  -7.047  24.189  1.00  0.00    -0.155 OA
ATOM     24  H4  UNL     1       7.171  -5.421  24.195  1.00  0.00     0.197 HD
HETATM   25  N5  UNL     1       9.683  -7.233  24.433  1.00  0.00    -0.224 N
HETATM   26  C8  UNL     1      10.228  -6.025  24.769  1.00  0.00     0.154 A
ATOM     27  H5  UNL     1      10.179  -8.123  24.384  1.00  0.00     0.198 HD
BRANCH  26  28
HETATM   28  N6  UNL     1      11.460  -5.816  25.081  1.00  0.00    -0.382 N
ATOM     29  H62 UNL     1      11.939  -6.187  25.902  1.00  0.00     0.157 HD
ATOM     30  H61 UNL     1      12.144  -5.257  24.572  1.00  0.00     0.157 HD
ENDBRANCH  26  28
ENDBRANCH   5  21
TORSDOF 4
ENDMDL