MODEL 4
REMARK VINA RESULT: -6.714989778      1.660      2.078
REMARK  4 active torsions:
REMARK  status: ('A' for Active; 'I' for Inactive)
REMARK    1  A    between atoms: C4_8  and  C5_9
REMARK    2  A    between atoms: C5_9  and  N3_10
REMARK    3  A    between atoms: N3_10  and  N4_12
REMARK    4  A    between atoms: C7_17  and  N6_18
ROOT
HETATM    1  N3  UNL     1       9.255   0.601  26.782  1.00  0.00    -0.295 N
ATOM      2  H3  UNL     1       9.389  -0.051  27.555  1.00  0.00     0.187 HD
ENDROOT
BRANCH   1   3
HETATM    3  C5  UNL     1       9.408   0.158  25.589  1.00  0.00     0.158 C
BRANCH   3   4
HETATM    4  C4  UNL     1       9.284  -1.256  25.265  1.00  0.00     0.154 A
HETATM    5  N2  UNL     1       9.993  -2.285  25.815  1.00  0.00    -0.171 N
HETATM    6  C3  UNL     1       9.624  -3.461  25.283  1.00  0.00     0.722 A
ATOM      7  H2  UNL     1      10.708  -2.175  26.534  1.00  0.00     0.186 HD
HETATM    8  N1  UNL     1       9.814  -4.794  25.280  1.00  0.00    -0.176 N
HETATM    9  N9  UNL     1       8.667  -3.158  24.388  1.00  0.00    -0.017 N
HETATM   10  C2  UNL     1       8.976  -5.341  24.380  1.00  0.00     0.110 A
ATOM     11  H1  UNL     1      10.480  -5.303  25.861  1.00  0.00     0.185 HD
HETATM   12  C1  UNL     1       8.839  -6.799  24.037  1.00  0.00     0.091 C
HETATM   13  N10 UNL     1       8.290  -4.317  23.852  1.00  0.00    -0.253 N
ATOM     14  H10 UNL     1       7.572  -4.414  23.134  1.00  0.00     0.191 HD
HETATM   15  N8  UNL     1       8.466  -1.850  24.378  1.00  0.00    -0.247 N
ATOM     16  H8  UNL     1       7.792  -1.364  23.786  1.00  0.00     0.191 HD
ENDBRANCH   3   4
ENDBRANCH   1   3
BRANCH   1  17
HETATM   17  N4  UNL     1       8.920   1.912  27.087  1.00  0.00    -0.177 N
HETATM   18  C6  UNL     1       7.895   2.478  26.440  1.00  0.00     0.362 A
HETATM   19  O1  UNL     1       7.267   1.794  25.572  1.00  0.00    -0.244 OA
HETATM   20  N5  UNL     1       7.554   3.748  26.721  1.00  0.00    -0.140 N
HETATM   21  C7  UNL     1       8.202   4.493  27.635  1.00  0.00     0.682 A
ATOM     22  H5  UNL     1       6.770   4.164  26.219  1.00  0.00     0.189 HD
HETATM   23  N7  UNL     1       9.226   3.915  28.276  1.00  0.00    -0.164 N
HETATM   24  C8  UNL     1       9.570   2.643  27.997  1.00  0.00     0.216 A
ATOM     25  H7  UNL     1       9.748   4.440  28.979  1.00  0.00     0.186 HD
HETATM   26  S1  UNL     1      10.824   1.971  28.797  1.00  0.00    -0.038 SA
BRANCH  21  27
HETATM   27  N6  UNL     1       7.897   5.701  27.919  1.00  0.00    -0.234 N
ATOM     28  H62 UNL     1       8.097   6.435  27.239  1.00  0.00     0.174 HD
ATOM     29  H61 UNL     1       7.460   5.989  28.795  1.00  0.00     0.174 HD
ENDBRANCH  21  27
ENDBRANCH   1  17
TORSDOF 4
ENDMDL