MODEL 2
REMARK VINA RESULT: -7.187358636      1.105      2.361
REMARK  4 active torsions:
REMARK  status: ('A' for Active; 'I' for Inactive)
REMARK    1  A    between atoms: C4_5  and  O2_7
REMARK    2  A    between atoms: C8_12  and  N1_13
REMARK    3  A    between atoms: N1_13  and  C9_15
REMARK    4  A    between atoms: C10_18  and  O4_19
ROOT
HETATM    1  N1  UNL     1       9.978  -1.815  24.909  1.00  0.00    -0.336 N
ATOM      2  H1  UNL     1      10.976  -1.755  25.116  1.00  0.00     0.168 HD
ENDROOT
BRANCH   1   3
HETATM    3  C8  UNL     1       9.290  -0.606  24.707  1.00  0.00     0.051 C
HETATM    4  C2  UNL     1       9.194   0.405  25.776  1.00  0.00     0.031 C
HETATM    5  C1  UNL     1       9.773   0.151  26.943  1.00  0.00     0.030 C
HETATM    6  C3  UNL     1       8.479   1.659  25.569  1.00  0.00     0.202 C
HETATM    7  O1  UNL     1       8.027   2.274  26.568  1.00  0.00    -0.288 OA
HETATM    8  C4  UNL     1       8.337   2.128  24.170  1.00  0.00     0.183 C
HETATM    9  C5  UNL     1       7.361   3.265  24.035  1.00  0.00     0.063 C
HETATM   10  C6  UNL     1       7.974   0.953  23.343  1.00  0.00     0.193 C
HETATM   11  O3  UNL     1       7.061   1.026  22.453  1.00  0.00    -0.289 OA
HETATM   12  C7  UNL     1       8.691  -0.291  23.570  1.00  0.00     0.084 C
BRANCH   8  13
HETATM   13  O2  UNL     1       9.587   2.565  23.735  1.00  0.00    -0.374 OA
ATOM     14  H2  UNL     1       9.801   3.359  24.211  1.00  0.00     0.211 HD
ENDBRANCH   8  13
ENDBRANCH   1   3
BRANCH   1  15
HETATM   15  C9  UNL     1       9.462  -2.975  24.856  1.00  0.00     0.155 A
HETATM   16  N2  UNL     1       8.185  -3.183  25.142  1.00  0.00    -0.302 N
HETATM   17  C10 UNL     1       7.532  -4.343  25.122  1.00  0.00     0.225 A
ATOM     18  H2  UNL     1       7.641  -2.361  25.406  1.00  0.00     0.171 HD
HETATM   19  N3  UNL     1       8.021  -5.532  24.815  1.00  0.00    -0.303 N
HETATM   20  C11 UNL     1       9.289  -5.787  24.459  1.00  0.00     0.148 A
ATOM     21  H3  UNL     1       7.378  -6.324  24.852  1.00  0.00     0.171 HD
HETATM   22  N4  UNL     1       9.679  -6.985  24.175  1.00  0.00    -0.379 N
HETATM   23  S1  UNL     1      10.302  -4.418  24.422  1.00  0.00    -0.018 SA
ATOM     24  H42 UNL     1       9.073  -7.805  24.197  1.00  0.00     0.158 HD
ATOM     25  H41 UNL     1      10.643  -7.179  23.904  1.00  0.00     0.158 HD
BRANCH  17  26
HETATM   26  O4  UNL     1       6.167  -4.275  25.473  1.00  0.00    -0.332 OA
ATOM     27  H4  UNL     1       5.989  -4.043  26.377  1.00  0.00     0.221 HD
ENDBRANCH  17  26
ENDBRANCH   1  15
TORSDOF 4
ENDMDL