MODEL 5
REMARK VINA RESULT: -7.015488509      3.779      7.766
REMARK  3 active torsions:
REMARK  status: ('A' for Active; 'I' for Inactive)
REMARK    1  A    between atoms: N1_1  and  C1_4
REMARK    2  A    between atoms: C2_7  and  C3_8
REMARK    3  A    between atoms: C4_13  and  C5_14
ROOT
HETATM    1  C3  UNL     1       8.860   1.226  23.924  1.00  0.00     0.136 A
HETATM    2  N3  UNL     1       8.938   0.456  25.004  1.00  0.00    -0.290 N
ATOM      3  H3  UNL     1       9.223  -0.520  24.915  1.00  0.00     0.188 HD
HETATM    4  N4  UNL     1       8.659   0.931  26.139  1.00  0.00    -0.295 N
ATOM      5  H4  UNL     1       8.720   0.334  26.964  1.00  0.00     0.187 HD
HETATM    6  C4  UNL     1       8.290   2.194  26.270  1.00  0.00     0.090 A
HETATM    7  S1  UNL     1       8.354   2.711  24.631  1.00  0.00    -0.050 SA
ENDROOT
BRANCH   1   8
HETATM    8  C2  UNL     1       9.132   0.896  22.516  1.00  0.00     0.157 A
HETATM    9  N2  UNL     1       8.368   1.418  21.558  1.00  0.00    -0.321 N
HETATM   10  C1  UNL     1       8.617   1.115  20.264  1.00  0.00     0.171 A
ATOM     11  H2  UNL     1       7.599   2.044  21.799  1.00  0.00     0.169 HD
HETATM   12  C10 UNL     1       9.665   0.267  19.966  1.00  0.00     0.303 A
HETATM   13  N7  UNL     1      10.403  -0.231  20.964  1.00  0.00    -0.262 N
HETATM   14  O2  UNL     1       9.956  -0.060  18.791  1.00  0.00    -0.263 OA
HETATM   15  N6  UNL     1      10.137   0.083  22.240  1.00  0.00    -0.280 N
ATOM     16  H7  UNL     1      11.178  -0.860  20.751  1.00  0.00     0.190 HD
ATOM     17  H6  UNL     1      10.706  -0.304  22.994  1.00  0.00     0.188 HD
BRANCH  10  18
HETATM   18  N1  UNL     1       7.916   1.588  19.313  1.00  0.00    -0.381 N
ATOM     19  H12 UNL     1       7.355   2.423  19.480  1.00  0.00     0.157 HD
ATOM     20  H11 UNL     1       7.899   1.158  18.388  1.00  0.00     0.157 HD
ENDBRANCH  10  18
ENDBRANCH   1   8
BRANCH   6  21
HETATM   21  C5  UNL     1       7.914   2.988  27.470  1.00  0.00     0.137 C
HETATM   22  C6  UNL     1       8.026   4.468  27.250  1.00  0.00     0.058 C
HETATM   23  C7  UNL     1       8.081   5.136  28.593  1.00  0.00     0.170 C
HETATM   24  O1  UNL     1       9.334   5.284  29.111  1.00  0.00    -0.389 OA
HETATM   25  C8  UNL     1      10.281   4.415  28.643  1.00  0.00     0.186 C
HETATM   26  C9  UNL     1       9.952   2.972  28.770  1.00  0.00     0.140 C
HETATM   27  N5  UNL     1       8.588   2.626  28.657  1.00  0.00    -0.409 N
ATOM     28  H5  UNL     1       8.107   2.131  29.408  1.00  0.00     0.154 HD
ENDBRANCH   6  21
TORSDOF 3
ENDMDL