MODEL 1
REMARK VINA RESULT: -6.225314340      0.000      0.000
REMARK  8 active torsions:
REMARK  status: ('A' for Active; 'I' for Inactive)
REMARK    1  A    between atoms: C2_2  and  C3_3
REMARK    2  A    between atoms: C3_3  and  C4_4
REMARK    3  A    between atoms: C4_4  and  C5_5
REMARK    4  A    between atoms: C6_8  and  N2_9
REMARK    5  A    between atoms: C13_17  and  N3_18
REMARK    6  A    between atoms: N3_18  and  C14_20
REMARK    7  A    between atoms: C16_22  and  N4_23
REMARK    8  A    between atoms: C17_29  and  O1_30
ROOT
HETATM    1  C5  UNL     1     -48.327  45.093  11.331  1.00  0.00     0.062 A
HETATM    2  N1  UNL     1     -48.683  46.279  11.860  1.00  0.00    -0.339 N
ATOM      3  H1  UNL     1     -48.677  47.099  11.254  1.00  0.00     0.167 HD
HETATM    4  C6  UNL     1     -49.047  46.440  13.143  1.00  0.00     0.149 A
HETATM    5  C13 UNL     1     -49.064  45.347  13.977  1.00  0.00     0.148 A
HETATM    6  N5  UNL     1     -48.699  44.134  13.436  1.00  0.00    -0.319 N
ATOM      7  H5  UNL     1     -48.703  43.309  14.036  1.00  0.00     0.169 HD
HETATM    8  C17 UNL     1     -48.340  43.996  12.163  1.00  0.00     0.164 A
ENDROOT
BRANCH   5   9
HETATM    9  N3  UNL     1     -49.402  45.341  15.154  1.00  0.00    -0.366 N
ATOM     10  H3  UNL     1     -50.122  44.622  15.223  1.00  0.00     0.161 HD
BRANCH   9  11
HETATM   11  C14 UNL     1     -49.272  45.842  16.418  1.00  0.00     0.115 A
HETATM   12  C15 UNL     1     -49.819  45.147  17.670  1.00  0.00     0.062 A
HETATM   13  C16 UNL     1     -50.394  46.431  17.204  1.00  0.00     0.208 A
BRANCH  13  14
HETATM   14  N4  UNL     1     -51.764  46.319  16.730  1.00  0.00    -0.073 N
ATOM     15  H43 UNL     1     -52.281  47.139  17.048  1.00  0.00     0.274 HD
ATOM     16  H42 UNL     1     -51.765  46.454  15.720  1.00  0.00     0.274 HD
ATOM     17  H41 UNL     1     -52.318  45.490  16.943  1.00  0.00     0.274 HD
ENDBRANCH  13  14
ENDBRANCH   9  11
ENDBRANCH   5   9
BRANCH   4  18
HETATM   18  N2  UNL     1     -49.374  47.759  13.617  1.00  0.00    -0.360 N
HETATM   19  C7  UNL     1     -48.259  48.644  13.906  1.00  0.00     0.128 C
HETATM   20  C8  UNL     1     -48.401  49.758  12.859  1.00  0.00     0.057 C
HETATM   21  C9  UNL     1     -49.654  50.486  13.180  1.00  0.00     0.173 C
HETATM   22  F1  UNL     1     -49.839  51.476  12.218  1.00  0.00    -0.249 F
HETATM   23  C10 UNL     1     -50.895  49.668  13.313  1.00  0.00     0.062 C
HETATM   24  C11 UNL     1     -50.682  48.273  13.815  1.00  0.00     0.084 C
HETATM   25  C12 UNL     1     -51.752  47.376  13.240  1.00  0.00     0.032 C
ENDBRANCH   4  18
BRANCH   8  26
HETATM   26  O1  UNL     1     -47.965  42.752  11.634  1.00  0.00    -0.345 OA
ATOM     27  H1  UNL     1     -47.397  42.193  12.151  1.00  0.00     0.219 HD
ENDBRANCH   8  26
BRANCH   1  28
HETATM   28  C4  UNL     1     -47.971  44.974   9.901  1.00  0.00     0.062 C
BRANCH  28  29
HETATM   29  C3  UNL     1     -47.055  45.986   9.350  1.00  0.00     0.006 C
BRANCH  29  30
HETATM   30  C2  UNL     1     -46.635  45.855   7.925  1.00  0.00    -0.004 C
HETATM   31  C1  UNL     1     -47.780  46.326   7.012  1.00  0.00     0.005 C
ENDBRANCH  29  30
ENDBRANCH  28  29
ENDBRANCH   1  28
TORSDOF 8
ENDMDL