MODEL 1
REMARK VINA RESULT: -5.600651948      0.000      0.000
REMARK  6 active torsions:
REMARK  status: ('A' for Active; 'I' for Inactive)
REMARK    1  A    between atoms: O1_2  and  C2_3
REMARK    2  A    between atoms: C2_3  and  C3_4
REMARK    3  A    between atoms: C3_4  and  C4_5
REMARK    4  A    between atoms: C4_5  and  C5_6
REMARK    5  A    between atoms: C11_16  and  C12_17
REMARK    6  A    between atoms: C13_20  and  N3_21
ROOT
HETATM    1  C5  UNL     1     -49.404  44.854  13.622  1.00  0.00     0.125 C
HETATM    2  C6  UNL     1     -48.359  45.855  13.902  1.00  0.00     0.067 C
HETATM    3  C7  UNL     1     -48.847  47.224  13.543  1.00  0.00    -0.054 C
HETATM    4  C8  UNL     1     -48.030  48.008  12.880  1.00  0.00     0.059 C
HETATM    5  C9  UNL     1     -48.385  49.359  12.471  1.00  0.00     0.135 C
HETATM    6  N1  UNL     1     -47.595  50.108  11.833  1.00  0.00    -0.380 N
ATOM      7  H11 UNL     1     -47.844  51.055  11.546  1.00  0.00     0.158 HD
ATOM      8  H12 UNL     1     -46.654  49.831  11.555  1.00  0.00     0.158 HD
HETATM    9  O2  UNL     1     -49.641  49.728  12.842  1.00  0.00    -0.335 OA
HETATM   10  C10 UNL     1     -50.635  48.880  13.359  1.00  0.00     0.200 C
HETATM   11  C11 UNL     1     -50.256  47.598  13.953  1.00  0.00     0.073 C
HETATM   12  C16 UNL     1     -51.028  46.515  13.139  1.00  0.00     0.191 C
HETATM   13  O3  UNL     1     -50.616  45.286  13.310  1.00  0.00    -0.384 OA
ENDROOT
BRANCH  11  14
HETATM   14  C12 UNL     1     -50.513  47.360  15.366  1.00  0.00     0.083 A
HETATM   15  N2  UNL     1     -51.481  46.494  15.781  1.00  0.00    -0.192 N
HETATM   16  C13 UNL     1     -51.731  46.262  17.095  1.00  0.00     0.676 A
ATOM     17  H2  UNL     1     -52.036  46.004  15.080  1.00  0.00     0.184 HD
HETATM   18  N4  UNL     1     -51.000  46.907  18.022  1.00  0.00    -0.199 N
HETATM   19  C14 UNL     1     -50.020  47.782  17.671  1.00  0.00     0.150 A
ATOM     20  H4  UNL     1     -51.185  46.735  19.011  1.00  0.00     0.183 HD
HETATM   21  C15 UNL     1     -49.777  48.008  16.336  1.00  0.00     0.156 A
HETATM   22  F1  UNL     1     -48.813  48.868  15.992  1.00  0.00    -0.203 F
BRANCH  16  23
HETATM   23  N3  UNL     1     -52.654  45.437  17.456  1.00  0.00    -0.234 N
ATOM     24  H32 UNL     1     -53.229  45.638  18.273  1.00  0.00     0.174 HD
ATOM     25  H31 UNL     1     -52.820  44.577  16.933  1.00  0.00     0.174 HD
ENDBRANCH  16  23
ENDBRANCH  11  14
BRANCH   1  26
HETATM   26  C4  UNL     1     -48.950  43.898  12.497  1.00  0.00     0.034 C
BRANCH  26  27
HETATM   27  C3  UNL     1     -47.638  44.330  11.889  1.00  0.00     0.029 C
BRANCH  27  28
HETATM   28  C2  UNL     1     -47.818  44.240  10.391  1.00  0.00     0.167 C
BRANCH  28  29
HETATM   29  O1  UNL     1     -47.811  45.480   9.777  1.00  0.00    -0.396 OA
HETATM   30  C1  UNL     1     -46.675  46.228  10.008  1.00  0.00     0.201 C
ENDBRANCH  28  29
ENDBRANCH  27  28
ENDBRANCH  26  27
ENDBRANCH   1  26
TORSDOF 6
ENDMDL