MODEL 3
REMARK VINA RESULT: -5.533832620      2.976      4.060
REMARK  6 active torsions:
REMARK  status: ('A' for Active; 'I' for Inactive)
REMARK    1  A    between atoms: O1_2  and  C2_3
REMARK    2  A    between atoms: C2_3  and  C4_5
REMARK    3  A    between atoms: C4_5  and  C5_6
REMARK    4  A    between atoms: C7_10  and  O2_11
REMARK    5  A    between atoms: O2_11  and  C8_12
REMARK    6  A    between atoms: C9_15  and  N3_16
ROOT
HETATM    1  O2  UNL     1     -48.205  48.710  12.834  1.00  0.00    -0.274 OA
ENDROOT
BRANCH   1   2
HETATM    2  C7  UNL     1     -47.853  47.503  12.255  1.00  0.00     0.166 A
HETATM    3  C6  UNL     1     -47.958  46.301  12.961  1.00  0.00     0.145 A
HETATM    4  N1  UNL     1     -47.548  45.321  12.139  1.00  0.00    -0.351 N
HETATM    5  C5  UNL     1     -47.189  45.832  10.954  1.00  0.00     0.085 A
ATOM      6  H1  UNL     1     -47.515  44.332  12.382  1.00  0.00     0.166 HD
HETATM    7  N5  UNL     1     -47.388  47.174  11.058  1.00  0.00    -0.325 N
ATOM      8  H5  UNL     1     -47.202  47.841  10.310  1.00  0.00     0.169 HD
BRANCH   5   9
HETATM    9  C4  UNL     1     -46.679  45.098   9.765  1.00  0.00     0.108 C
BRANCH   9  10
HETATM   10  C2  UNL     1     -47.642  45.214   8.602  1.00  0.00     0.123 C
HETATM   11  C3  UNL     1     -47.317  44.191   7.525  1.00  0.00     0.040 C
BRANCH  10  12
HETATM   12  O1  UNL     1     -47.389  46.468   8.005  1.00  0.00    -0.391 OA
HETATM   13  C1  UNL     1     -47.763  46.337   6.667  1.00  0.00     0.202 C
ENDBRANCH  10  12
ENDBRANCH   9  10
ENDBRANCH   5   9
ENDBRANCH   1   2
BRANCH   1  14
HETATM   14  C8  UNL     1     -47.671  49.934  12.566  1.00  0.00     0.183 A
HETATM   15  N2  UNL     1     -46.357  50.032  12.275  1.00  0.00    -0.169 N
HETATM   16  C9  UNL     1     -45.755  51.195  12.001  1.00  0.00     0.677 A
ATOM     17  H2  UNL     1     -45.797  49.179  12.263  1.00  0.00     0.186 HD
HETATM   18  N4  UNL     1     -46.519  52.310  12.023  1.00  0.00    -0.201 N
HETATM   19  C10 UNL     1     -47.830  52.281  12.304  1.00  0.00     0.129 A
ATOM     20  H4  UNL     1     -46.082  53.208  11.816  1.00  0.00     0.183 HD
HETATM   21  C11 UNL     1     -48.442  51.072  12.586  1.00  0.00     0.078 A
HETATM   22 BR1  UNL     1     -50.304  51.047  12.977  1.00  0.00    -0.045 Br
BRANCH  16  23
HETATM   23  N3  UNL     1     -44.499  51.307  11.720  1.00  0.00    -0.234 N
ATOM     24  H32 UNL     1     -44.191  51.123  10.765  1.00  0.00     0.174 HD
ATOM     25  H31 UNL     1     -43.786  51.569  12.401  1.00  0.00     0.174 HD
ENDBRANCH  16  23
ENDBRANCH   1  14
TORSDOF 6
ENDMDL