MODEL 1
REMARK VINA RESULT: -7.201060946      0.000      0.000
REMARK  7 active torsions:
REMARK  status: ('A' for Active; 'I' for Inactive)
REMARK    1  A    between atoms: N1_1  and  C1_4
REMARK    2  A    between atoms: C4_10  and  N3_11
REMARK    3  A    between atoms: N3_11  and  C5_13
REMARK    4  A    between atoms: C5_13  and  C6_14
REMARK    5  A    between atoms: C6_14  and  C7_15
REMARK    6  A    between atoms: C7_15  and  N4_16
REMARK    7  A    between atoms: C9_18  and  C10_19
ROOT
HETATM    1  C5  UNL     1     -48.618  44.870  11.835  1.00  0.00     0.123 C
ENDROOT
BRANCH   1   2
HETATM    2  N3  UNL     1     -47.443  44.642  11.040  1.00  0.00    -0.373 N
ATOM      3  H3  UNL     1     -46.604  44.284  11.497  1.00  0.00     0.161 HD
BRANCH   2   4
HETATM    4  C4  UNL     1     -47.407  44.874   9.759  1.00  0.00     0.157 A
HETATM    5  C3  UNL     1     -47.075  46.132   9.304  1.00  0.00     0.176 A
HETATM    6  C2  UNL     1     -47.036  46.383   7.948  1.00  0.00     0.152 A
HETATM    7  F1  UNL     1     -46.785  47.140  10.184  1.00  0.00    -0.201 F
HETATM    8  N2  UNL     1     -47.322  45.400   7.049  1.00  0.00    -0.199 N
HETATM    9  C1  UNL     1     -47.642  44.180   7.514  1.00  0.00     0.677 A
ATOM     10  H2  UNL     1     -47.293  45.585   6.046  1.00  0.00     0.183 HD
HETATM   11  N6  UNL     1     -47.682  43.927   8.841  1.00  0.00    -0.174 N
ATOM     12  H6  UNL     1     -47.929  42.989   9.159  1.00  0.00     0.186 HD
BRANCH   9  13
HETATM   13  N1  UNL     1     -47.909  43.265   6.631  1.00  0.00    -0.234 N
ATOM     14  H12 UNL     1     -47.354  43.156   5.781  1.00  0.00     0.174 HD
ATOM     15  H11 UNL     1     -48.703  42.655   6.823  1.00  0.00     0.174 HD
ENDBRANCH   9  13
ENDBRANCH   2   4
ENDBRANCH   1   2
BRANCH   1  16
HETATM   16  C6  UNL     1     -48.242  45.912  12.885  1.00  0.00     0.041 C
BRANCH  16  17
HETATM   17  C7  UNL     1     -49.500  46.644  13.370  1.00  0.00     0.150 C
BRANCH  17  18
HETATM   18  N4  UNL     1     -49.273  48.060  13.144  1.00  0.00    -0.303 N
HETATM   19  C8  UNL     1     -48.174  48.609  12.595  1.00  0.00     0.119 A
HETATM   20  C9  UNL     1     -48.312  49.998  12.538  1.00  0.00    -0.020 A
HETATM   21  C16 UNL     1     -49.552  50.232  13.084  1.00  0.00     0.116 A
HETATM   22  N5  UNL     1     -50.092  49.068  13.431  1.00  0.00    -0.310 N
ATOM     23  H5  UNL     1     -51.011  48.962  13.859  1.00  0.00     0.186 HD
BRANCH  20  24
HETATM   24  C10 UNL     1     -47.312  50.936  12.002  1.00  0.00     0.021 C
HETATM   25  C11 UNL     1     -45.895  50.390  12.211  1.00  0.00     0.009 C
HETATM   26  C12 UNL     1     -44.939  51.490  11.894  1.00  0.00     0.001 C
HETATM   27  C13 UNL     1     -45.565  52.544  11.038  1.00  0.00     0.000 C
HETATM   28  C14 UNL     1     -46.689  53.268  11.698  1.00  0.00     0.001 C
HETATM   29  C15 UNL     1     -47.425  52.308  12.610  1.00  0.00     0.009 C
ENDBRANCH  20  24
ENDBRANCH  17  18
ENDBRANCH  16  17
ENDBRANCH   1  16
TORSDOF 7
ENDMDL