MODEL 5
REMARK VINA RESULT: -5.308120266      4.047      5.562
REMARK  7 active torsions:
REMARK  status: ('A' for Active; 'I' for Inactive)
REMARK    1  A    between atoms: C2_2  and  C3_3
REMARK    2  A    between atoms: C6_6  and  N1_7
REMARK    3  A    between atoms: C7_8  and  S1_9
REMARK    4  A    between atoms: S1_9  and  C8_10
REMARK    5  A    between atoms: C8_10  and  C9_11
REMARK    6  A    between atoms: C9_11  and  N2_12
REMARK    7  A    between atoms: C10_20  and  N5_21
REMARK       I    between atoms: N5_21  and  C11_23
REMARK       I    between atoms: C11_23  and  N6_25
ROOT
HETATM    1  N1  UNL     1     -48.964  49.318  14.621  1.00  0.00    -0.154 N
HETATM    2  C7  UNL     1     -48.989  49.756  15.911  1.00  0.00     0.177 A
HETATM    3  N3  UNL     1     -48.730  51.075  15.926  1.00  0.00    -0.265 N
ATOM      4  H3  UNL     1     -48.686  51.662  16.759  1.00  0.00     0.189 HD
HETATM    5  N4  UNL     1     -48.544  51.482  14.693  1.00  0.00    -0.130 N
ATOM      6  H4  UNL     1     -48.332  52.435  14.398  1.00  0.00     0.205 HD
HETATM    7  C10 UNL     1     -48.685  50.413  13.891  1.00  0.00     0.705 A
ENDROOT
BRANCH   1   8
HETATM    8  C6  UNL     1     -49.197  47.966  14.251  1.00  0.00     0.110 C
HETATM    9  C5  UNL     1     -48.136  47.444  13.335  1.00  0.00     0.027 C
HETATM   10  C4  UNL     1     -48.315  45.948  13.101  1.00  0.00     0.006 C
HETATM   11  C3  UNL     1     -49.694  45.691  12.564  1.00  0.00    -0.015 C
HETATM   12  C13 UNL     1     -50.697  46.173  13.583  1.00  0.00     0.006 C
HETATM   13  C12 UNL     1     -50.547  47.699  13.653  1.00  0.00     0.027 C
BRANCH  11  14
HETATM   14  C2  UNL     1     -49.881  44.223  12.282  1.00  0.00     0.000 C
HETATM   15  C1  UNL     1     -48.796  43.420  12.921  1.00  0.00     0.005 C
ENDBRANCH  11  14
ENDBRANCH   1   8
BRANCH   2  16
HETATM   16  S1  UNL     1     -49.304  48.800  17.386  1.00  0.00    -0.090 SA
BRANCH  16  17
HETATM   17  C8  UNL     1     -48.205  49.426  18.685  1.00  0.00     0.109 C
BRANCH  17  18
HETATM   18  C9  UNL     1     -47.129  48.427  19.035  1.00  0.00     0.240 C
BRANCH  18  19
HETATM   19  N2  UNL     1     -45.868  49.144  19.077  1.00  0.00    -0.079 N
ATOM     20  H23 UNL     1     -45.618  49.455  20.016  1.00  0.00     0.274 HD
ATOM     21  H22 UNL     1     -45.061  48.540  18.918  1.00  0.00     0.274 HD
ATOM     22  H21 UNL     1     -45.931  49.911  18.408  1.00  0.00     0.274 HD
ENDBRANCH  18  19
ENDBRANCH  17  18
ENDBRANCH  16  17
ENDBRANCH   2  16
BRANCH   7  23
HETATM   23  N5  UNL     1     -48.579  50.392  12.613  1.00  0.00    -0.138 N
HETATM   24  C11 UNL     1     -47.464  50.951  11.969  1.00  0.00     0.362 C
HETATM   25  O1  UNL     1     -47.696  51.897  11.148  1.00  0.00    -0.244 OA
HETATM   26  N6  UNL     1     -46.128  50.536  12.171  1.00  0.00    -0.173 N
HETATM   27  F1  UNL     1     -45.112  51.124  11.513  1.00  0.00    -0.097 F
ATOM     28  H6  UNL     1     -45.931  49.779  12.825  1.00  0.00     0.204 HD
ATOM     29  H5  UNL     1     -49.317  49.962  12.056  1.00  0.00     0.189 HD
ENDBRANCH   7  23
TORSDOF 7
ENDMDL