MODEL 3
REMARK VINA RESULT: -6.711898115      1.002      1.165
REMARK  6 active torsions:
REMARK  status: ('A' for Active; 'I' for Inactive)
REMARK    1  A    between atoms: C2_2  and  C3_3
REMARK    2  A    between atoms: C3_3  and  C4_4
REMARK    3  A    between atoms: C4_4  and  N1_5
REMARK    4  A    between atoms: C6_8  and  C7_9
REMARK    5  A    between atoms: N3_10  and  N4_12
REMARK    6  A    between atoms: C8_14  and  C9_15
ROOT
HETATM    1  N1  UNL     1     -48.190  45.697  11.339  1.00  0.00    -0.287 N
HETATM    2  C5  UNL     1     -48.306  46.718  12.199  1.00  0.00     0.139 A
HETATM    3  N2  UNL     1     -47.953  48.026  11.790  1.00  0.00    -0.081 NA
HETATM    4  C6  UNL     1     -48.764  46.555  13.494  1.00  0.00     0.090 A
HETATM    5  C15 UNL     1     -49.114  45.296  13.917  1.00  0.00     0.264 A
HETATM    6  O1  UNL     1     -49.539  45.079  15.087  1.00  0.00    -0.267 OA
HETATM    7  N5  UNL     1     -48.990  44.277  13.033  1.00  0.00    -0.274 N
ATOM      8  H5  UNL     1     -49.244  43.333  13.325  1.00  0.00     0.173 HD
HETATM    9  C16 UNL     1     -48.540  44.473  11.780  1.00  0.00     0.330 A
HETATM   10  O2  UNL     1     -48.429  43.506  10.963  1.00  0.00    -0.246 OA
ENDROOT
BRANCH   4  11
HETATM   11  C7  UNL     1     -48.883  47.673  14.410  1.00  0.00     0.127 C
HETATM   12  N3  UNL     1     -49.655  48.683  14.143  1.00  0.00    -0.311 N
ATOM     13  H3  UNL     1     -50.193  48.704  13.277  1.00  0.00     0.186 HD
BRANCH  12  14
HETATM   14  N4  UNL     1     -49.743  49.738  15.049  1.00  0.00    -0.316 N
HETATM   15  C8  UNL     1     -49.332  50.898  14.691  1.00  0.00     0.087 C
ATOM     16  H4  UNL     1     -50.127  49.588  15.983  1.00  0.00     0.185 HD
BRANCH  15  17
HETATM   17  C9  UNL     1     -48.775  51.118  13.338  1.00  0.00     0.059 C
HETATM   18  C10 UNL     1     -49.347  52.393  12.741  1.00  0.00     0.013 C
HETATM   19  C11 UNL     1     -48.336  53.225  12.030  1.00  0.00     0.001 C
HETATM   20  C12 UNL     1     -47.329  52.450  11.238  1.00  0.00     0.003 C
HETATM   21  C13 UNL     1     -46.740  51.298  12.024  1.00  0.00     0.038 C
HETATM   22  C14 UNL     1     -47.279  51.314  13.458  1.00  0.00     0.179 C
HETATM   23  F1  UNL     1     -46.661  50.340  14.184  1.00  0.00    -0.249 F
ENDBRANCH  15  17
ENDBRANCH  12  14
ENDBRANCH   4  11
BRANCH   1  24
HETATM   24  C4  UNL     1     -47.703  45.966  10.010  1.00  0.00     0.135 C
BRANCH  24  25
HETATM   25  C3  UNL     1     -46.203  45.733   9.890  1.00  0.00     0.020 C
BRANCH  25  26
HETATM   26  C2  UNL     1     -45.910  45.541   8.417  1.00  0.00    -0.003 C
HETATM   27  C1  UNL     1     -47.124  45.818   7.564  1.00  0.00     0.005 C
ENDBRANCH  25  26
ENDBRANCH  24  25
ENDBRANCH   1  24
TORSDOF 6
ENDMDL