MODEL 3
REMARK VINA RESULT: -6.470676279      1.805      2.247
REMARK  6 active torsions:
REMARK  status: ('A' for Active; 'I' for Inactive)
REMARK    1  A    between atoms: C2_7  and  C3_8
REMARK    2  A    between atoms: C3_8  and  C4_9
REMARK    3  A    between atoms: C4_9  and  C5_10
REMARK    4  A    between atoms: C5_10  and  C6_11
REMARK    5  A    between atoms: C6_11  and  O1_12
REMARK    6  A    between atoms: N5_22  and  C10_23
ROOT
HETATM    1  N1  UNL     1     -50.276  44.561  12.553  1.00  0.00    -0.383 N
ATOM      2  H11 UNL     1     -50.982  44.833  13.238  1.00  0.00     0.157 HD
ATOM      3  H12 UNL     1     -50.276  43.658  12.079  1.00  0.00     0.157 HD
HETATM    4  C1  UNL     1     -49.308  45.374  12.235  1.00  0.00     0.131 A
HETATM    5  N2  UNL     1     -48.374  45.014  11.329  1.00  0.00    -0.330 N
ATOM      6  H2  UNL     1     -48.404  44.101  10.875  1.00  0.00     0.168 HD
HETATM    7  C2  UNL     1     -47.402  45.900  11.045  1.00  0.00     0.084 A
HETATM    8  N3  UNL     1     -47.368  47.103  11.650  1.00  0.00    -0.330 N
ATOM      9  H3  UNL     1     -46.618  47.754  11.414  1.00  0.00     0.168 HD
HETATM   10  C7  UNL     1     -48.292  47.474  12.554  1.00  0.00     0.142 A
HETATM   11  C8  UNL     1     -49.308  46.594  12.875  1.00  0.00     0.123 A
HETATM   12  N4  UNL     1     -50.097  47.192  13.795  1.00  0.00    -0.330 N
ATOM     13  H4  UNL     1     -50.929  46.783  14.221  1.00  0.00     0.168 HD
HETATM   14  C9  UNL     1     -49.602  48.416  14.055  1.00  0.00     0.158 A
HETATM   15 BR1  UNL     1     -50.327  49.692  15.281  1.00  0.00    -0.010 Br
HETATM   16  N5  UNL     1     -48.490  48.585  13.288  1.00  0.00    -0.306 N
ENDROOT
BRANCH   7  17
HETATM   17  C3  UNL     1     -46.361  45.495  10.032  1.00  0.00     0.076 C
BRANCH  17  18
HETATM   18  C4  UNL     1     -47.014  44.978   8.779  1.00  0.00     0.010 C
BRANCH  18  19
HETATM   19  C5  UNL     1     -46.738  45.823   7.570  1.00  0.00     0.026 C
BRANCH  19  20
HETATM   20  C6  UNL     1     -47.903  45.806   6.611  1.00  0.00     0.164 C
BRANCH  20  21
HETATM   21  O1  UNL     1     -48.449  47.093   6.528  1.00  0.00    -0.401 OA
ATOM     22  H1  UNL     1     -49.136  47.182   7.178  1.00  0.00     0.209 HD
ENDBRANCH  20  21
ENDBRANCH  19  20
ENDBRANCH  18  19
ENDBRANCH  17  18
ENDBRANCH   7  17
BRANCH  16  23
HETATM   23  C10 UNL     1     -47.659  49.745  13.258  1.00  0.00     0.094 A
HETATM   24  C11 UNL     1     -48.197  50.871  12.359  1.00  0.00     0.028 A
HETATM   25  C12 UNL     1     -46.888  50.176  12.093  1.00  0.00     0.028 A
ENDBRANCH  16  23
TORSDOF 6
ENDMDL