MODEL 1
REMARK VINA RESULT: -6.671437607      0.000      0.000
REMARK  6 active torsions:
REMARK  status: ('A' for Active; 'I' for Inactive)
REMARK    1  A    between atoms: N1_1  and  C1_4
REMARK    2  A    between atoms: C2_7  and  O1_8
REMARK    3  A    between atoms: O1_8  and  C3_9
REMARK    4  A    between atoms: C3_9  and  C4_10
REMARK    5  A    between atoms: C7_15  and  N4_16
REMARK    6  A    between atoms: N4_16  and  C8_18
ROOT
HETATM    1  C1  UNL     1     -49.104  45.310  12.215  1.00  0.00     0.123 A
HETATM    2  N2  UNL     1     -48.204  44.862  11.341  1.00  0.00    -0.307 N
ATOM      3  H2  UNL     1     -48.265  43.897  11.017  1.00  0.00     0.171 HD
HETATM    4  C2  UNL     1     -47.219  45.643  10.877  1.00  0.00     0.226 A
HETATM    5  N3  UNL     1     -47.152  46.930  11.320  1.00  0.00    -0.307 N
ATOM      6  H3  UNL     1     -46.405  47.528  10.967  1.00  0.00     0.171 HD
HETATM    7  C7  UNL     1     -48.018  47.444  12.191  1.00  0.00     0.127 A
HETATM    8  C12 UNL     1     -49.038  46.610  12.664  1.00  0.00     0.098 A
HETATM    9 BR1  UNL     1     -50.329  47.248  13.915  1.00  0.00    -0.043 Br
ENDROOT
BRANCH   7  10
HETATM   10  N4  UNL     1     -47.987  48.771  12.656  1.00  0.00    -0.349 N
ATOM     11  H4  UNL     1     -48.352  48.954  13.590  1.00  0.00     0.163 HD
BRANCH  10  12
HETATM   12  C8  UNL     1     -47.482  49.880  11.915  1.00  0.00     0.221 C
HETATM   13  C9  UNL     1     -46.227  50.503  12.470  1.00  0.00     0.056 C
HETATM   14  C10 UNL     1     -46.329  51.913  11.864  1.00  0.00     0.031 C
HETATM   15  C11 UNL     1     -47.802  52.110  11.826  1.00  0.00     0.170 C
HETATM   16  O2  UNL     1     -48.417  50.896  11.765  1.00  0.00    -0.367 OA
ENDBRANCH  10  12
ENDBRANCH   7  10
BRANCH   4  17
HETATM   17  O1  UNL     1     -46.296  45.174   9.977  1.00  0.00    -0.321 OA
BRANCH  17  18
HETATM   18  C3  UNL     1     -46.206  45.525   8.628  1.00  0.00     0.183 C
BRANCH  18  19
HETATM   19  C4  UNL     1     -47.583  45.521   8.014  1.00  0.00     0.010 A
HETATM   20  C5  UNL     1     -47.681  46.286   6.700  1.00  0.00     0.007 A
HETATM   21  C6  UNL     1     -47.766  44.810   6.660  1.00  0.00     0.007 A
ENDBRANCH  18  19
ENDBRANCH  17  18
ENDBRANCH   4  17
BRANCH   1  22
HETATM   22  N1  UNL     1     -50.055  44.538  12.658  1.00  0.00    -0.384 N
ATOM     23  H12 UNL     1     -50.904  44.429  12.102  1.00  0.00     0.157 HD
ATOM     24  H11 UNL     1     -49.963  44.045  13.547  1.00  0.00     0.157 HD
ENDBRANCH   1  22
TORSDOF 6
ENDMDL