MODEL 2
REMARK VINA RESULT: -5.470292922      0.767      1.127
REMARK  5 active torsions:
REMARK  status: ('A' for Active; 'I' for Inactive)
REMARK    1  A    between atoms: C3_5  and  C4_6
REMARK    2  A    between atoms: C4_6  and  S1_7
REMARK    3  A    between atoms: S1_7  and  C5_8
REMARK    4  A    between atoms: C5_8  and  C6_9
REMARK    5  A    between atoms: C6_9  and  N2_12
ROOT
HETATM    1  C4  UNL     1      24.630 -19.419  30.643  1.00  0.00     0.099 C
ENDROOT
BRANCH   1   2
HETATM    2  C3  UNL     1      23.415 -19.115  29.754  1.00  0.00     0.090 C
HETATM    3  N1  UNL     1      23.783 -19.378  28.409  1.00  0.00    -0.391 N
HETATM    4  C2  UNL     1      24.007 -18.519  27.513  1.00  0.00    -0.022 C
ATOM      5  H1  UNL     1      23.876 -20.357  28.141  1.00  0.00     0.159 HD
HETATM    6  C1  UNL     1      24.393 -18.915  26.110  1.00  0.00     0.062 C
HETATM    7  C11 UNL     1      23.878 -17.081  27.881  1.00  0.00     0.052 C
HETATM    8  C10 UNL     1      22.660 -16.945  28.745  1.00  0.00     0.008 C
HETATM    9  C9  UNL     1      22.879 -17.753  30.002  1.00  0.00     0.026 C
ENDBRANCH   1   2
BRANCH   1  10
HETATM   10  S1  UNL     1      24.111 -20.419  32.074  1.00  0.00    -0.165 SA
BRANCH  10  11
HETATM   11  C5  UNL     1      22.415 -20.938  31.805  1.00  0.00     0.111 C
BRANCH  11  12
HETATM   12  C6  UNL     1      21.478 -20.351  32.844  1.00  0.00     0.125 C
HETATM   13  C7  UNL     1      22.270 -19.672  33.939  1.00  0.00     0.046 C
HETATM   14  C8  UNL     1      20.615 -21.404  33.467  1.00  0.00     0.046 C
BRANCH  12  15
HETATM   15  N2  UNL     1      20.616 -19.336  32.243  1.00  0.00    -0.070 N
ATOM     16  H23 UNL     1      20.351 -19.581  31.289  1.00  0.00     0.275 HD
ATOM     17  H22 UNL     1      19.686 -19.331  32.663  1.00  0.00     0.275 HD
ATOM     18  H21 UNL     1      21.057 -18.417  32.290  1.00  0.00     0.275 HD
ENDBRANCH  12  15
ENDBRANCH  11  12
ENDBRANCH  10  11
ENDBRANCH   1  10
TORSDOF 5
ENDMDL