MODEL 5
REMARK VINA RESULT: -5.101083161      1.946      2.338
REMARK  4 active torsions:
REMARK  status: ('A' for Active; 'I' for Inactive)
REMARK    1  A    between atoms: C2_2  and  C3_3
REMARK    2  A    between atoms: C2_2  and  C4_5
REMARK    3  A    between atoms: C4_5  and  C7_8
REMARK    4  A    between atoms: C7_8  and  C8_9
ROOT
HETATM    1  C8  UNL     1      23.341 -20.452  31.530  1.00  0.00     0.022 C
HETATM    2  N1  UNL     1      24.524 -20.650  31.941  1.00  0.00    -0.309 N
ATOM      3  H1  UNL     1      24.690 -21.305  32.705  1.00  0.00     0.186 HD
HETATM    4  N2  UNL     1      25.600 -19.983  31.363  1.00  0.00    -0.336 N
ATOM      5  H2  UNL     1      26.471 -20.486  31.195  1.00  0.00     0.180 HD
HETATM    6  C9  UNL     1      25.501 -18.582  30.996  1.00  0.00     0.139 C
HETATM    7  C10 UNL     1      24.050 -18.213  30.801  1.00  0.00     0.027 C
HETATM    8  C11 UNL     1      23.318 -19.475  30.359  1.00  0.00     0.060 C
ENDROOT
BRANCH   1   9
HETATM    9  C7  UNL     1      22.078 -21.015  31.960  1.00  0.00     0.009 C
BRANCH   9  10
HETATM   10  C4  UNL     1      21.171 -20.325  32.884  1.00  0.00    -0.024 C
HETATM   11  C5  UNL     1      21.874 -19.813  34.141  1.00  0.00     0.019 C
HETATM   12  C6  UNL     1      20.332 -21.506  33.513  1.00  0.00     0.019 C
BRANCH  10  13
HETATM   13  C2  UNL     1      20.134 -19.402  32.393  1.00  0.00     0.003 C
HETATM   14  C1  UNL     1      20.468 -17.945  32.271  1.00  0.00     0.012 C
BRANCH  13  15
HETATM   15  C3  UNL     1      18.835 -19.463  33.185  1.00  0.00     0.091 C
HETATM   16  S1  UNL     1      17.412 -19.160  32.055  1.00  0.00    -0.097 SA
ENDBRANCH  13  15
ENDBRANCH  10  13
ENDBRANCH   9  10
ENDBRANCH   1   9
TORSDOF 4
ENDMDL