MODEL 5
REMARK VINA RESULT: -4.335991314      2.101      2.649
REMARK  5 active torsions:
REMARK  status: ('A' for Active; 'I' for Inactive)
REMARK    1  A    between atoms: C2_2  and  S1_3
REMARK    2  A    between atoms: S1_3  and  C3_4
REMARK    3  A    between atoms: C3_4  and  C4_5
REMARK    4  A    between atoms: C10_11  and  C11_12
REMARK    5  A    between atoms: C11_12  and  O1_13
ROOT
HETATM    1  C4  UNL     1      22.542 -18.454  31.895  1.00  0.00     0.086 C
HETATM    2  C5  UNL     1      21.328 -17.916  31.183  1.00  0.00     0.025 C
HETATM    3  C6  UNL     1      20.301 -17.336  32.122  1.00  0.00     0.002 C
HETATM    4  C7  UNL     1      19.166 -18.313  32.209  1.00  0.00     0.000 C
HETATM    5  C8  UNL     1      19.444 -19.266  33.357  1.00  0.00     0.002 C
HETATM    6  C9  UNL     1      20.284 -20.431  32.975  1.00  0.00     0.027 C
HETATM    7  C10 UNL     1      21.750 -20.303  33.255  1.00  0.00     0.100 C
HETATM    8  N1  UNL     1      22.494 -19.876  32.105  1.00  0.00    -0.410 N
ATOM      9  H1  UNL     1      22.958 -20.535  31.480  1.00  0.00     0.154 HD
ENDROOT
BRANCH   1  10
HETATM   10  C3  UNL     1      23.750 -18.245  30.985  1.00  0.00     0.098 C
BRANCH  10  11
HETATM   11  S1  UNL     1      23.495 -18.867  29.324  1.00  0.00    -0.167 SA
BRANCH  11  12
HETATM   12  C2  UNL     1      23.494 -17.472  28.151  1.00  0.00     0.069 C
HETATM   13  C1  UNL     1      22.577 -17.811  26.982  1.00  0.00     0.016 C
ENDBRANCH  11  12
ENDBRANCH  10  11
ENDBRANCH   1  10
BRANCH   7  14
HETATM   14  C11 UNL     1      22.086 -19.592  34.525  1.00  0.00     0.188 C
BRANCH  14  15
HETATM   15  O1  UNL     1      22.447 -20.526  35.486  1.00  0.00    -0.399 OA
ATOM     16  H1  UNL     1      21.730 -21.135  35.615  1.00  0.00     0.209 HD
ENDBRANCH  14  15
ENDBRANCH   7  14
TORSDOF 5
ENDMDL