MODEL 2
REMARK VINA RESULT: -5.141672162      1.991      2.774
REMARK  4 active torsions:
REMARK  status: ('A' for Active; 'I' for Inactive)
REMARK    1  A    between atoms: C2_2  and  C4_4
REMARK    2  A    between atoms: C4_4  and  C5_5
REMARK    3  A    between atoms: C5_5  and  N1_6
REMARK    4  A    between atoms: N1_6  and  C6_8
ROOT
HETATM    1  C6  UNL     1      22.073 -19.169  32.225  1.00  0.00     0.086 C
HETATM    2  C7  UNL     1      21.058 -18.059  32.079  1.00  0.00     0.105 C
HETATM    3  S1  UNL     1      19.480 -18.488  32.887  1.00  0.00    -0.115 SA
HETATM    4  C8  UNL     1      19.214 -20.231  32.509  1.00  0.00     0.044 C
HETATM    5  N2  UNL     1      18.067 -20.651  32.227  1.00  0.00    -0.397 N
ATOM      6  H21 UNL     1      17.916 -21.637  32.012  1.00  0.00     0.156 HD
ATOM      7  H22 UNL     1      17.229 -20.070  32.188  1.00  0.00     0.156 HD
HETATM    8  C9  UNL     1      20.447 -21.086  32.565  1.00  0.00     0.040 C
HETATM    9  C10 UNL     1      20.160 -22.178  33.608  1.00  0.00     0.017 C
HETATM   10  C11 UNL     1      21.613 -20.318  33.064  1.00  0.00     0.036 C
ENDROOT
BRANCH   1  11
HETATM   11  N1  UNL     1      22.599 -19.551  30.965  1.00  0.00    -0.416 N
ATOM     12  H1  UNL     1      22.403 -20.465  30.556  1.00  0.00     0.153 HD
BRANCH  11  13
HETATM   13  C5  UNL     1      23.421 -18.583  30.296  1.00  0.00     0.114 C
BRANCH  13  14
HETATM   14  C4  UNL     1      23.363 -18.781  28.825  1.00  0.00     0.023 C
BRANCH  14  15
HETATM   15  C2  UNL     1      22.874 -17.573  28.049  1.00  0.00    -0.021 C
HETATM   16  C1  UNL     1      24.076 -16.624  27.990  1.00  0.00     0.009 C
HETATM   17  C3  UNL     1      22.478 -17.924  26.632  1.00  0.00     0.009 C
ENDBRANCH  14  15
ENDBRANCH  13  14
ENDBRANCH  11  13
ENDBRANCH   1  11
TORSDOF 4
ENDMDL