MODEL 5
REMARK VINA RESULT: -5.229599078      1.464      2.361
REMARK  6 active torsions:
REMARK  status: ('A' for Active; 'I' for Inactive)
REMARK    1  A    between atoms: C2_2  and  C3_3
REMARK    2  A    between atoms: C2_2  and  C4_6
REMARK    3  A    between atoms: C3_3  and  O1_4
REMARK    4  A    between atoms: C4_6  and  O2_7
REMARK    5  A    between atoms: C4_6  and  C5_9
REMARK    6  A    between atoms: C6_10  and  C7_11
ROOT
HETATM    1  C4  UNL     1      24.065 -18.603  29.499  1.00  0.00     0.146 C
ENDROOT
BRANCH   1   2
HETATM    2  C2  UNL     1      23.457 -17.321  28.981  1.00  0.00     0.038 C
HETATM    3  C1  UNL     1      22.141 -17.016  29.640  1.00  0.00     0.015 C
BRANCH   2   4
HETATM    4  C3  UNL     1      23.270 -17.423  27.467  1.00  0.00     0.171 C
BRANCH   4   5
HETATM    5  O1  UNL     1      22.005 -17.833  27.122  1.00  0.00    -0.400 OA
ATOM      6  H1  UNL     1      22.014 -18.572  26.526  1.00  0.00     0.209 HD
ENDBRANCH   4   5
ENDBRANCH   2   4
ENDBRANCH   1   2
BRANCH   1   7
HETATM    7  O2  UNL     1      24.002 -19.639  28.599  1.00  0.00    -0.391 OA
ATOM      8  H2  UNL     1      24.315 -20.464  28.951  1.00  0.00     0.210 HD
ENDBRANCH   1   7
BRANCH   1   9
HETATM    9  C5  UNL     1      23.417 -18.915  30.796  1.00  0.00     0.001 C
HETATM   10  C6  UNL     1      23.063 -20.138  31.158  1.00  0.00    -0.023 C
BRANCH  10  11
HETATM   11  C7  UNL     1      22.421 -20.344  32.477  1.00  0.00     0.017 C
HETATM   12  C8  UNL     1      21.256 -21.288  32.421  1.00  0.00     0.010 C
HETATM   13  C9  UNL     1      19.926 -20.601  32.276  1.00  0.00     0.011 C
HETATM   14  C10 UNL     1      19.452 -20.129  33.650  1.00  0.00     0.074 C
HETATM   15  S1  UNL     1      20.864 -19.235  34.382  1.00  0.00    -0.168 SA
HETATM   16  C11 UNL     1      22.059 -18.985  33.018  1.00  0.00     0.082 C
ENDBRANCH  10  11
ENDBRANCH   1   9
TORSDOF 6
ENDMDL