MODEL 5
REMARK VINA RESULT: -5.256110715      1.891      3.337
REMARK  5 active torsions:
REMARK  status: ('A' for Active; 'I' for Inactive)
REMARK    1  A    between atoms: O1_1  and  N1_3
REMARK    2  A    between atoms: C1_5  and  C2_6
REMARK    3  A    between atoms: C2_6  and  C3_7
REMARK    4  A    between atoms: C3_7  and  N2_8
REMARK    5  A    between atoms: N2_8  and  C4_10
ROOT
HETATM    1  C4  UNL     1      22.043 -19.558  32.686  1.00  0.00     0.030 C
HETATM    2  C5  UNL     1      21.479 -20.912  32.197  1.00  0.00     0.035 C
HETATM    3  C6  UNL     1      20.206 -21.297  32.836  1.00  0.00    -0.012 C
HETATM    4  C7  UNL     1      19.145 -20.276  32.571  1.00  0.00     0.009 C
HETATM    5  C8  UNL     1      19.672 -18.931  33.046  1.00  0.00    -0.012 C
HETATM    6  C9  UNL     1      19.815 -19.031  34.547  1.00  0.00     0.009 C
HETATM    7  C10 UNL     1      20.888 -20.068  34.811  1.00  0.00    -0.012 C
HETATM    8  C11 UNL     1      20.469 -21.417  34.328  1.00  0.00     0.009 C
HETATM    9  C12 UNL     1      22.172 -19.593  34.159  1.00  0.00     0.035 C
HETATM   10  C13 UNL     1      20.935 -18.557  32.357  1.00  0.00     0.035 C
ENDROOT
BRANCH   1  11
HETATM   11  N2  UNL     1      23.177 -19.369  31.891  1.00  0.00    -0.393 N
ATOM     12  H2  UNL     1      24.071 -19.310  32.379  1.00  0.00     0.159 HD
BRANCH  11  13
HETATM   13  C3  UNL     1      23.215 -19.253  30.522  1.00  0.00     0.061 C
BRANCH  13  14
HETATM   14  C2  UNL     1      23.652 -17.917  30.012  1.00  0.00     0.090 C
BRANCH  14  15
HETATM   15  C1  UNL     1      24.031 -17.983  28.563  1.00  0.00     0.091 C
HETATM   16  N1  UNL     1      23.937 -19.088  27.912  1.00  0.00    -0.284 N
ATOM     17  H1  UNL     1      23.604 -19.934  28.374  1.00  0.00     0.192 HD
BRANCH  16  18
HETATM   18  O1  UNL     1      24.291 -19.112  26.589  1.00  0.00    -0.291 OA
ATOM     19  H1  UNL     1      24.626 -19.919  26.217  1.00  0.00     0.244 HD
ENDBRANCH  16  18
ENDBRANCH  14  15
ENDBRANCH  13  14
ENDBRANCH  11  13
ENDBRANCH   1  11
TORSDOF 5
ENDMDL