MODEL 1
REMARK VINA RESULT: -5.778947832      0.000      0.000
REMARK  5 active torsions:
REMARK  status: ('A' for Active; 'I' for Inactive)
REMARK    1  A    between atoms: C2_2  and  C3_3
REMARK    2  A    between atoms: C3_3  and  C4_4
REMARK    3  A    between atoms: C4_4  and  C5_5
REMARK    4  A    between atoms: C5_5  and  C6_6
REMARK    5  A    between atoms: C6_6  and  O1_7
ROOT
HETATM    1  C6  UNL     1      23.328 -19.180  31.035  1.00  0.00     0.112 C
HETATM    2  C7  UNL     1      23.185 -20.711  31.297  1.00  0.00     0.052 C
HETATM    3  C8  UNL     1      21.807 -21.053  31.874  1.00  0.00     0.031 C
HETATM    4  C9  UNL     1      21.379 -20.504  33.134  1.00  0.00     0.235 C
HETATM    5  N1  UNL     1      20.599 -19.291  33.248  1.00  0.00    -0.049 N
ATOM      6  H11 UNL     1      20.344 -19.111  34.219  1.00  0.00     0.279 HD
ATOM      7  H12 UNL     1      19.667 -19.418  32.851  1.00  0.00     0.279 HD
HETATM    8  C10 UNL     1      21.274 -18.100  32.648  1.00  0.00     0.360 C
HETATM    9  C11 UNL     1      20.145 -17.384  31.984  1.00  0.00     0.104 C
HETATM   10  N2  UNL     1      19.276 -16.834  31.449  1.00  0.00    -0.194 NA
HETATM   11  C12 UNL     1      22.342 -18.527  31.835  1.00  0.00    -0.098 C
ENDROOT
BRANCH   1  12
HETATM   12  C5  UNL     1      23.216 -18.853  29.591  1.00  0.00     0.050 C
BRANCH  12  13
HETATM   13  C4  UNL     1      22.996 -17.489  29.127  1.00  0.00     0.004 C
BRANCH  13  14
HETATM   14  C3  UNL     1      23.675 -17.087  27.841  1.00  0.00    -0.000 C
BRANCH  14  15
HETATM   15  C2  UNL     1      23.600 -18.207  26.806  1.00  0.00    -0.005 C
HETATM   16  C1  UNL     1      22.351 -18.034  25.979  1.00  0.00     0.005 C
ENDBRANCH  14  15
ENDBRANCH  13  14
ENDBRANCH  12  13
ENDBRANCH   1  12
BRANCH   1  17
HETATM   17  O1  UNL     1      24.666 -18.919  31.375  1.00  0.00    -0.378 OA
ATOM     18  H1  UNL     1      25.185 -19.319  30.688  1.00  0.00     0.211 HD
ENDBRANCH   1  17
TORSDOF 5
ENDMDL