MODEL 5
REMARK VINA RESULT: -7.301306928      2.076      4.086
REMARK  3 active torsions:
REMARK  status: ('A' for Active; 'I' for Inactive)
REMARK    1  A    between atoms: C12_12  and  C14_14
REMARK    2  A    between atoms: C14_14  and  O2_16
REMARK    3  A    between atoms: C17_19  and  O3_20
ROOT
HETATM    1  C1  UNL     1     -31.668  17.074 -16.935  1.00  0.00     0.017 C
HETATM    2  C2  UNL     1     -30.875  17.138 -17.989  1.00  0.00    -0.060 C
HETATM    3  C3  UNL     1     -30.991  16.258 -19.189  1.00  0.00     0.045 C
HETATM    4  C4  UNL     1     -29.624  16.437 -19.881  1.00  0.00    -0.034 C
HETATM    5  C5  UNL     1     -28.720  15.469 -19.269  1.00  0.00     0.016 C
HETATM    6  C6  UNL     1     -29.684  16.275 -21.355  1.00  0.00     0.010 C
HETATM    7  C7  UNL     1     -29.485  17.500 -22.150  1.00  0.00     0.007 C
HETATM    8  C8  UNL     1     -28.481  18.480 -21.711  1.00  0.00     0.008 C
HETATM    9  C9  UNL     1     -28.294  18.565 -20.189  1.00  0.00    -0.002 C
HETATM   10  C10 UNL     1     -26.934  18.081 -19.918  1.00  0.00     0.007 C
HETATM   11  C11 UNL     1     -26.355  17.578 -21.248  1.00  0.00     0.020 C
HETATM   12  C12 UNL     1     -27.118  18.331 -22.276  1.00  0.00     0.048 C
HETATM   13  C13 UNL     1     -27.082  17.697 -23.636  1.00  0.00     0.026 C
HETATM   14  C16 UNL     1     -29.437  17.890 -19.596  1.00  0.00     0.031 C
HETATM   15  C17 UNL     1     -29.743  18.093 -18.145  1.00  0.00     0.151 C
ENDROOT
BRANCH  12  16
HETATM   16  C14 UNL     1     -26.483  19.692 -22.396  1.00  0.00     0.267 C
HETATM   17  O1  UNL     1     -27.158  20.704 -22.690  1.00  0.00    -0.264 OA
BRANCH  16  18
HETATM   18  O2  UNL     1     -25.125  19.873 -22.185  1.00  0.00    -0.326 OA
HETATM   19  C15 UNL     1     -24.604  21.004 -21.509  1.00  0.00     0.213 C
ENDBRANCH  16  18
ENDBRANCH  12  16
BRANCH  15  20
HETATM   20  O3  UNL     1     -28.713  17.903 -17.287  1.00  0.00    -0.391 OA
ATOM     21  H3  UNL     1     -28.874  17.264 -16.602  1.00  0.00     0.210 HD
ENDBRANCH  15  20
TORSDOF 3
ENDMDL