MODEL 2
REMARK VINA RESULT: -5.706383474      1.120      1.229
REMARK  3 active torsions:
REMARK  status: ('A' for Active; 'I' for Inactive)
REMARK    1  A    between atoms: N1_2  and  C2_4
REMARK    2  A    between atoms: C2_4  and  C3_6
REMARK    3  A    between atoms: C3_6  and  C4_7
ROOT
HETATM    1  C3  UNL     1     -28.942  18.154 -20.221  1.00  0.00     0.113 C
HETATM    2  S2  UNL     1     -29.556  16.540 -20.750  1.00  0.00    -0.140 SA
HETATM    3  C10 UNL     1     -29.756  15.360 -19.436  1.00  0.00     0.076 C
HETATM    4  C11 UNL     1     -28.880  15.569 -18.246  1.00  0.00     0.020 C
HETATM    5  C12 UNL     1     -27.548  16.188 -18.571  1.00  0.00     0.076 C
HETATM    6  S3  UNL     1     -27.808  17.942 -18.873  1.00  0.00    -0.140 SA
ENDROOT
BRANCH   1   7
HETATM    7  C2  UNL     1     -30.142  18.895 -19.687  1.00  0.00     0.102 C
HETATM    8  S1  UNL     1     -31.589  18.839 -20.416  1.00  0.00    -0.063 SA
BRANCH   7   9
HETATM    9  N1  UNL     1     -29.984  19.664 -18.502  1.00  0.00    -0.387 N
HETATM   10  C1  UNL     1     -30.019  21.109 -18.544  1.00  0.00     0.147 C
ATOM     11  H1  UNL     1     -29.844  19.190 -17.610  1.00  0.00     0.159 HD
ENDBRANCH   7   9
ENDBRANCH   1   7
BRANCH   1  12
HETATM   12  C4  UNL     1     -28.455  18.897 -21.389  1.00  0.00     0.029 C
HETATM   13  C5  UNL     1     -27.467  20.036 -21.096  1.00  0.00     0.009 C
HETATM   14  C6  UNL     1     -27.001  19.815 -22.546  1.00  0.00     0.010 C
HETATM   15  C7  UNL     1     -27.463  18.359 -22.332  1.00  0.00    -0.041 C
HETATM   16  C8  UNL     1     -28.049  17.826 -23.619  1.00  0.00     0.015 C
HETATM   17  C9  UNL     1     -26.306  17.561 -21.867  1.00  0.00     0.015 C
ENDBRANCH   1  12
TORSDOF 3
ENDMDL