MODEL 3
REMARK VINA RESULT: -6.800449380      2.000      4.303
REMARK  3 active torsions:
REMARK  status: ('A' for Active; 'I' for Inactive)
REMARK    1  A    between atoms: C7_8  and  C8_9
REMARK    2  A    between atoms: C8_9  and  O2_10
REMARK    3  A    between atoms: C11_14  and  C12_15
ROOT
HETATM    1  C1  UNL     1     -32.843  15.655 -17.832  1.00  0.00     0.010 C
HETATM    2  C2  UNL     1     -32.297  15.979 -19.174  1.00  0.00    -0.009 C
HETATM    3  C3  UNL     1     -31.053  15.178 -19.579  1.00  0.00     0.073 C
HETATM    4  C4  UNL     1     -30.633  16.466 -20.291  1.00  0.00     0.166 C
HETATM    5  C5  UNL     1     -31.386  17.202 -19.231  1.00  0.00     0.073 C
HETATM    6  O1  UNL     1     -31.196  16.481 -21.559  1.00  0.00    -0.347 OA
HETATM    7  C6  UNL     1     -30.175  15.866 -22.310  1.00  0.00     0.160 C
HETATM    8  C7  UNL     1     -30.425  15.977 -23.748  1.00  0.00     0.041 C
HETATM    9  C9  UNL     1     -29.699  17.019 -24.503  1.00  0.00     0.010 C
HETATM   10  C10 UNL     1     -28.429  17.498 -23.899  1.00  0.00     0.009 C
HETATM   11  C11 UNL     1     -28.719  17.813 -22.443  1.00  0.00     0.024 C
HETATM   12  C16 UNL     1     -28.958  16.509 -21.764  1.00  0.00     0.159 C
HETATM   13  O3  UNL     1     -29.295  16.678 -20.399  1.00  0.00    -0.347 OA
ENDROOT
BRANCH   8  14
HETATM   14  C8  UNL     1     -30.181  14.603 -24.388  1.00  0.00     0.171 C
BRANCH  14  15
HETATM   15  O2  UNL     1     -29.951  14.812 -25.728  1.00  0.00    -0.400 OA
ATOM     16  H2  UNL     1     -30.154  14.000 -26.179  1.00  0.00     0.209 HD
ENDBRANCH  14  15
ENDBRANCH   8  14
BRANCH  11  17
HETATM   17  C12 UNL     1     -27.577  18.604 -21.886  1.00  0.00    -0.045 C
HETATM   18  C13 UNL     1     -28.001  19.411 -20.680  1.00  0.00     0.015 C
HETATM   19  C14 UNL     1     -27.164  19.618 -22.953  1.00  0.00     0.015 C
HETATM   20  C15 UNL     1     -26.362  17.777 -21.572  1.00  0.00     0.015 C
ENDBRANCH  11  17
TORSDOF 3
ENDMDL