MODEL 2
REMARK VINA RESULT: -7.148522494      2.177      6.564
REMARK  2 active torsions:
REMARK  status: ('A' for Active; 'I' for Inactive)
REMARK    1  A    between atoms: C6_6  and  N1_7
REMARK    2  A    between atoms: C9_11  and  O1_13
ROOT
HETATM    1  N1  UNL     1     -27.537  18.681 -18.890  1.00  0.00    -0.370 N
ATOM      2  H1  UNL     1     -27.004  19.039 -18.099  1.00  0.00     0.161 HD
HETATM    3  C7  UNL     1     -26.883  18.317 -19.936  1.00  0.00     0.117 C
HETATM    4  C8  UNL     1     -27.592  17.787 -21.122  1.00  0.00     0.121 C
HETATM    5  C9  UNL     1     -27.023  18.373 -22.397  1.00  0.00     0.064 C
HETATM    6  C10 UNL     1     -27.508  17.488 -23.543  1.00  0.00     0.046 C
HETATM    7  C11 UNL     1     -25.533  18.374 -22.418  1.00  0.00     0.075 C
HETATM    8  C12 UNL     1     -24.900  18.892 -21.175  1.00  0.00     0.064 C
HETATM    9  C13 UNL     1     -24.912  20.404 -21.087  1.00  0.00     0.046 C
HETATM   10  C14 UNL     1     -23.425  18.478 -21.088  1.00  0.00     0.046 C
HETATM   11  O2  UNL     1     -25.503  18.404 -19.995  1.00  0.00    -0.329 OA
ENDROOT
BRANCH   1  12
HETATM   12  C6  UNL     1     -28.954  18.618 -18.761  1.00  0.00     0.083 C
HETATM   13  C5  UNL     1     -29.493  20.022 -18.969  1.00  0.00     0.026 C
HETATM   14  C4  UNL     1     -30.988  19.925 -18.648  1.00  0.00     0.011 C
HETATM   15  C2  UNL     1     -31.094  19.861 -17.146  1.00  0.00    -0.048 C
HETATM   16  C1  UNL     1     -32.470  19.324 -16.811  1.00  0.00     0.015 C
HETATM   17  C3  UNL     1     -31.007  21.267 -16.580  1.00  0.00     0.015 C
HETATM   18  C16 UNL     1     -29.995  19.056 -16.515  1.00  0.00     0.011 C
HETATM   19  C15 UNL     1     -29.373  18.052 -17.431  1.00  0.00     0.026 C
ENDBRANCH   1  12
BRANCH   5  20
HETATM   20  O1  UNL     1     -27.560  19.643 -22.622  1.00  0.00    -0.390 OA
ATOM     21  H1  UNL     1     -27.242  19.989 -23.447  1.00  0.00     0.210 HD
ENDBRANCH   5  20
TORSDOF 2
ENDMDL