MODEL 3
REMARK VINA RESULT: -7.402333831      1.457      5.153
REMARK  2 active torsions:
REMARK  status: ('A' for Active; 'I' for Inactive)
REMARK    1  A    between atoms: C1_2  and  C2_3
REMARK    2  A    between atoms: C6_7  and  O2_8
ROOT
HETATM    1  C2  UNL     1     -29.128  16.770 -24.928  1.00  0.00     0.071 C
HETATM    2  C3  UNL     1     -27.850  16.922 -24.142  1.00  0.00     0.013 C
HETATM    3  C4  UNL     1     -27.629  18.333 -23.657  1.00  0.00     0.003 C
HETATM    4  C5  UNL     1     -26.705  18.257 -22.454  1.00  0.00     0.032 C
HETATM    5  C6  UNL     1     -27.291  18.985 -21.267  1.00  0.00     0.118 C
HETATM    6  C7  UNL     1     -26.460  18.599 -20.058  1.00  0.00     0.032 C
HETATM    7  C8  UNL     1     -27.387  18.319 -18.871  1.00  0.00     0.002 C
HETATM    8  C9  UNL     1     -27.598  16.858 -18.658  1.00  0.00     0.000 C
HETATM    9  C10 UNL     1     -28.744  16.290 -19.439  1.00  0.00     0.000 C
HETATM   10  C11 UNL     1     -30.072  16.756 -18.896  1.00  0.00     0.000 C
HETATM   11  C12 UNL     1     -31.210  16.350 -19.761  1.00  0.00     0.000 C
HETATM   12  C13 UNL     1     -31.048  15.026 -20.430  1.00  0.00     0.002 C
HETATM   13  C14 UNL     1     -31.994  14.840 -21.572  1.00  0.00     0.026 C
HETATM   14  C15 UNL     1     -31.785  15.800 -22.695  1.00  0.00     0.167 C
HETATM   15  O3  UNL     1     -30.531  15.665 -23.307  1.00  0.00    -0.390 OA
HETATM   16  C16 UNL     1     -30.332  16.847 -24.028  1.00  0.00     0.179 C
ENDROOT
BRANCH   1  17
HETATM   17  C1  UNL     1     -29.093  15.543 -25.740  1.00  0.00     0.237 C
HETATM   18  O1  UNL     1     -28.156  14.766 -25.704  1.00  0.00    -0.306 OA
ENDBRANCH   1  17
BRANCH   5  19
HETATM   19  O2  UNL     1     -27.208  20.349 -21.529  1.00  0.00    -0.396 OA
ATOM     20  H2  UNL     1     -26.488  20.697 -21.017  1.00  0.00     0.210 HD
ENDBRANCH   5  19
TORSDOF 2
ENDMDL