MODEL 3
REMARK VINA RESULT: -6.990830892      1.480      3.839
REMARK  2 active torsions:
REMARK  status: ('A' for Active; 'I' for Inactive)
REMARK    1  A    between atoms: C14_15  and  C16_17
REMARK    2  A    between atoms: C16_17  and  O2_18
ROOT
HETATM    1  C1  UNL     1     -27.926  15.601 -18.645  1.00  0.00     0.040 C
HETATM    2  C2  UNL     1     -28.082  16.386 -19.965  1.00  0.00     0.124 C
HETATM    3  O1  UNL     1     -28.076  17.648 -19.708  1.00  0.00    -0.380 OA
HETATM    4  C3  UNL     1     -27.489  18.698 -20.163  1.00  0.00     0.132 C
HETATM    5  C4  UNL     1     -28.418  19.900 -19.875  1.00  0.00     0.036 C
HETATM    6  C5  UNL     1     -29.598  19.455 -18.995  1.00  0.00     0.040 C
HETATM    7  C6  UNL     1     -30.521  18.517 -19.792  1.00  0.00     0.058 C
HETATM    8  C7  UNL     1     -31.820  19.321 -19.984  1.00  0.00     0.046 C
HETATM    9  C8  UNL     1     -30.823  17.335 -18.957  1.00  0.00     0.038 C
HETATM   10  C9  UNL     1     -30.524  16.004 -19.540  1.00  0.00     0.013 C
HETATM   11  C10 UNL     1     -29.448  16.021 -20.573  1.00  0.00     0.043 C
HETATM   12  C11 UNL     1     -29.814  17.124 -21.536  1.00  0.00     0.129 C
HETATM   13  C12 UNL     1     -28.699  17.197 -22.571  1.00  0.00     0.033 C
HETATM   14  C13 UNL     1     -28.031  18.512 -22.623  1.00  0.00     0.016 C
HETATM   15  C14 UNL     1     -27.045  18.844 -21.577  1.00  0.00     0.004 C
HETATM   16  C15 UNL     1     -26.793  20.361 -21.751  1.00  0.00     0.020 C
HETATM   17  O3  UNL     1     -29.976  18.340 -20.999  1.00  0.00    -0.375 OA
ENDROOT
BRANCH  15  18
HETATM   18  C16 UNL     1     -25.658  18.234 -21.838  1.00  0.00     0.175 C
BRANCH  18  19
HETATM   19  O2  UNL     1     -25.063  18.091 -20.608  1.00  0.00    -0.400 OA
ATOM     20  H2  UNL     1     -24.128  18.038 -20.769  1.00  0.00     0.209 HD
ENDBRANCH  18  19
ENDBRANCH  15  18
TORSDOF 2
ENDMDL