MODEL 1
REMARK VINA RESULT: -7.830449643      0.000      0.000
REMARK  2 active torsions:
REMARK  status: ('A' for Active; 'I' for Inactive)
REMARK    1  A    between atoms: O1_1  and  C1_3
REMARK    2  A    between atoms: N1_14  and  C11_15
ROOT
HETATM    1  C1  UNL     1     -29.480  16.273 -20.261  1.00  0.00     0.184 C
HETATM    2  C2  UNL     1     -30.208  16.580 -18.996  1.00  0.00     0.037 C
HETATM    3  C3  UNL     1     -31.691  16.476 -19.059  1.00  0.00     0.003 C
HETATM    4  C4  UNL     1     -32.392  17.749 -18.634  1.00  0.00     0.002 C
HETATM    5  C5  UNL     1     -31.788  18.974 -19.269  1.00  0.00     0.026 C
HETATM    6  C6  UNL     1     -31.299  18.696 -20.679  1.00  0.00     0.171 C
HETATM    7  O2  UNL     1     -29.946  18.609 -20.654  1.00  0.00    -0.350 OA
HETATM    8  C7  UNL     1     -29.371  17.486 -21.201  1.00  0.00     0.287 C
HETATM    9  C8  UNL     1     -30.301  17.129 -22.381  1.00  0.00     0.076 C
HETATM   10  C9  UNL     1     -29.280  16.684 -23.416  1.00  0.00     0.035 C
HETATM   11  C10 UNL     1     -28.266  17.781 -23.151  1.00  0.00     0.277 C
HETATM   12  N1  UNL     1     -28.072  17.644 -21.717  1.00  0.00     0.131 N
ENDROOT
BRANCH   1  13
HETATM   13  O1  UNL     1     -28.183  15.763 -20.007  1.00  0.00    -0.391 OA
ATOM     14  H1  UNL     1     -27.645  15.770 -20.790  1.00  0.00     0.210 HD
ENDBRANCH   1  13
BRANCH  12  15
HETATM   15  C11 UNL     1     -27.261  18.754 -21.318  1.00  0.00     0.227 C
HETATM   16  C12 UNL     1     -27.353  19.770 -22.424  1.00  0.00     0.036 C
HETATM   17  C13 UNL     1     -26.183  20.583 -22.750  1.00  0.00     0.002 C
HETATM   18  C14 UNL     1     -25.259  20.978 -21.670  1.00  0.00     0.000 C
HETATM   19  C15 UNL     1     -24.111  19.960 -21.663  1.00  0.00     0.000 C
HETATM   20  C16 UNL     1     -24.781  18.595 -21.783  1.00  0.00     0.002 C
HETATM   21  C17 UNL     1     -25.920  18.502 -20.800  1.00  0.00     0.036 C
ENDBRANCH  12  15
TORSDOF 2
ENDMDL