MODEL 1
REMARK VINA RESULT: -7.776765676      0.000      0.000
REMARK  3 active torsions:
REMARK  status: ('A' for Active; 'I' for Inactive)
REMARK    1  A    between atoms: C2_2  and  C4_4
REMARK    2  A    between atoms: C4_4  and  C5_5
REMARK    3  A    between atoms: C13_14  and  O2_15
ROOT
HETATM    1  C4  UNL     1     -26.758  18.600 -20.945  1.00  0.00    -0.018 C
HETATM    2  C7  UNL     1     -26.383  19.464 -19.777  1.00  0.00     0.019 C
HETATM    3  C8  UNL     1     -27.480  20.206 -19.110  1.00  0.00     0.070 C
HETATM    4  C9  UNL     1     -28.582  19.530 -18.464  1.00  0.00     0.177 C
HETATM    5  O1  UNL     1     -28.697  19.772 -17.073  1.00  0.00    -0.319 OA
HETATM    6  C10 UNL     1     -30.038  19.992 -17.247  1.00  0.00     0.170 C
HETATM    7  C11 UNL     1     -30.652  21.113 -16.449  1.00  0.00     0.079 C
HETATM    8  C12 UNL     1     -30.752  18.679 -17.188  1.00  0.00     0.100 C
HETATM    9  C13 UNL     1     -29.779  17.581 -17.643  1.00  0.00     0.133 C
HETATM   10  C14 UNL     1     -28.907  18.134 -18.757  1.00  0.00     0.081 C
HETATM   11  C15 UNL     1     -27.752  17.235 -19.056  1.00  0.00    -0.006 C
HETATM   12  C16 UNL     1     -28.041  15.773 -18.780  1.00  0.00     0.010 C
HETATM   13  C17 UNL     1     -27.474  17.329 -20.537  1.00  0.00     0.019 C
HETATM   14  O3  UNL     1     -29.781  20.282 -18.580  1.00  0.00    -0.319 OA
ENDROOT
BRANCH   1  15
HETATM   15  C2  UNL     1     -25.491  18.143 -21.569  1.00  0.00    -0.084 C
HETATM   16  C1  UNL     1     -25.398  17.209 -22.511  1.00  0.00     0.015 C
HETATM   17  C3  UNL     1     -24.157  18.731 -21.168  1.00  0.00     0.043 C
ENDBRANCH   1  15
BRANCH   1  18
HETATM   18  C5  UNL     1     -27.538  19.416 -21.910  1.00  0.00     0.009 C
HETATM   19  C6  UNL     1     -26.862  20.483 -22.667  1.00  0.00     0.006 C
ENDBRANCH   1  18
BRANCH   9  20
HETATM   20  O2  UNL     1     -28.998  17.117 -16.617  1.00  0.00    -0.395 OA
ATOM     21  H2  UNL     1     -28.598  16.278 -16.816  1.00  0.00     0.210 HD
ENDBRANCH   9  20
TORSDOF 3
ENDMDL