MODEL 4
REMARK VINA RESULT: -6.569767555      1.036      1.139
REMARK  3 active torsions:
REMARK  status: ('A' for Active; 'I' for Inactive)
REMARK    1  A    between atoms: C2_2  and  O2_4
REMARK    2  A    between atoms: O2_4  and  C3_5
REMARK    3  A    between atoms: C9_12  and  O3_13
ROOT
HETATM    1  C3  UNL     1     -26.559  18.425 -21.242  1.00  0.00     0.067 C
HETATM    2  C4  UNL     1     -25.773  17.514 -22.139  1.00  0.00     0.047 C
HETATM    3  C5  UNL     1     -27.851  18.787 -21.929  1.00  0.00     0.040 C
HETATM    4  C6  UNL     1     -28.938  18.713 -20.872  1.00  0.00     0.023 C
HETATM    5  C7  UNL     1     -29.181  17.216 -20.607  1.00  0.00     0.011 C
HETATM    6  C8  UNL     1     -29.461  16.620 -21.987  1.00  0.00     0.027 C
HETATM    7  S1  UNL     1     -30.663  17.124 -19.648  1.00  0.00    -0.128 SA
HETATM    8  C9  UNL     1     -30.897  15.703 -18.629  1.00  0.00     0.180 C
HETATM    9  C10 UNL     1     -30.098  15.853 -17.357  1.00  0.00     0.042 C
HETATM   10  C11 UNL     1     -28.924  16.780 -17.698  1.00  0.00     0.004 C
HETATM   11  C12 UNL     1     -28.063  16.050 -18.665  1.00  0.00     0.006 C
HETATM   12  C13 UNL     1     -27.942  16.683 -20.024  1.00  0.00     0.007 C
HETATM   13  C14 UNL     1     -26.811  17.675 -19.946  1.00  0.00     0.044 C
ENDROOT
BRANCH   1  14
HETATM   14  O2  UNL     1     -25.899  19.583 -20.864  1.00  0.00    -0.311 OA
BRANCH  14  15
HETATM   15  C2  UNL     1     -24.623  19.891 -21.279  1.00  0.00     0.255 C
HETATM   16  C1  UNL     1     -23.466  19.320 -20.542  1.00  0.00     0.126 C
HETATM   17  O1  UNL     1     -24.532  20.641 -22.261  1.00  0.00    -0.266 OA
ENDBRANCH  14  15
ENDBRANCH   1  14
BRANCH   8  18
HETATM   18  O3  UNL     1     -30.700  14.482 -19.257  1.00  0.00    -0.385 OA
ATOM     19  H3  UNL     1     -30.782  13.718 -18.698  1.00  0.00     0.211 HD
ENDBRANCH   8  18
TORSDOF 3
ENDMDL