MODEL 3
REMARK VINA RESULT: -6.187070002      1.334      4.116
REMARK  3 active torsions:
REMARK  status: ('A' for Active; 'I' for Inactive)
REMARK    1  A    between atoms: O1_2  and  C2_3
REMARK    2  A    between atoms: C2_3  and  C3_5
REMARK    3  A    between atoms: C7_9  and  O3_11
ROOT
HETATM    1  C3  UNL     1     -28.956  17.988 -19.463  1.00  0.00     0.068 C
HETATM    2  C4  UNL     1     -28.485  17.171 -18.344  1.00  0.00     0.004 C
HETATM    3  C5  UNL     1     -28.097  15.774 -18.539  1.00  0.00     0.011 C
HETATM    4  C6  UNL     1     -29.517  17.303 -17.210  1.00  0.00     0.044 C
HETATM    5  C7  UNL     1     -29.725  18.795 -17.290  1.00  0.00     0.063 C
HETATM    6  C8  UNL     1     -30.889  19.293 -16.518  1.00  0.00     0.046 C
HETATM    7  C9  UNL     1     -29.915  18.964 -18.802  1.00  0.00     0.005 C
HETATM    8  C10 UNL     1     -29.601  20.403 -19.093  1.00  0.00     0.020 C
HETATM    9  C11 UNL     1     -31.357  18.675 -19.076  1.00  0.00     0.013 C
HETATM   10  C12 UNL     1     -31.703  18.533 -20.520  1.00  0.00     0.002 C
HETATM   11  C13 UNL     1     -30.523  18.252 -21.380  1.00  0.00     0.010 C
HETATM   12  C14 UNL     1     -29.501  17.340 -20.676  1.00  0.00    -0.030 C
HETATM   13  C15 UNL     1     -30.204  16.035 -20.508  1.00  0.00     0.016 C
HETATM   14  C16 UNL     1     -28.402  17.123 -21.726  1.00  0.00     0.016 C
ENDROOT
BRANCH   1  15
HETATM   15  C2  UNL     1     -27.799  18.842 -19.942  1.00  0.00     0.269 C
HETATM   16  O2  UNL     1     -26.700  18.855 -19.285  1.00  0.00    -0.264 OA
BRANCH  15  17
HETATM   17  O1  UNL     1     -27.824  19.627 -21.054  1.00  0.00    -0.326 OA
HETATM   18  C1  UNL     1     -26.721  20.324 -21.562  1.00  0.00     0.213 C
ENDBRANCH  15  17
ENDBRANCH   1  15
BRANCH   5  19
HETATM   19  O3  UNL     1     -28.587  19.446 -16.880  1.00  0.00    -0.389 OA
ATOM     20  H3  UNL     1     -28.815  20.143 -16.275  1.00  0.00     0.210 HD
ENDBRANCH   5  19
TORSDOF 3
ENDMDL