MODEL 1
REMARK VINA RESULT: -6.553266822      0.000      0.000
REMARK  4 active torsions:
REMARK  status: ('A' for Active; 'I' for Inactive)
REMARK    1  A    between atoms: C2_2  and  C5_5
REMARK    2  A    between atoms: N1_9  and  C8_11
REMARK    3  A    between atoms: C8_11  and  C9_12
REMARK    4  A    between atoms: N2_17  and  O1_19
ROOT
HETATM    1  C5  UNL     1      16.847  -3.178  52.369  1.00  0.00     0.008 C
HETATM    2  C6  UNL     1      15.672  -2.427  52.945  1.00  0.00     0.086 C
HETATM    3  S1  UNL     1      14.832  -1.412  51.712  1.00  0.00    -0.116 SA
HETATM    4  C7  UNL     1      15.953  -0.644  50.573  1.00  0.00     0.048 C
HETATM    5  N1  UNL     1      15.523   0.418  50.046  1.00  0.00    -0.382 N
ATOM      6  H1  UNL     1      14.591   0.734  50.314  1.00  0.00     0.160 HD
HETATM    7  C10 UNL     1      17.302  -1.074  50.163  1.00  0.00     0.118 C
HETATM    8  C11 UNL     1      17.405  -2.553  50.106  1.00  0.00     0.016 C
HETATM    9  N2  UNL     1      18.242  -3.100  49.317  1.00  0.00    -0.277 N
ATOM     10  H2  UNL     1      18.329  -4.114  49.259  1.00  0.00     0.193 HD
HETATM   11  C12 UNL     1      16.603  -3.514  50.902  1.00  0.00     0.061 C
ENDROOT
BRANCH   5  12
HETATM   12  C8  UNL     1      16.245   1.212  49.100  1.00  0.00     0.191 C
BRANCH  12  13
HETATM   13  C9  UNL     1      16.239   2.674  49.455  1.00  0.00     0.370 C
HETATM   14  F1  UNL     1      16.453   3.472  48.338  1.00  0.00    -0.213 F
HETATM   15  F2  UNL     1      15.062   2.995  50.086  1.00  0.00    -0.213 F
ENDBRANCH  12  13
ENDBRANCH   5  12
BRANCH   1  16
HETATM   16  C2  UNL     1      17.125  -4.469  53.080  1.00  0.00    -0.047 C
HETATM   17  C1  UNL     1      16.290  -4.629  54.328  1.00  0.00     0.015 C
HETATM   18  C3  UNL     1      18.578  -4.443  53.519  1.00  0.00     0.015 C
HETATM   19  C4  UNL     1      16.912  -5.616  52.131  1.00  0.00     0.015 C
ENDBRANCH   1  16
BRANCH   9  20
HETATM   20  O1  UNL     1      19.025  -2.268  48.542  1.00  0.00    -0.290 OA
ATOM     21  H1  UNL     1      19.965  -2.302  48.674  1.00  0.00     0.244 HD
ENDBRANCH   9  20
TORSDOF 4
ENDMDL