MODEL 2
REMARK VINA RESULT: -7.100260552      1.253      1.883
REMARK  3 active torsions:
REMARK  status: ('A' for Active; 'I' for Inactive)
REMARK    1  A    between atoms: N3_9  and  N4_10
REMARK    2  A    between atoms: C9_17  and  C10_18
REMARK    3  A    between atoms: C10_18  and  C11_19
ROOT
HETATM    1  N4  UNL     1      15.635  -1.971  52.436  1.00  0.00    -0.298 N
ATOM      2  H4  UNL     1      14.728  -2.235  52.818  1.00  0.00     0.187 HD
HETATM    3  C4  UNL     1      15.632  -1.109  51.495  1.00  0.00     0.009 C
HETATM    4  C5  UNL     1      16.897  -0.679  50.895  1.00  0.00     0.054 C
HETATM    5  C6  UNL     1      16.744  -0.144  49.477  1.00  0.00     0.006 C
HETATM    6  C7  UNL     1      15.665   0.940  49.611  1.00  0.00     0.001 C
HETATM    7  C8  UNL     1      14.355   0.149  49.769  1.00  0.00     0.011 C
HETATM    8  C9  UNL     1      14.319  -0.586  51.058  1.00  0.00     0.041 C
ENDROOT
BRANCH   1   9
HETATM    9  N3  UNL     1      16.736  -2.577  52.987  1.00  0.00    -0.216 N
HETATM   10  C2  UNL     1      17.344  -2.219  54.136  1.00  0.00     0.117 A
HETATM   11  C1  UNL     1      17.016  -1.131  55.083  1.00  0.00     0.092 C
HETATM   12  N1  UNL     1      18.378  -3.060  54.320  1.00  0.00    -0.285 N
HETATM   13  N2  UNL     1      18.432  -3.932  53.317  1.00  0.00    -0.273 N
ATOM     14  H1  UNL     1      19.023  -3.034  55.110  1.00  0.00     0.188 HD
HETATM   15  C3  UNL     1      17.412  -3.631  52.489  1.00  0.00     0.213 A
ATOM     16  H2  UNL     1      19.113  -4.682  53.198  1.00  0.00     0.189 HD
HETATM   17  S1  UNL     1      17.112  -4.470  51.110  1.00  0.00    -0.037 SA
ENDBRANCH   1   9
BRANCH   8  18
HETATM   18  C10 UNL     1      13.274  -1.657  51.018  1.00  0.00     0.128 C
BRANCH  18  19
HETATM   19  C11 UNL     1      12.101  -1.399  51.908  1.00  0.00     0.388 C
HETATM   20  F1  UNL     1      12.501  -0.332  52.745  1.00  0.00    -0.171 F
HETATM   21  F2  UNL     1      10.957  -1.051  51.255  1.00  0.00    -0.171 F
HETATM   22  F3  UNL     1      11.829  -2.441  52.786  1.00  0.00    -0.171 F
ENDBRANCH  18  19
ENDBRANCH   8  18
TORSDOF 3
ENDMDL