MODEL 5
REMARK VINA RESULT: -6.439063427      3.352      4.863
REMARK  4 active torsions:
REMARK  status: ('A' for Active; 'I' for Inactive)
REMARK    1  A    between atoms: C2_2  and  N1_4
REMARK    2  A    between atoms: C2_2  and  C4_8
REMARK    3  A    between atoms: N3_12  and  C6_13
REMARK    4  A    between atoms: C13_20  and  C14_21
ROOT
HETATM    1  C4  UNL     1      16.581  -3.180  54.233  1.00  0.00     0.077 A
HETATM    2  N2  UNL     1      15.900  -2.144  54.823  1.00  0.00    -0.352 N
ATOM      3  H2  UNL     1      16.002  -1.880  55.803  1.00  0.00     0.166 HD
HETATM    4  C5  UNL     1      15.101  -1.533  53.978  1.00  0.00     0.184 A
HETATM    5  N3  UNL     1      15.235  -2.165  52.771  1.00  0.00    -0.333 N
HETATM    6  C13 UNL     1      16.129  -3.157  52.930  1.00  0.00     0.145 A
ENDROOT
BRANCH   1   7
HETATM    7  C2  UNL     1      17.527  -4.009  54.957  1.00  0.00     0.160 C
HETATM    8  C1  UNL     1      18.988  -3.758  54.641  1.00  0.00     0.052 C
HETATM    9  C3  UNL     1      17.243  -5.498  54.945  1.00  0.00     0.052 C
BRANCH   7  10
HETATM   10  N1  UNL     1      17.440  -3.669  56.408  1.00  0.00    -0.065 N
ATOM     11  H13 UNL     1      16.609  -4.023  56.881  1.00  0.00     0.275 HD
ATOM     12  H12 UNL     1      18.111  -4.157  57.003  1.00  0.00     0.275 HD
ATOM     13  H11 UNL     1      17.530  -2.653  56.408  1.00  0.00     0.275 HD
ENDBRANCH   7  10
ENDBRANCH   1   7
BRANCH   6  14
HETATM   14  C14 UNL     1      16.570  -4.083  51.901  1.00  0.00     0.434 C
HETATM   15  F1  UNL     1      16.136  -3.760  50.606  1.00  0.00    -0.165 F
HETATM   16  F2  UNL     1      16.049  -5.381  52.033  1.00  0.00    -0.165 F
HETATM   17  F3  UNL     1      17.958  -4.123  51.709  1.00  0.00    -0.165 F
ENDBRANCH   6  14
BRANCH   5  18
HETATM   18  C6  UNL     1      14.503  -1.754  51.610  1.00  0.00     0.091 C
HETATM   19  C7  UNL     1      15.313  -0.694  50.902  1.00  0.00     0.026 C
HETATM   20  C8  UNL     1      14.890  -0.452  49.485  1.00  0.00     0.002 C
HETATM   21  C9  UNL     1      13.499   0.146  49.473  1.00  0.00     0.000 C
HETATM   22  C10 UNL     1      12.528  -1.003  49.634  1.00  0.00     0.000 C
HETATM   23  C11 UNL     1      12.101  -1.196  51.047  1.00  0.00     0.002 C
HETATM   24  C12 UNL     1      13.214  -1.021  52.053  1.00  0.00     0.026 C
ENDBRANCH   5  18
TORSDOF 4
ENDMDL