MODEL 4
REMARK VINA RESULT: -6.292424538      1.145      2.067
REMARK  3 active torsions:
REMARK  status: ('A' for Active; 'I' for Inactive)
REMARK    1  A    between atoms: N1_2  and  C2_4
REMARK    2  A    between atoms: C2_4  and  C3_5
REMARK    3  A    between atoms: C3_5  and  C6_8
ROOT
HETATM    1  C6  UNL     1      14.230  -2.038  51.261  1.00  0.00     0.257 C
HETATM    2  O1  UNL     1      13.384  -2.930  51.900  1.00  0.00    -0.224 OA
HETATM    3  O2  UNL     1      12.829  -2.535  52.983  1.00  0.00    -0.200 OA
HETATM    4  C7  UNL     1      12.202  -1.324  52.992  1.00  0.00     0.202 C
HETATM    5  C8  UNL     1      10.758  -1.456  52.578  1.00  0.00     0.071 C
HETATM    6  C9  UNL     1       9.901  -1.281  53.788  1.00  0.00     0.006 C
HETATM    7  C10 UNL     1      10.837  -1.537  54.955  1.00  0.00     0.006 C
HETATM    8  C11 UNL     1      12.087  -0.884  54.455  1.00  0.00     0.071 C
HETATM    9  O3  UNL     1      12.891  -0.321  52.346  1.00  0.00    -0.297 OA
HETATM   10  C12 UNL     1      13.578  -0.718  51.204  1.00  0.00     0.318 C
HETATM   11  F1  UNL     1      14.362   0.330  50.805  1.00  0.00    -0.190 F
HETATM   12 CL1  UNL     1      12.317  -0.827  49.911  1.00  0.00    -0.050 Cl
ENDROOT
BRANCH   1  13
HETATM   13  C3  UNL     1      15.606  -2.141  51.815  1.00  0.00     0.020 C
HETATM   14  C4  UNL     1      15.720  -1.425  53.173  1.00  0.00     0.023 C
HETATM   15  C5  UNL     1      16.712  -1.597  51.002  1.00  0.00     0.023 C
BRANCH  13  16
HETATM   16  C2  UNL     1      15.860  -3.588  52.140  1.00  0.00     0.066 C
BRANCH  16  17
HETATM   17  N1  UNL     1      15.538  -4.047  53.426  1.00  0.00    -0.406 N
HETATM   18  C1  UNL     1      16.017  -5.292  53.888  1.00  0.00     0.145 C
ATOM     19  H1  UNL     1      14.952  -3.476  54.034  1.00  0.00     0.158 HD
ENDBRANCH  16  17
ENDBRANCH  13  16
ENDBRANCH   1  13
TORSDOF 3
ENDMDL