MODEL 5
REMARK VINA RESULT: -6.333429393      1.620      2.046
REMARK  6 active torsions:
REMARK  status: ('A' for Active; 'I' for Inactive)
REMARK    1  A    between atoms: C2_2  and  C4_4
REMARK    2  A    between atoms: C2_2  and  S1_12
REMARK    3  A    between atoms: C5_5  and  C6_6
REMARK    4  A    between atoms: C6_6  and  C7_7
REMARK    5  A    between atoms: C7_7  and  C8_8
REMARK    6  A    between atoms: S1_12  and  C9_13
ROOT
HETATM    1  C1  UNL     1      12.561  -0.495  55.627  1.00  0.00     0.041 C
HETATM    2  C2  UNL     1      11.357  -1.195  55.033  1.00  0.00     0.071 C
HETATM    3  C3  UNL     1      10.083  -0.395  55.269  1.00  0.00     0.041 C
ENDROOT
BRANCH   2   4
HETATM    4  C4  UNL     1      11.553  -1.213  53.578  1.00  0.00    -0.086 C
HETATM    5  C5  UNL     1      11.730  -1.212  52.376  1.00  0.00    -0.105 C
BRANCH   5   6
HETATM    6  C6  UNL     1      11.953  -1.186  50.935  1.00  0.00     0.103 C
BRANCH   6   7
HETATM    7  C7  UNL     1      13.396  -1.076  50.561  1.00  0.00     0.129 C
BRANCH   7   8
HETATM    8  C8  UNL     1      13.677  -0.015  49.530  1.00  0.00     0.388 C
HETATM    9  F1  UNL     1      14.971  -0.283  49.055  1.00  0.00    -0.171 F
HETATM   10  F2  UNL     1      12.776  -0.075  48.502  1.00  0.00    -0.171 F
HETATM   11  F3  UNL     1      13.677   1.236  50.111  1.00  0.00    -0.171 F
ENDBRANCH   7   8
ENDBRANCH   6   7
ENDBRANCH   5   6
ENDBRANCH   2   4
BRANCH   2  12
HETATM   12  S1  UNL     1      11.212  -2.892  55.558  1.00  0.00    -0.071 SA
BRANCH  12  13
HETATM   13  C9  UNL     1       9.796  -3.071  56.713  1.00  0.00     0.155 A
HETATM   14  N1  UNL     1       8.582  -3.245  56.248  1.00  0.00    -0.296 N
HETATM   15  C10 UNL     1       7.584  -3.370  57.094  1.00  0.00     0.306 A
ATOM     16  H1  UNL     1       8.415  -3.284  55.242  1.00  0.00     0.171 HD
HETATM   17  O1  UNL     1       6.336  -3.547  56.860  1.00  0.00    -0.258 OA
HETATM   18  S2  UNL     1       8.370  -3.239  58.601  1.00  0.00     0.050 SA
HETATM   19  N2  UNL     1       9.941  -3.030  58.045  1.00  0.00    -0.302 N
ATOM     20  H2  UNL     1      10.795  -2.903  58.587  1.00  0.00     0.176 HD
ENDBRANCH  12  13
ENDBRANCH   2  12
TORSDOF 6
ENDMDL