MODEL 5
REMARK VINA RESULT: -6.202283824      3.732      6.826
REMARK  3 active torsions:
REMARK  status: ('A' for Active; 'I' for Inactive)
REMARK    1  A    between atoms: C2_2  and  S1_3
REMARK    2  A    between atoms: S1_3  and  C3_4
REMARK    3  A    between atoms: C5_8  and  N2_9
ROOT
HETATM    1  N2  UNL     1      13.650  -0.519  51.397  1.00  0.00    -0.373 N
ATOM      2  H2  UNL     1      13.208   0.340  51.070  1.00  0.00     0.161 HD
HETATM    3  C6  UNL     1      14.867  -0.660  51.053  1.00  0.00     0.007 C
HETATM    4  C7  UNL     1      15.476   0.403  50.246  1.00  0.00     0.054 C
HETATM    5  C8  UNL     1      16.947   0.286  50.046  1.00  0.00     0.012 C
HETATM    6  C9  UNL     1      17.537  -1.041  50.340  1.00  0.00     0.081 C
HETATM    7  C10 UNL     1      16.591  -2.189  50.379  1.00  0.00     0.264 C
HETATM    8  F1  UNL     1      15.932  -2.372  49.187  1.00  0.00    -0.204 F
HETATM    9  F2  UNL     1      17.308  -3.326  50.700  1.00  0.00    -0.204 F
HETATM   10  C11 UNL     1      15.578  -1.888  51.493  1.00  0.00     0.210 C
HETATM   11  C12 UNL     1      16.357  -1.612  52.713  1.00  0.00     0.076 C
HETATM   12  N3  UNL     1      16.959  -1.379  53.679  1.00  0.00    -0.196 NA
ENDROOT
BRANCH   1  13
HETATM   13  C5  UNL     1      12.831  -1.350  52.147  1.00  0.00     0.200 C
HETATM   14  C4  UNL     1      11.378  -1.150  51.704  1.00  0.00     0.168 C
HETATM   15  N1  UNL     1      10.684  -1.641  52.875  1.00  0.00    -0.367 N
HETATM   16  C3  UNL     1      11.430  -1.566  53.923  1.00  0.00     0.137 C
ATOM     17  H1  UNL     1       9.728  -2.000  52.872  1.00  0.00     0.161 HD
HETATM   18  N4  UNL     1      12.707  -1.011  53.551  1.00  0.00    -0.348 N
ATOM     19  H4  UNL     1      13.367  -0.500  54.137  1.00  0.00     0.163 HD
BRANCH  16  20
HETATM   20  S1  UNL     1      10.905  -2.082  55.546  1.00  0.00    -0.095 SA
BRANCH  20  21
HETATM   21  C2  UNL     1       9.205  -1.573  55.858  1.00  0.00     0.078 C
HETATM   22  C1  UNL     1       8.618  -2.539  56.872  1.00  0.00     0.016 C
ENDBRANCH  20  21
ENDBRANCH  16  20
ENDBRANCH   1  13
TORSDOF 3
ENDMDL