MODEL 4
REMARK VINA RESULT: -6.238467523      2.131      2.414
REMARK  3 active torsions:
REMARK  status: ('A' for Active; 'I' for Inactive)
REMARK    1  A    between atoms: N1_5  and  C4_7
REMARK    2  A    between atoms: C7_10  and  S2_11
REMARK    3  A    between atoms: S2_11  and  C8_12
ROOT
HETATM    1  C4  UNL     1      11.412  -1.252  53.808  1.00  0.00     0.034 A
HETATM    2  C5  UNL     1      11.131  -1.290  52.451  1.00  0.00     0.031 A
HETATM    3  C6  UNL     1      12.142  -1.289  51.508  1.00  0.00     0.021 A
HETATM    4  C7  UNL     1      13.457  -1.251  51.895  1.00  0.00     0.005 A
HETATM    5  C9  UNL     1      13.733  -1.213  53.236  1.00  0.00     0.021 A
HETATM    6  C10 UNL     1      12.741  -1.213  54.187  1.00  0.00     0.031 A
ENDROOT
BRANCH   1   7
HETATM    7  N1  UNL     1      10.338  -1.256  54.702  1.00  0.00    -0.337 N
HETATM    8  C3  UNL     1      10.002  -2.158  55.511  1.00  0.00     0.148 C
HETATM    9  S1  UNL     1       8.608  -2.066  56.614  1.00  0.00    -0.080 SA
HETATM   10  N2  UNL     1      10.605  -3.400  55.740  1.00  0.00    -0.306 N
HETATM   11  C2  UNL     1       8.704  -3.820  57.173  1.00  0.00     0.143 C
HETATM   12  C1  UNL     1       8.349  -3.951  58.614  1.00  0.00     0.031 C
HETATM   13  C11 UNL     1      10.151  -4.036  56.913  1.00  0.00     0.237 C
HETATM   14  O1  UNL     1      10.854  -4.741  57.715  1.00  0.00    -0.272 OA
ATOM     15  H2  UNL     1      11.306  -3.804  55.119  1.00  0.00     0.171 HD
ATOM     16  H1  UNL     1       9.752  -0.422  54.697  1.00  0.00     0.168 HD
ENDBRANCH   1   7
BRANCH   4  17
HETATM   17  S2  UNL     1      14.782  -1.247  50.712  1.00  0.00    -0.061 SA
BRANCH  17  18
HETATM   18  C8  UNL     1      14.484  -0.063  49.394  1.00  0.00     0.420 C
HETATM   19  F1  UNL     1      13.567  -0.608  48.522  1.00  0.00    -0.202 F
HETATM   20  F2  UNL     1      13.953   1.121  49.912  1.00  0.00    -0.202 F
ENDBRANCH  17  18
ENDBRANCH   4  17
TORSDOF 3
ENDMDL