MODEL 2
REMARK VINA RESULT: -6.139872840      3.320      5.902
REMARK  4 active torsions:
REMARK  status: ('A' for Active; 'I' for Inactive)
REMARK    1  A    between atoms: C2_2  and  C4_4
REMARK    2  A    between atoms: C6_8  and  N2_9
REMARK    3  A    between atoms: N2_9  and  N3_11
REMARK    4  A    between atoms: C7_13  and  C8_14
ROOT
HETATM    1  C8  UNL     1      17.129  -4.353  53.796  1.00  0.00     0.083 C
HETATM    2 CL1  UNL     1      16.402  -4.645  55.354  1.00  0.00    -0.080 Cl
HETATM    3  C9  UNL     1      16.660  -4.926  52.708  1.00  0.00     0.137 C
HETATM    4 CL2  UNL     1      15.290  -5.989  52.846  1.00  0.00    -0.070 Cl
HETATM    5  C10 UNL     1      17.231  -4.710  51.416  1.00  0.00     0.113 C
HETATM    6  N4  UNL     1      17.704  -4.532  50.382  1.00  0.00    -0.190 NA
ENDROOT
BRANCH   1   7
HETATM    7  C7  UNL     1      18.272  -3.457  53.728  1.00  0.00     0.133 C
HETATM    8  N3  UNL     1      18.179  -2.185  53.739  1.00  0.00    -0.308 N
ATOM      9  H3  UNL     1      19.053  -1.661  53.686  1.00  0.00     0.186 HD
BRANCH   8  10
HETATM   10  N2  UNL     1      17.011  -1.438  53.816  1.00  0.00    -0.280 N
ATOM     11  H2  UNL     1      16.797  -0.926  54.671  1.00  0.00     0.189 HD
BRANCH  10  12
HETATM   12  C6  UNL     1      16.182  -1.384  52.808  1.00  0.00     0.163 A
HETATM   13  N1  UNL     1      16.447  -1.145  51.524  1.00  0.00    -0.344 N
HETATM   14  C5  UNL     1      15.461  -1.138  50.678  1.00  0.00     0.105 A
ATOM     15  H1  UNL     1      17.403  -0.970  51.212  1.00  0.00     0.167 HD
HETATM   16  C4  UNL     1      14.197  -1.375  51.148  1.00  0.00     0.005 A
HETATM   17  S1  UNL     1      14.493  -1.604  52.820  1.00  0.00    -0.056 SA
BRANCH  16  18
HETATM   18  C2  UNL     1      12.907  -1.419  50.377  1.00  0.00     0.019 C
HETATM   19  C1  UNL     1      12.959  -0.550  49.156  1.00  0.00     0.015 C
HETATM   20  C3  UNL     1      11.733  -1.098  51.280  1.00  0.00     0.015 C
ENDBRANCH  16  18
ENDBRANCH  10  12
ENDBRANCH   8  10
ENDBRANCH   1   7
TORSDOF 4
ENDMDL