MODEL 3
REMARK VINA RESULT: -6.866953090      1.771      6.383
REMARK  3 active torsions:
REMARK  status: ('A' for Active; 'I' for Inactive)
REMARK    1  A    between atoms: C2_2  and  N1_5
REMARK    2  A    between atoms: C6_10  and  N3_11
REMARK    3  A    between atoms: N3_11  and  C7_13
ROOT
HETATM    1  N1  UNL     1       9.222  -2.987  56.514  1.00  0.00    -0.244 N
HETATM    2  N2  UNL     1       8.846  -2.174  55.529  1.00  0.00    -0.268 N
ATOM      3  H2  UNL     1       7.852  -2.087  55.322  1.00  0.00     0.189 HD
HETATM    4  C5  UNL     1       9.715  -1.465  54.801  1.00  0.00     0.233 A
HETATM    5  F1  UNL     1       9.243  -0.654  53.827  1.00  0.00    -0.182 F
HETATM    6  C6  UNL     1      11.064  -1.530  55.024  1.00  0.00     0.131 A
HETATM    7  C13 UNL     1      11.482  -2.372  56.047  1.00  0.00     0.216 A
HETATM    8  F2  UNL     1      12.789  -2.516  56.356  1.00  0.00    -0.198 F
HETATM    9  C14 UNL     1      10.541  -3.067  56.752  1.00  0.00     0.304 A
HETATM   10  O1  UNL     1      10.919  -3.822  57.669  1.00  0.00    -0.263 OA
ENDROOT
BRANCH   6  11
HETATM   11  N3  UNL     1      12.059  -0.842  54.313  1.00  0.00    -0.379 N
ATOM     12  H3  UNL     1      12.325   0.103  54.591  1.00  0.00     0.160 HD
BRANCH  11  13
HETATM   13  C7  UNL     1      12.707  -1.472  53.187  1.00  0.00     0.082 C
HETATM   14  C8  UNL     1      14.204  -1.436  53.287  1.00  0.00     0.025 C
HETATM   15  C9  UNL     1      14.947  -1.580  52.032  1.00  0.00     0.002 C
HETATM   16  C10 UNL     1      14.221  -1.474  50.756  1.00  0.00     0.000 C
HETATM   17  C11 UNL     1      12.761  -1.774  50.802  1.00  0.00     0.002 C
HETATM   18  C12 UNL     1      12.164  -0.901  51.920  1.00  0.00     0.025 C
ENDBRANCH  11  13
ENDBRANCH   6  11
BRANCH   1  19
HETATM   19  C2  UNL     1       8.213  -3.689  57.218  1.00  0.00     0.046 C
HETATM   20  C1  UNL     1       8.139  -3.271  58.693  1.00  0.00     0.040 C
HETATM   21  C3  UNL     1       8.320  -5.183  57.197  1.00  0.00     0.040 C
HETATM   22  C4  UNL     1       6.872  -3.321  56.613  1.00  0.00     0.040 C
ENDBRANCH   1  19
TORSDOF 3
ENDMDL