MODEL 4
REMARK VINA RESULT: -6.579947457      6.194      7.979
REMARK  2 active torsions:
REMARK  status: ('A' for Active; 'I' for Inactive)
REMARK       I    between atoms: C1_2  and  N2_4
REMARK    1  A    between atoms: C3_6  and  C4_7
REMARK    2  A    between atoms: C8_15  and  C9_16
ROOT
HETATM    1  N1  UNL     1      18.039  -3.934  49.203  1.00  0.00    -0.040 NA
HETATM    2  C1  UNL     1      17.494  -4.200  50.485  1.00  0.00     0.335 C
HETATM    3  O1  UNL     1      18.044  -5.073  51.167  1.00  0.00    -0.251 OA
HETATM    4  N2  UNL     1      16.345  -3.435  50.896  1.00  0.00    -0.296 N
HETATM    5  C2  UNL     1      15.745  -2.459  50.095  1.00  0.00     0.090 C
HETATM    6  C3  UNL     1      14.697  -1.693  50.758  1.00  0.00     0.128 C
HETATM    7  S2  UNL     1      14.963  -2.078  52.511  1.00  0.00    -0.122 SA
HETATM    8  C8  UNL     1      15.765  -3.677  52.193  1.00  0.00     0.196 C
ENDROOT
BRANCH   6   9
HETATM    9  C4  UNL     1      14.724  -0.230  50.502  1.00  0.00     0.007 A
HETATM   10  C5  UNL     1      13.827   0.756  50.784  1.00  0.00     0.062 A
HETATM   11  C6  UNL     1      14.139   2.006  50.423  1.00  0.00     0.163 A
HETATM   12  F1  UNL     1      13.320   3.113  50.646  1.00  0.00    -0.202 F
HETATM   13  C7  UNL     1      15.344   2.196  49.792  1.00  0.00     0.196 A
HETATM   14  F2  UNL     1      15.878   3.381  49.331  1.00  0.00    -0.195 F
HETATM   15  S1  UNL     1      15.988   0.615  49.735  1.00  0.00    -0.060 SA
ENDBRANCH   6   9
BRANCH   8  16
HETATM   16  C9  UNL     1      16.788  -3.966  53.243  1.00  0.00     0.016 A
HETATM   17  C10 UNL     1      17.766  -3.133  53.715  1.00  0.00     0.018 A
HETATM   18  C11 UNL     1      18.585  -3.606  54.659  1.00  0.00     0.008 A
HETATM   19  C12 UNL     1      18.379  -4.893  55.082  1.00  0.00     0.050 A
HETATM   20  S3  UNL     1      17.048  -5.391  54.142  1.00  0.00    -0.103 SA
ENDBRANCH   8  16
TORSDOF 2
ENDMDL