MODEL 2
REMARK VINA RESULT: -6.286662084      2.287      3.731
REMARK  3 active torsions:
REMARK  status: ('A' for Active; 'I' for Inactive)
REMARK    1  A    between atoms: N1_6  and  C6_7
REMARK    2  A    between atoms: C6_7  and  N2_8
REMARK    3  A    between atoms: C7_9  and  C8_10
ROOT
HETATM    1  N2  UNL     1      15.206  -1.361  51.624  1.00  0.00    -0.275 N
HETATM    2  C7  UNL     1      16.015  -2.420  51.232  1.00  0.00     0.113 A
HETATM    3  N3  UNL     1      16.360  -2.152  49.972  1.00  0.00    -0.286 N
ATOM      4  H3  UNL     1      16.955  -2.753  49.401  1.00  0.00     0.188 HD
HETATM    5  N4  UNL     1      15.845  -1.033  49.560  1.00  0.00    -0.274 N
ATOM      6  H4  UNL     1      15.962  -0.611  48.639  1.00  0.00     0.189 HD
HETATM    7  C12 UNL     1      15.132  -0.539  50.579  1.00  0.00     0.199 A
HETATM    8  S1  UNL     1      14.360   0.951  50.520  1.00  0.00    -0.039 SA
ENDROOT
BRANCH   1   9
HETATM    9  C6  UNL     1      14.692  -1.259  52.938  1.00  0.00     0.166 C
BRANCH   9  10
HETATM   10  N1  UNL     1      13.321  -1.039  53.208  1.00  0.00    -0.243 NA
HETATM   11  C5  UNL     1      12.571  -1.840  52.170  1.00  0.00     0.099 C
HETATM   12  C4  UNL     1      11.201  -1.187  52.087  1.00  0.00     0.015 C
HETATM   13  C3  UNL     1      10.469  -1.821  53.282  1.00  0.00     0.010 C
HETATM   14  C2  UNL     1      11.253  -1.475  54.492  1.00  0.00     0.036 C
HETATM   15  C1  UNL     1      10.834  -2.504  55.584  1.00  0.00     0.014 C
HETATM   16  C13 UNL     1      12.740  -1.506  54.434  1.00  0.00     0.176 C
HETATM   17 CL1  UNL     1      13.198  -3.226  54.756  1.00  0.00    -0.083 Cl
HETATM   18 CL2  UNL     1      13.221  -0.460  55.842  1.00  0.00    -0.083 Cl
ENDBRANCH   9  10
ENDBRANCH   1   9
BRANCH   2  19
HETATM   19  C8  UNL     1      16.467  -3.597  52.000  1.00  0.00     0.009 C
HETATM   20  C9  UNL     1      17.346  -4.428  51.030  1.00  0.00     0.023 C
HETATM   21  C10 UNL     1      17.467  -3.231  53.086  1.00  0.00     0.023 C
HETATM   22  C11 UNL     1      15.427  -4.568  52.424  1.00  0.00     0.023 C
ENDBRANCH   2  19
TORSDOF 3
ENDMDL