MODEL 5
REMARK VINA RESULT: -6.053199462      6.325      8.278
REMARK  6 active torsions:
REMARK  status: ('A' for Active; 'I' for Inactive)
REMARK    1  A    between atoms: C2_2  and  N1_5
REMARK    2  A    between atoms: N1_5  and  C3_8
REMARK    3  A    between atoms: C3_8  and  O1_9
REMARK    4  A    between atoms: O1_9  and  C4_10
REMARK    5  A    between atoms: C4_10  and  N2_12
REMARK    6  A    between atoms: N2_12  and  C5_14
ROOT
HETATM    1  C4  UNL     1      13.149  -1.753  54.406  1.00  0.00     0.217 C
HETATM    2  S1  UNL     1      14.297  -1.374  55.497  1.00  0.00    -0.033 SA
ENDROOT
BRANCH   1   3
HETATM    3  O1  UNL     1      13.458  -2.533  53.303  1.00  0.00    -0.299 OA
BRANCH   3   4
HETATM    4  C3  UNL     1      14.025  -1.885  52.182  1.00  0.00     0.415 C
BRANCH   4   5
HETATM    5  N1  UNL     1      13.150  -2.157  51.058  1.00  0.00    -0.003 N
ATOM      6  H12 UNL     1      12.530  -2.943  51.248  1.00  0.00     0.285 HD
ATOM      7  H11 UNL     1      13.665  -2.548  50.270  1.00  0.00     0.285 HD
BRANCH   5   8
HETATM    8  C2  UNL     1      12.402  -0.969  50.670  1.00  0.00     0.339 C
HETATM    9  C1  UNL     1      13.196   0.225  51.213  1.00  0.00     0.103 C
HETATM   10  F1  UNL     1      11.197  -1.008  51.305  1.00  0.00    -0.194 F
HETATM   11 CL1  UNL     1      12.234  -0.856  48.907  1.00  0.00    -0.053 Cl
ENDBRANCH   5   8
ENDBRANCH   4   5
ENDBRANCH   3   4
ENDBRANCH   1   3
BRANCH   1  12
HETATM   12  N2  UNL     1      11.814  -1.304  54.547  1.00  0.00    -0.316 N
ATOM     13  H2  UNL     1      11.532  -0.456  54.053  1.00  0.00     0.170 HD
BRANCH  12  14
HETATM   14  C5  UNL     1      10.945  -1.905  55.261  1.00  0.00     0.120 A
HETATM   15  S2  UNL     1       9.322  -1.428  55.376  1.00  0.00    -0.064 SA
HETATM   16  C6  UNL     1       8.461  -2.478  56.427  1.00  0.00     0.024 A
HETATM   17  C7  UNL     1       7.140  -2.451  56.795  1.00  0.00     0.020 A
HETATM   18  C11 UNL     1       9.336  -3.450  56.908  1.00  0.00     0.024 A
HETATM   19  C8  UNL     1       6.644  -3.411  57.671  1.00  0.00     0.001 A
HETATM   20  C9  UNL     1       7.479  -4.381  58.162  1.00  0.00     0.001 A
HETATM   21  C10 UNL     1       8.790  -4.377  57.773  1.00  0.00     0.020 A
HETATM   22  S3  UNL     1      10.927  -3.249  56.288  1.00  0.00    -0.064 SA
ENDBRANCH  12  14
ENDBRANCH   1  12
TORSDOF 6
ENDMDL