MODEL 4
REMARK VINA RESULT: -6.851066001      1.778      2.421
REMARK  5 active torsions:
REMARK  status: ('A' for Active; 'I' for Inactive)
REMARK    1  A    between atoms: C7_7  and  O1_8
REMARK    2  A    between atoms: O1_8  and  C8_9
REMARK    3  A    between atoms: C8_9  and  C9_10
REMARK    4  A    between atoms: C10_11  and  C11_12
REMARK    5  A    between atoms: C11_12  and  O2_13
ROOT
HETATM    1  C1  UNL     1      19.519  -4.874  55.827  1.00  0.00     0.043 C
HETATM    2  C2  UNL     1      18.509  -4.036  55.060  1.00  0.00    -0.087 C
HETATM    3  C3  UNL     1      18.363  -4.262  53.793  1.00  0.00    -0.017 C
HETATM    4  C4  UNL     1      17.511  -3.665  52.781  1.00  0.00     0.044 C
HETATM    5  C5  UNL     1      17.521  -4.516  51.496  1.00  0.00     0.016 C
HETATM    6  C6  UNL     1      17.057  -3.624  50.376  1.00  0.00     0.061 C
HETATM    7  C7  UNL     1      16.097  -2.564  50.854  1.00  0.00     0.261 C
HETATM    8  O3  UNL     1      15.428  -2.847  51.979  1.00  0.00    -0.349 OA
HETATM    9  C12 UNL     1      16.113  -3.357  53.076  1.00  0.00     0.210 C
HETATM   10  C13 UNL     1      15.233  -4.387  53.657  1.00  0.00     0.307 C
HETATM   11  F1  UNL     1      14.099  -3.741  54.203  1.00  0.00    -0.197 F
HETATM   12  F2  UNL     1      14.682  -5.089  52.577  1.00  0.00    -0.197 F
HETATM   13  C14 UNL     1      15.733  -5.288  54.673  1.00  0.00     0.082 C
HETATM   14 CL1  UNL     1      15.645  -7.037  54.329  1.00  0.00    -0.083 Cl
HETATM   15  C15 UNL     1      16.250  -4.976  55.830  1.00  0.00    -0.001 C
HETATM   16  C16 UNL     1      16.431  -3.586  56.340  1.00  0.00     0.033 C
HETATM   17  C17 UNL     1      17.773  -3.026  55.897  1.00  0.00     0.037 C
ENDROOT
BRANCH   7  18
HETATM   18  O1  UNL     1      16.732  -1.335  50.799  1.00  0.00    -0.350 OA
BRANCH  18  19
HETATM   19  C8  UNL     1      16.859  -0.813  49.536  1.00  0.00     0.264 C
BRANCH  19  20
HETATM   20  C9  UNL     1      16.423   0.592  49.546  1.00  0.00    -0.078 C
HETATM   21  C10 UNL     1      16.054   1.738  49.538  1.00  0.00    -0.079 C
BRANCH  21  22
HETATM   22  C11 UNL     1      15.603   3.149  49.503  1.00  0.00     0.257 C
BRANCH  22  23
HETATM   23  O2  UNL     1      16.439   3.915  48.683  1.00  0.00    -0.389 OA
ATOM     24  H2  UNL     1      15.959   4.637  48.294  1.00  0.00     0.210 HD
ENDBRANCH  22  23
ENDBRANCH  21  22
ENDBRANCH  19  20
ENDBRANCH  18  19
ENDBRANCH   7  18
TORSDOF 5
ENDMDL