MODEL 4
REMARK VINA RESULT: -7.015839036      2.987      6.949
REMARK  4 active torsions:
REMARK  status: ('A' for Active; 'I' for Inactive)
REMARK    1  A    between atoms: C2_2  and  C4_4
REMARK    2  A    between atoms: C2_2  and  C18_22
REMARK    3  A    between atoms: C7_9  and  N2_10
REMARK    4  A    between atoms: N3_13  and  C10_14
ROOT
HETATM    1  C4  UNL     1      18.129  -3.364  55.039  1.00  0.00     0.071 C
HETATM    2  C5  UNL     1      19.399  -4.159  54.976  1.00  0.00     0.033 C
HETATM    3  C6  UNL     1      19.044  -5.259  54.025  1.00  0.00     0.121 C
HETATM    4  N1  UNL     1      17.954  -4.724  53.286  1.00  0.00    -0.379 N
ATOM      5  H1  UNL     1      17.622  -5.136  52.414  1.00  0.00     0.160 HD
HETATM    6  C7  UNL     1      17.418  -3.672  53.812  1.00  0.00     0.080 C
ENDROOT
BRANCH   6   7
HETATM    7  N2  UNL     1      16.303  -2.954  53.231  1.00  0.00    -0.367 N
HETATM    8  C8  UNL     1      15.167  -3.639  52.645  1.00  0.00     0.154 C
HETATM    9  C9  UNL     1      14.107  -2.667  52.251  1.00  0.00     0.292 C
HETATM   10  N3  UNL     1      14.531  -1.564  51.454  1.00  0.00     0.096 N
HETATM   11  C16 UNL     1      15.885  -1.207  51.706  1.00  0.00     0.292 C
HETATM   12  C17 UNL     1      16.227  -1.508  53.175  1.00  0.00     0.154 C
BRANCH  10  13
HETATM   13  C10 UNL     1      13.598  -0.478  51.586  1.00  0.00     0.223 C
HETATM   14  C11 UNL     1      13.948   0.704  50.709  1.00  0.00     0.036 C
HETATM   15  C12 UNL     1      14.059   0.255  49.281  1.00  0.00     0.002 C
HETATM   16  C13 UNL     1      12.715  -0.244  48.824  1.00  0.00     0.000 C
HETATM   17  C14 UNL     1      12.151  -1.318  49.721  1.00  0.00     0.002 C
HETATM   18  C15 UNL     1      12.220  -0.941  51.176  1.00  0.00     0.036 C
ENDBRANCH  10  13
ENDBRANCH   6   7
BRANCH   1  19
HETATM   19  C2  UNL     1      17.419  -3.433  56.326  1.00  0.00     0.061 C
HETATM   20  C1  UNL     1      18.483  -3.737  57.404  1.00  0.00     0.025 C
HETATM   21  C3  UNL     1      16.907  -2.050  56.716  1.00  0.00     0.025 C
BRANCH  19  22
HETATM   22  C18 UNL     1      16.338  -4.395  56.545  1.00  0.00     0.395 C
HETATM   23  F1  UNL     1      16.604  -5.699  56.172  1.00  0.00    -0.170 F
HETATM   24  F2  UNL     1      15.115  -4.064  56.022  1.00  0.00    -0.170 F
HETATM   25  F3  UNL     1      16.130  -4.460  57.936  1.00  0.00    -0.170 F
ENDBRANCH  19  22
ENDBRANCH   1  19
TORSDOF 4
ENDMDL