MODEL 2
REMARK VINA RESULT: -7.481571213      1.832      2.181
REMARK  6 active torsions:
REMARK  status: ('A' for Active; 'I' for Inactive)
REMARK    1  A    between atoms: N1_1  and  N2_4
REMARK    2  A    between atoms: N2_4  and  C1_5
REMARK    3  A    between atoms: N2_4  and  C3_10
REMARK    4  A    between atoms: C1_5  and  C2_6
REMARK    5  A    between atoms: C3_10  and  O1_11
REMARK    6  A    between atoms: C3_10  and  C4_13
ROOT
HETATM    1  C4  UNL     1      10.935  -2.355  54.961  1.00  0.00     0.018 A
HETATM    2  C5  UNL     1      12.029  -3.108  55.278  1.00  0.00     0.017 A
HETATM    3  C6  UNL     1      13.106  -3.259  54.389  1.00  0.00     0.021 A
HETATM    4  C7  UNL     1      13.099  -2.652  53.163  1.00  0.00     0.022 A
HETATM    5  C8  UNL     1      12.015  -1.889  52.815  1.00  0.00     0.023 A
HETATM    6  C9  UNL     1      10.972  -1.756  53.700  1.00  0.00     0.036 A
HETATM    7  S1  UNL     1      11.965  -1.071  51.208  1.00  0.00    -0.088 SA
HETATM    8  C10 UNL     1      13.615  -0.508  50.843  1.00  0.00     0.022 A
HETATM    9  C11 UNL     1      13.838   0.692  50.208  1.00  0.00     0.020 A
HETATM   10  C12 UNL     1      15.123   1.139  49.920  1.00  0.00     0.001 A
HETATM   11  C13 UNL     1      16.210   0.360  50.277  1.00  0.00     0.001 A
HETATM   12  C14 UNL     1      15.966  -0.854  50.921  1.00  0.00     0.020 A
HETATM   13  C15 UNL     1      14.697  -1.285  51.200  1.00  0.00     0.022 A
HETATM   14  S2  UNL     1      14.495  -2.855  52.028  1.00  0.00    -0.088 SA
ENDROOT
BRANCH   1  15
HETATM   15  C3  UNL     1       9.806  -2.175  55.847  1.00  0.00     0.167 C
BRANCH  15  16
HETATM   16  N2  UNL     1       9.097  -3.118  56.592  1.00  0.00    -0.269 N
BRANCH  16  17
HETATM   17  N1  UNL     1       9.281  -4.476  56.585  1.00  0.00    -0.341 N
ATOM     18  H12 UNL     1       9.087  -5.122  57.350  1.00  0.00     0.177 HD
ATOM     19  H11 UNL     1       9.649  -4.870  55.720  1.00  0.00     0.177 HD
ENDBRANCH  16  17
BRANCH  16  20
HETATM   20  C1  UNL     1       8.041  -2.619  57.484  1.00  0.00     0.268 C
BRANCH  20  21
HETATM   21  C2  UNL     1       6.667  -2.960  57.012  1.00  0.00     0.405 C
HETATM   22  F1  UNL     1       5.818  -1.900  57.245  1.00  0.00    -0.169 F
HETATM   23  F2  UNL     1       6.609  -3.289  55.683  1.00  0.00    -0.169 F
HETATM   24  F3  UNL     1       6.223  -4.031  57.743  1.00  0.00    -0.169 F
ENDBRANCH  20  21
ENDBRANCH  16  20
ENDBRANCH  15  16
BRANCH  15  25
HETATM   25  O1  UNL     1       9.419  -0.925  55.938  1.00  0.00    -0.344 OA
ATOM     26  H1  UNL     1       9.181  -0.485  55.130  1.00  0.00     0.219 HD
ENDBRANCH  15  25
ENDBRANCH   1  15
TORSDOF 6
ENDMDL