MODEL 4
REMARK VINA RESULT: -7.811422005      6.506      9.023
REMARK  4 active torsions:
REMARK  status: ('A' for Active; 'I' for Inactive)
REMARK    1  A    between atoms: O1_1  and  N1_3
REMARK    2  A    between atoms: C1_5  and  C2_6
REMARK    3  A    between atoms: C1_5  and  N3_13
REMARK    4  A    between atoms: C7_16  and  C8_17
ROOT
HETATM    1  N3  UNL     1      10.411  -2.904  55.943  1.00  0.00    -0.365 N
HETATM    2  C5  UNL     1      10.361  -1.586  55.355  1.00  0.00     0.125 C
HETATM    3  C6  UNL     1      10.320  -1.721  53.879  1.00  0.00     0.029 C
HETATM    4  C7  UNL     1      11.434  -2.526  53.288  1.00  0.00     0.021 C
HETATM    5  C14 UNL     1      12.224  -3.305  54.303  1.00  0.00     0.029 C
HETATM    6  C15 UNL     1      11.460  -3.765  55.478  1.00  0.00     0.125 C
ENDROOT
BRANCH   1   7
HETATM    7  C1  UNL     1       9.497  -3.372  56.936  1.00  0.00     0.142 C
HETATM    8  N1  UNL     1       8.974  -2.495  57.704  1.00  0.00    -0.252 N
ATOM      9  H1  UNL     1       9.227  -1.514  57.581  1.00  0.00     0.196 HD
BRANCH   8  10
HETATM   10  O1  UNL     1       8.084  -2.835  58.686  1.00  0.00    -0.288 OA
ATOM     11  H1  UNL     1       8.016  -2.338  59.493  1.00  0.00     0.244 HD
ENDBRANCH   8  10
BRANCH   7  12
HETATM   12  C2  UNL     1       9.169  -4.802  57.064  1.00  0.00     0.070 A
HETATM   13  C3  UNL     1       8.066  -5.493  56.637  1.00  0.00     0.113 A
HETATM   14  N2  UNL     1       8.012  -6.760  56.878  1.00  0.00    -0.336 N
HETATM   15  C4  UNL     1       9.002  -7.359  57.520  1.00  0.00     0.231 A
ATOM     16  H2  UNL     1       7.203  -7.301  56.573  1.00  0.00     0.168 HD
HETATM   17  F1  UNL     1       9.114  -8.692  57.862  1.00  0.00    -0.178 F
HETATM   18  S1  UNL     1      10.079  -6.068  57.806  1.00  0.00    -0.036 SA
ENDBRANCH   7  12
ENDBRANCH   1   7
BRANCH   4  19
HETATM   19  C8  UNL     1      12.363  -1.713  52.467  1.00  0.00    -0.054 A
HETATM   20  C9  UNL     1      13.689  -1.624  52.821  1.00  0.00     0.009 A
HETATM   21  C10 UNL     1      14.617  -0.891  52.111  1.00  0.00     0.024 A
HETATM   22  C11 UNL     1      14.185  -0.214  50.991  1.00  0.00     0.034 A
HETATM   23 CL1  UNL     1      15.318   0.749  50.029  1.00  0.00    -0.084 Cl
HETATM   24  C12 UNL     1      12.852  -0.303  50.634  1.00  0.00     0.024 A
HETATM   25  C13 UNL     1      11.947  -1.031  51.344  1.00  0.00     0.009 A
ENDBRANCH   4  19
TORSDOF 4
ENDMDL