MODEL 4
REMARK VINA RESULT: -7.016573521      2.756      5.074
REMARK  6 active torsions:
REMARK  status: ('A' for Active; 'I' for Inactive)
REMARK    1  A    between atoms: C1_4  and  N2_6
REMARK    2  A    between atoms: N3_8  and  C2_10
REMARK    3  A    between atoms: C3_11  and  C4_12
REMARK    4  A    between atoms: N4_20  and  C11_21
REMARK    5  A    between atoms: C11_21  and  O1_22
REMARK    6  A    between atoms: C11_21  and  N5_24
ROOT
HETATM    1  C2  UNL     1      14.533  -1.366  53.187  1.00  0.00     0.140 A
HETATM    2  C3  UNL     1      13.759  -0.850  52.197  1.00  0.00     0.029 A
HETATM    3  C5  UNL     1      14.618  -0.565  51.163  1.00  0.00     0.004 A
HETATM    4  C6  UNL     1      14.381  -0.040  49.900  1.00  0.00     0.014 A
HETATM    5  C7  UNL     1      15.424   0.127  49.035  1.00  0.00     0.001 A
HETATM    6  C8  UNL     1      16.691  -0.224  49.422  1.00  0.00     0.002 A
HETATM    7  C9  UNL     1      16.942  -0.744  50.673  1.00  0.00     0.031 A
HETATM    8  C10 UNL     1      15.907  -0.920  51.559  1.00  0.00     0.055 A
HETATM    9  N4  UNL     1      15.876  -1.416  52.808  1.00  0.00    -0.261 N
ENDROOT
BRANCH   1  10
HETATM   10  N3  UNL     1      13.987  -1.770  54.444  1.00  0.00    -0.282 N
HETATM   11  N2  UNL     1      13.923  -1.042  55.444  1.00  0.00    -0.274 N
ATOM     12  H2  UNL     1      14.286  -0.092  55.362  1.00  0.00     0.189 HD
ATOM     13  H3  UNL     1      13.626  -2.720  54.522  1.00  0.00     0.188 HD
BRANCH  11  14
HETATM   14  C1  UNL     1      13.383  -1.433  56.699  1.00  0.00     0.187 C
HETATM   15  N1  UNL     1      12.283  -2.132  56.701  1.00  0.00    -0.375 N
ATOM     16  H12 UNL     1      11.895  -2.412  57.602  1.00  0.00     0.158 HD
ATOM     17  H11 UNL     1      11.836  -2.383  55.820  1.00  0.00     0.158 HD
HETATM   18 CL1  UNL     1      14.153  -1.001  58.215  1.00  0.00    -0.044 Cl
ENDBRANCH  11  14
ENDBRANCH   1  10
BRANCH   2  19
HETATM   19  C4  UNL     1      12.295  -0.629  52.173  1.00  0.00     0.265 C
HETATM   20  F1  UNL     1      11.654  -1.339  51.178  1.00  0.00    -0.250 F
ENDBRANCH   2  19
BRANCH   9  21
HETATM   21  C11 UNL     1      16.847  -1.952  53.655  1.00  0.00     0.228 C
BRANCH  21  22
HETATM   22  O1  UNL     1      17.026  -1.176  54.744  1.00  0.00    -0.332 OA
ATOM     23  H1  UNL     1      17.805  -0.639  54.658  1.00  0.00     0.221 HD
ENDBRANCH  21  22
BRANCH  21  24
HETATM   24  N5  UNL     1      17.691  -3.028  53.731  1.00  0.00    -0.347 N
HETATM   25  C12 UNL     1      17.646  -4.129  52.671  1.00  0.00     0.126 C
HETATM   26  C13 UNL     1      17.695  -5.360  53.531  1.00  0.00     0.021 C
HETATM   27  C14 UNL     1      18.820  -5.012  54.476  1.00  0.00     0.021 C
HETATM   28  C15 UNL     1      18.672  -3.510  54.637  1.00  0.00     0.126 C
ENDBRANCH  21  24
ENDBRANCH   9  21
TORSDOF 6
ENDMDL