MODEL 3
REMARK VINA RESULT: -7.225655229      1.353      1.511
REMARK  4 active torsions:
REMARK  status: ('A' for Active; 'I' for Inactive)
REMARK    1  A    between atoms: N1_6  and  C4_7
REMARK    2  A    between atoms: C4_7  and  N2_9
REMARK    3  A    between atoms: N2_9  and  C5_11
REMARK    4  A    between atoms: C8_14  and  C9_15
ROOT
HETATM    1  C5  UNL     1      15.839  -2.766  50.982  1.00  0.00     0.034 A
HETATM    2  C6  UNL     1      14.935  -1.782  51.255  1.00  0.00     0.030 A
HETATM    3  C7  UNL     1      15.028  -0.490  50.702  1.00  0.00     0.016 A
HETATM    4  C8  UNL     1      16.033  -0.175  49.866  1.00  0.00    -0.001 A
HETATM    5  C11 UNL     1      16.964  -1.141  49.567  1.00  0.00     0.016 A
HETATM    6  C12 UNL     1      16.879  -2.409  50.105  1.00  0.00     0.030 A
ENDROOT
BRANCH   1   7
HETATM    7  N2  UNL     1      15.877  -4.076  51.491  1.00  0.00    -0.333 N
ATOM      8  H2  UNL     1      16.170  -4.791  50.826  1.00  0.00     0.168 HD
BRANCH   7   9
HETATM    9  C4  UNL     1      15.574  -4.544  52.769  1.00  0.00     0.174 C
HETATM   10  S1  UNL     1      14.121  -5.129  53.158  1.00  0.00    -0.041 SA
BRANCH   9  11
HETATM   11  N1  UNL     1      16.549  -4.496  53.816  1.00  0.00    -0.358 N
HETATM   12  C3  UNL     1      16.129  -4.727  55.193  1.00  0.00     0.131 C
HETATM   13  C2  UNL     1      17.277  -4.563  56.132  1.00  0.00     0.099 C
HETATM   14  C1  UNL     1      18.060  -3.297  55.906  1.00  0.00     0.246 C
HETATM   15  F1  UNL     1      17.414  -2.232  56.505  1.00  0.00    -0.206 F
HETATM   16  F2  UNL     1      19.282  -3.446  56.535  1.00  0.00    -0.206 F
HETATM   17  C14 UNL     1      18.330  -3.040  54.443  1.00  0.00     0.099 C
HETATM   18  C13 UNL     1      17.942  -4.230  53.585  1.00  0.00     0.131 C
ENDBRANCH   9  11
ENDBRANCH   7   9
ENDBRANCH   1   7
BRANCH   4  19
HETATM   19  C9  UNL     1      16.126   1.168  49.296  1.00  0.00     0.100 A
HETATM   20  N3  UNL     1      16.979   1.667  48.409  1.00  0.00    -0.293 N
HETATM   21  N4  UNL     1      16.886   2.868  48.045  1.00  0.00    -0.304 N
ATOM     22  H3  UNL     1      17.713   1.075  48.022  1.00  0.00     0.187 HD
HETATM   23  C10 UNL     1      15.931   3.648  48.544  1.00  0.00     0.158 A
ATOM     24  H4  UNL     1      17.546   3.245  47.364  1.00  0.00     0.186 HD
HETATM   25  S2  UNL     1      15.141   2.555  49.597  1.00  0.00    -0.064 SA
ENDBRANCH   4  19
TORSDOF 4
ENDMDL