MODEL 4
REMARK VINA RESULT: -7.339995288      4.012      5.169
REMARK  2 active torsions:
REMARK  status: ('A' for Active; 'I' for Inactive)
REMARK    1  A    between atoms: C4_5  and  N1_6
REMARK    2  A    between atoms: C5_7  and  C6_8
ROOT
HETATM    1  N1  UNL     1      16.645  -3.173  51.474  1.00  0.00    -0.269 N
HETATM    2  C5  UNL     1      16.685  -2.534  50.293  1.00  0.00     0.164 A
HETATM    3  N2  UNL     1      17.072  -3.423  49.367  1.00  0.00    -0.281 N
ATOM      4  H2  UNL     1      17.192  -3.222  48.374  1.00  0.00     0.188 HD
HETATM    5  N3  UNL     1      17.278  -4.612  49.940  1.00  0.00    -0.274 N
ATOM      6  H3  UNL     1      17.578  -5.468  49.474  1.00  0.00     0.189 HD
HETATM    7  C10 UNL     1      17.013  -4.464  51.252  1.00  0.00     0.199 A
HETATM    8  S1  UNL     1      17.093  -5.577  52.442  1.00  0.00    -0.039 SA
ENDROOT
BRANCH   1   9
HETATM    9  C4  UNL     1      16.281  -2.571  52.697  1.00  0.00     0.043 A
HETATM   10  C3  UNL     1      17.166  -1.914  53.528  1.00  0.00     0.033 A
HETATM   11  C2  UNL     1      16.733  -1.352  54.708  1.00  0.00     0.044 A
HETATM   12  C1  UNL     1      15.422  -1.416  55.103  1.00  0.00     0.116 A
HETATM   13  F1  UNL     1      14.951  -0.880  56.249  1.00  0.00    -0.206 F
HETATM   14  C12 UNL     1      14.520  -2.071  54.281  1.00  0.00     0.044 A
HETATM   15  C11 UNL     1      14.961  -2.632  53.103  1.00  0.00     0.033 A
ENDBRANCH   1   9
BRANCH   2  16
HETATM   16  C6  UNL     1      16.373  -1.134  50.032  1.00  0.00     0.122 A
HETATM   17  C7  UNL     1      17.236  -0.171  49.556  1.00  0.00     0.044 A
HETATM   18  C8  UNL     1      16.528   1.006  49.459  1.00  0.00     0.048 A
HETATM   19  C9  UNL     1      15.248   0.709  49.884  1.00  0.00     0.122 A
HETATM   20 BR1  UNL     1      13.855   2.020  49.943  1.00  0.00    -0.023 Br
HETATM   21  O1  UNL     1      15.193  -0.558  50.213  1.00  0.00    -0.299 OA
ENDBRANCH   2  16
TORSDOF 2
ENDMDL