MODEL 5
REMARK VINA RESULT: -8.734239304      3.730      6.692
REMARK  3 active torsions:
REMARK  status: ('A' for Active; 'I' for Inactive)
REMARK    1  A    between atoms: C2_2  and  C3_3
REMARK    2  A    between atoms: N1_12  and  C9_13
REMARK    3  A    between atoms: C9_13  and  C10_17
ROOT
HETATM    1  C1  UNL     1      13.453  -2.058  51.482  1.00  0.00     0.062 C
HETATM    2  C2  UNL     1      14.876  -1.619  51.291  1.00  0.00     0.164 C
HETATM    3  O1  UNL     1      15.585  -2.458  50.469  1.00  0.00    -0.248 OA
HETATM    4  N1  UNL     1      16.351  -3.243  51.226  1.00  0.00    -0.200 N
HETATM    5  C15 UNL     1      16.559  -2.575  52.489  1.00  0.00     0.100 A
HETATM    6  C16 UNL     1      17.279  -2.516  53.661  1.00  0.00     0.059 A
HETATM    7  C17 UNL     1      16.756  -1.447  54.379  1.00  0.00     0.144 A
HETATM    8  O2  UNL     1      15.786  -0.907  53.676  1.00  0.00    -0.321 OA
HETATM    9  C18 UNL     1      15.636  -1.543  52.547  1.00  0.00     0.123 A
ENDROOT
BRANCH   4  10
HETATM   10  C9  UNL     1      16.920  -4.515  50.965  1.00  0.00     0.154 C
HETATM   11  N2  UNL     1      17.820  -4.664  50.024  1.00  0.00    -0.382 N
ATOM     12  H22 UNL     1      18.075  -3.821  49.509  1.00  0.00     0.157 HD
ATOM     13  H21 UNL     1      18.229  -5.580  49.837  1.00  0.00     0.157 HD
BRANCH  10  14
HETATM   14  C10 UNL     1      16.556  -5.715  51.699  1.00  0.00     0.078 A
HETATM   15  C11 UNL     1      15.469  -5.709  52.544  1.00  0.00     0.033 A
HETATM   16  C12 UNL     1      15.074  -6.828  53.274  1.00  0.00     0.004 A
HETATM   17  C13 UNL     1      15.830  -7.979  53.118  1.00  0.00     0.017 A
HETATM   18  C14 UNL     1      16.913  -7.972  52.272  1.00  0.00     0.088 A
HETATM   19  N3  UNL     1      17.238  -6.866  51.602  1.00  0.00    -0.363 N
ATOM     20  H3  UNL     1      18.048  -6.897  50.982  1.00  0.00     0.165 HD
ENDBRANCH  10  14
ENDBRANCH   4  10
BRANCH   2  21
HETATM   21  C3  UNL     1      14.854  -0.230  50.718  1.00  0.00    -0.012 A
HETATM   22  C4  UNL     1      13.713   0.532  50.713  1.00  0.00     0.014 A
HETATM   23  C5  UNL     1      13.693   1.812  50.184  1.00  0.00     0.046 A
HETATM   24  C6  UNL     1      14.837   2.356  49.643  1.00  0.00     0.154 A
HETATM   25  F1  UNL     1      14.810   3.611  49.125  1.00  0.00    -0.203 F
HETATM   26  C7  UNL     1      16.018   1.604  49.631  1.00  0.00     0.155 A
HETATM   27  F2  UNL     1      17.128   2.162  49.094  1.00  0.00    -0.203 F
HETATM   28  C8  UNL     1      15.991   0.334  50.170  1.00  0.00     0.056 A
ENDBRANCH   2  21
TORSDOF 3
ENDMDL