MODEL 4
REMARK VINA RESULT: -7.412437991      4.886      8.535
REMARK  3 active torsions:
REMARK  status: ('A' for Active; 'I' for Inactive)
REMARK    1  A    between atoms: C5_6  and  N1_7
REMARK    2  A    between atoms: N1_7  and  C6_9
REMARK    3  A    between atoms: C8_13  and  N3_14
ROOT
HETATM    1  C6  UNL     1      11.131  -2.137  55.312  1.00  0.00     0.151 A
HETATM    2  N2  UNL     1      10.677  -2.684  54.186  1.00  0.00    -0.344 N
ATOM      3  H2  UNL     1      10.022  -3.465  54.217  1.00  0.00     0.167 HD
HETATM    4  C7  UNL     1      11.081  -2.208  53.048  1.00  0.00     0.127 A
HETATM    5  C8  UNL     1      11.962  -1.155  53.060  1.00  0.00     0.095 A
HETATM    6  S2  UNL     1      12.167  -0.905  54.748  1.00  0.00    -0.035 SA
ENDROOT
BRANCH   1   7
HETATM    7  N1  UNL     1      10.839  -2.481  56.547  1.00  0.00    -0.336 N
ATOM      8  H1  UNL     1      11.489  -2.323  57.317  1.00  0.00     0.168 HD
BRANCH   7   9
HETATM    9  C5  UNL     1       9.557  -3.090  56.757  1.00  0.00     0.036 A
HETATM   10  C4  UNL     1       9.442  -4.445  57.021  1.00  0.00     0.029 A
HETATM   11  C3  UNL     1       8.166  -4.945  57.209  1.00  0.00     0.005 A
HETATM   12  C2  UNL     1       7.047  -4.162  57.143  1.00  0.00     0.042 A
HETATM   13  C1  UNL     1       7.199  -2.808  56.876  1.00  0.00     0.118 A
HETATM   14  F1  UNL     1       6.111  -1.984  56.801  1.00  0.00    -0.206 F
HETATM   15  C13 UNL     1       8.454  -2.265  56.681  1.00  0.00     0.071 A
ENDBRANCH   7   9
ENDBRANCH   1   7
BRANCH   5  16
HETATM   16  N3  UNL     1      12.565  -0.464  51.987  1.00  0.00    -0.329 N
HETATM   17  C9  UNL     1      13.738  -0.678  51.577  1.00  0.00     0.158 C
HETATM   18  S1  UNL     1      14.428   0.266  50.187  1.00  0.00    -0.093 SA
HETATM   19  N4  UNL     1      14.586  -1.662  52.145  1.00  0.00    -0.270 N
HETATM   20  C10 UNL     1      16.211  -0.009  50.187  1.00  0.00     0.084 C
HETATM   21  C11 UNL     1      16.580  -1.306  50.874  1.00  0.00     0.032 C
HETATM   22  C12 UNL     1      15.996  -1.363  52.269  1.00  0.00     0.146 C
HETATM   23 CL1  UNL     1      13.940  -3.206  52.672  1.00  0.00     0.015 Cl
ATOM     24  H3  UNL     1      12.016   0.254  51.513  1.00  0.00     0.168 HD
ENDBRANCH   5  16
TORSDOF 3
ENDMDL