MODEL 4
REMARK VINA RESULT: -7.550195833      0.181      1.028
REMARK  2 active torsions:
REMARK  status: ('A' for Active; 'I' for Inactive)
REMARK    1  A    between atoms: N1_3  and  C2_4
REMARK    2  A    between atoms: C5_7  and  O2_8
ROOT
HETATM    1  O1  UNL     1      12.185  -3.181  57.703  1.00  0.00    -0.269 OA
HETATM    2  C1  UNL     1      12.097  -2.717  56.517  1.00  0.00     0.263 A
HETATM    3  N1  UNL     1      10.841  -2.606  55.864  1.00  0.00    -0.280 N
HETATM    4  C8  UNL     1      11.126  -2.061  54.576  1.00  0.00     0.052 A
HETATM    5  C9  UNL     1      10.276  -1.738  53.509  1.00  0.00     0.032 A
HETATM    6  C10 UNL     1      10.815  -1.218  52.353  1.00  0.00     0.026 A
HETATM    7  C11 UNL     1      12.163  -0.994  52.186  1.00  0.00     0.034 A
HETATM    8 CL1  UNL     1      12.755  -0.321  50.661  1.00  0.00    -0.084 Cl
HETATM    9  C12 UNL     1      13.000  -1.306  53.225  1.00  0.00     0.036 A
HETATM   10  C13 UNL     1      12.466  -1.835  54.402  1.00  0.00     0.009 A
HETATM   11  C14 UNL     1      13.159  -2.240  55.636  1.00  0.00     0.167 A
HETATM   12  S1  UNL     1      14.091  -0.860  56.348  1.00  0.00    -0.133 SA
HETATM   13  C15 UNL     1      15.728  -1.564  56.691  1.00  0.00     0.086 C
HETATM   14  C16 UNL     1      15.988  -2.528  55.574  1.00  0.00     0.086 C
HETATM   15  S2  UNL     1      14.442  -3.453  55.302  1.00  0.00    -0.133 SA
ENDROOT
BRANCH   3  16
HETATM   16  C2  UNL     1       9.537  -2.949  56.347  1.00  0.00     0.043 A
HETATM   17  C3  UNL     1       8.473  -2.077  56.337  1.00  0.00     0.033 A
HETATM   18  C4  UNL     1       7.235  -2.495  56.828  1.00  0.00     0.039 A
HETATM   19  C5  UNL     1       7.043  -3.763  57.327  1.00  0.00     0.065 A
HETATM   20  C6  UNL     1       8.108  -4.643  57.341  1.00  0.00     0.039 A
HETATM   21  C7  UNL     1       9.323  -4.233  56.859  1.00  0.00     0.033 A
BRANCH  19  22
HETATM   22  O2  UNL     1       5.830  -4.222  57.825  1.00  0.00    -0.361 OA
ATOM     23  H2  UNL     1       5.643  -5.137  57.996  1.00  0.00     0.217 HD
ENDBRANCH  19  22
ENDBRANCH   3  16
TORSDOF 2
ENDMDL