MODEL 2
REMARK VINA RESULT: -7.968219936      2.941      5.744
REMARK  4 active torsions:
REMARK  status: ('A' for Active; 'I' for Inactive)
REMARK    1  A    between atoms: O1_1  and  C1_3
REMARK    2  A    between atoms: C6_8  and  C7_9
REMARK    3  A    between atoms: N1_14  and  C11_15
REMARK    4  A    between atoms: C14_22  and  C15_23
ROOT
HETATM    1  C11 UNL     1      13.932  -1.131  51.435  1.00  0.00     0.119 A
HETATM    2  N2  UNL     1      13.153  -0.149  50.840  1.00  0.00    -0.338 N
ATOM      3  H2  UNL     1      12.145  -0.176  50.990  1.00  0.00     0.168 HD
HETATM    4  C12 UNL     1      13.650   0.824  50.087  1.00  0.00     0.181 A
HETATM    5  N3  UNL     1      14.975   0.891  49.869  1.00  0.00    -0.361 N
ATOM      6  H3  UNL     1      15.349   1.642  49.289  1.00  0.00     0.166 HD
HETATM    7  C13 UNL     1      15.802  -0.002  50.393  1.00  0.00     0.104 A
HETATM    8  C14 UNL     1      15.256  -1.041  51.198  1.00  0.00     0.034 A
ENDROOT
BRANCH   1   9
HETATM    9  N1  UNL     1      13.291  -2.043  52.260  1.00  0.00    -0.327 N
HETATM   10  C7  UNL     1      12.972  -1.813  53.691  1.00  0.00     0.210 C
HETATM   11  F1  UNL     1      13.620  -0.712  54.192  1.00  0.00    -0.213 F
HETATM   12  C8  UNL     1      13.605  -3.041  54.320  1.00  0.00     0.074 C
HETATM   13  C9  UNL     1      13.317  -4.141  53.337  1.00  0.00     0.025 C
HETATM   14  C10 UNL     1      12.858  -3.391  52.073  1.00  0.00     0.128 C
BRANCH  10  15
HETATM   15  C6  UNL     1      11.537  -1.696  53.948  1.00  0.00     0.035 A
HETATM   16  C1  UNL     1      10.992  -1.785  55.229  1.00  0.00     0.077 A
HETATM   17  C2  UNL     1       9.646  -1.659  55.486  1.00  0.00     0.037 A
HETATM   18  C3  UNL     1       8.796  -1.435  54.431  1.00  0.00     0.003 A
HETATM   19  C4  UNL     1       9.305  -1.343  53.152  1.00  0.00     0.001 A
HETATM   20  C5  UNL     1      10.656  -1.469  52.897  1.00  0.00     0.015 A
BRANCH  16  21
HETATM   21  O1  UNL     1      11.815  -2.010  56.314  1.00  0.00    -0.360 OA
ATOM     22  H1  UNL     1      12.643  -2.444  56.142  1.00  0.00     0.217 HD
ENDBRANCH  16  21
ENDBRANCH  10  15
ENDBRANCH   1   9
BRANCH   8  23
HETATM   23  C15 UNL     1      16.193  -2.022  51.696  1.00  0.00    -0.021 A
HETATM   24  C16 UNL     1      16.424  -3.166  50.970  1.00  0.00     0.015 A
HETATM   25  C17 UNL     1      17.280  -4.160  51.471  1.00  0.00     0.043 A
HETATM   26  C18 UNL     1      17.883  -3.977  52.687  1.00  0.00     0.116 A
HETATM   27  F2  UNL     1      18.722  -4.923  53.206  1.00  0.00    -0.206 F
HETATM   28  C19 UNL     1      17.667  -2.858  53.415  1.00  0.00     0.043 A
HETATM   29  C20 UNL     1      16.808  -1.876  52.901  1.00  0.00     0.015 A
ENDBRANCH   8  23
TORSDOF 4
ENDMDL