MODEL 2
REMARK VINA RESULT: -7.759777608      3.212      4.784
REMARK  2 active torsions:
REMARK  status: ('A' for Active; 'I' for Inactive)
REMARK    1  A    between atoms: C1_2  and  C2_3
REMARK       I    between atoms: C1_2  and  N1_7
REMARK    2  A    between atoms: C2_3  and  S1_5
ROOT
HETATM    1  O1  UNL     1      13.663  -4.988  53.174  1.00  0.00    -0.269 OA
HETATM    2  C1  UNL     1      14.548  -4.205  52.813  1.00  0.00     0.272 C
HETATM    3  N1  UNL     1      14.297  -2.863  52.516  1.00  0.00    -0.220 N
HETATM    4  N2  UNL     1      15.322  -2.173  52.076  1.00  0.00    -0.290 N
ATOM      5  H2  UNL     1      16.185  -2.353  52.589  1.00  0.00     0.188 HD
HETATM    6  C3  UNL     1      15.465  -1.263  51.071  1.00  0.00     0.065 A
HETATM    7  C4  UNL     1      16.803  -0.991  50.786  1.00  0.00     0.032 A
HETATM    8  C5  UNL     1      17.158  -0.104  49.801  1.00  0.00     0.002 A
HETATM    9  C6  UNL     1      16.209   0.551  49.057  1.00  0.00     0.002 A
HETATM   10  C7  UNL     1      14.855   0.301  49.318  1.00  0.00     0.021 A
HETATM   11  C8  UNL     1      14.521  -0.591  50.309  1.00  0.00     0.033 A
HETATM   12  S2  UNL     1      12.817  -0.823  50.562  1.00  0.00    -0.086 SA
HETATM   13  C9  UNL     1      12.223  -1.596  52.014  1.00  0.00     0.034 A
HETATM   14  C10 UNL     1      10.945  -1.271  52.375  1.00  0.00     0.021 A
HETATM   15  C11 UNL     1      10.431  -1.790  53.530  1.00  0.00     0.002 A
HETATM   16  C12 UNL     1      11.234  -2.632  54.296  1.00  0.00     0.002 A
HETATM   17  C13 UNL     1      12.514  -2.953  53.929  1.00  0.00     0.033 A
HETATM   18  C14 UNL     1      13.064  -2.436  52.745  1.00  0.00     0.077 A
ENDROOT
BRANCH   2  19
HETATM   19  C2  UNL     1      15.926  -4.795  52.721  1.00  0.00     0.253 C
HETATM   20 CL1  UNL     1      15.877  -6.542  52.450  1.00  0.00    -0.102 Cl
BRANCH  19  21
HETATM   21  S1  UNL     1      16.823  -4.568  54.305  1.00  0.00    -0.029 SA
HETATM   22 CL2  UNL     1      18.178  -2.981  54.042  1.00  0.00    -0.042 Cl
ENDBRANCH  19  21
ENDBRANCH   2  19
TORSDOF 2
ENDMDL