MODEL 1
REMARK VINA RESULT: -8.462505402      0.000      0.000
REMARK  2 active torsions:
REMARK  status: ('A' for Active; 'I' for Inactive)
REMARK    1  A    between atoms: C5_5  and  N1_6
REMARK    2  A    between atoms: C8_9  and  C9_10
ROOT
HETATM    1  N1  UNL     1      15.420  -3.863  52.709  1.00  0.00    -0.340 N
HETATM    2  C6  UNL     1      16.562  -3.048  53.019  1.00  0.00     0.127 C
HETATM    3  C7  UNL     1      16.876  -2.004  51.972  1.00  0.00     0.032 C
HETATM    4  C8  UNL     1      15.707  -1.704  51.103  1.00  0.00     0.053 C
HETATM    5  C16 UNL     1      14.451  -1.707  51.985  1.00  0.00     0.114 C
HETATM    6  C17 UNL     1      14.255  -3.138  52.335  1.00  0.00     0.221 C
HETATM    7  O2  UNL     1      13.102  -3.623  52.285  1.00  0.00    -0.273 OA
ENDROOT
BRANCH   1   8
HETATM    8  C5  UNL     1      15.348  -5.281  52.740  1.00  0.00     0.192 C
HETATM    9  C4  UNL     1      15.175  -5.715  54.180  1.00  0.00     0.071 C
HETATM   10  C2  UNL     1      16.450  -6.453  54.510  1.00  0.00     0.127 C
HETATM   11  C1  UNL     1      16.223  -7.926  54.643  1.00  0.00     0.046 C
HETATM   12  C3  UNL     1      16.954  -5.948  55.852  1.00  0.00     0.046 C
HETATM   13  N3  UNL     1      17.389  -6.111  53.451  1.00  0.00     0.001 N
HETATM   14  C18 UNL     1      16.556  -6.015  52.302  1.00  0.00     0.425 C
ATOM     15  H32 UNL     1      17.956  -5.284  53.635  1.00  0.00     0.285 HD
ATOM     16  H31 UNL     1      18.175  -6.754  53.354  1.00  0.00     0.285 HD
HETATM   17  F1  UNL     1      16.163  -7.309  51.950  1.00  0.00    -0.172 F
HETATM   18  F2  UNL     1      17.173  -5.498  51.192  1.00  0.00    -0.172 F
ENDBRANCH   1   8
BRANCH   4  19
HETATM   19  C9  UNL     1      15.771  -0.426  50.404  1.00  0.00     0.060 A
HETATM   20  C10 UNL     1      16.693  -0.099  49.435  1.00  0.00     0.065 A
HETATM   21  C11 UNL     1      16.409   1.203  49.030  1.00  0.00     0.068 A
HETATM   22  N2  UNL     1      16.965   2.040  48.124  1.00  0.00    -0.364 N
HETATM   23  C15 UNL     1      15.317   1.587  49.792  1.00  0.00     0.102 A
HETATM   24  C12 UNL     1      16.501   3.283  47.905  1.00  0.00     0.088 A
ATOM     25  H2  UNL     1      17.767   1.715  47.585  1.00  0.00     0.165 HD
HETATM   26  C13 UNL     1      15.411   3.686  48.655  1.00  0.00     0.020 A
HETATM   27  C14 UNL     1      14.821   2.857  49.587  1.00  0.00     0.041 A
HETATM   28  O1  UNL     1      14.973   0.591  50.591  1.00  0.00    -0.312 OA
ENDBRANCH   4  19
TORSDOF 2
ENDMDL