MODEL 1
REMARK VINA RESULT: -7.369834742      0.000      0.000
REMARK  2 active torsions:
REMARK  status: ('A' for Active; 'I' for Inactive)
REMARK    1  A    between atoms: N1_2  and  C1_4
REMARK    2  A    between atoms: C2_5  and  C3_6
ROOT
HETATM    1  C3  UNL     1      16.735  -2.850  51.396  1.00  0.00     0.036 C
HETATM    2  C4  UNL     1      16.156  -1.776  50.959  1.00  0.00     0.044 C
HETATM    3  S1  UNL     1      17.003  -0.700  49.776  1.00  0.00    -0.085 SA
HETATM    4  C5  UNL     1      16.053   0.809  49.691  1.00  0.00     0.032 A
HETATM    5  C6  UNL     1      16.599   1.893  48.992  1.00  0.00     0.021 A
HETATM    6  C7  UNL     1      15.874   3.037  48.843  1.00  0.00     0.002 A
HETATM    7  C8  UNL     1      14.615   3.130  49.377  1.00  0.00     0.002 A
HETATM    8  C9  UNL     1      14.102   2.064  50.056  1.00  0.00     0.031 A
HETATM    9  C10 UNL     1      14.812   0.862  50.236  1.00  0.00     0.050 A
HETATM   10  N2  UNL     1      14.210  -0.153  51.011  1.00  0.00    -0.345 N
ATOM     11  H2  UNL     1      13.263   0.008  51.356  1.00  0.00     0.167 HD
HETATM   12  C11 UNL     1      14.836  -1.379  51.342  1.00  0.00     0.118 C
HETATM   13  S2  UNL     1      13.885  -2.429  52.192  1.00  0.00    -0.059 SA
ENDROOT
BRANCH   1  14
HETATM   14  C2  UNL     1      16.339  -3.872  52.312  1.00  0.00     0.002 A
HETATM   15  C1  UNL     1      16.599  -3.631  53.677  1.00  0.00     0.154 A
HETATM   16  C15 UNL     1      16.165  -4.600  54.558  1.00  0.00     0.188 A
HETATM   17  C14 UNL     1      15.509  -5.746  54.149  1.00  0.00     0.157 A
HETATM   18  F2  UNL     1      16.407  -4.396  55.893  1.00  0.00    -0.200 F
HETATM   19  C13 UNL     1      15.245  -5.994  52.814  1.00  0.00     0.046 A
HETATM   20  F1  UNL     1      15.100  -6.672  55.057  1.00  0.00    -0.203 F
HETATM   21  C12 UNL     1      15.678  -5.031  51.932  1.00  0.00     0.017 A
BRANCH  15  22
HETATM   22  N1  UNL     1      17.255  -2.459  54.108  1.00  0.00    -0.112 N
HETATM   23  O1  UNL     1      18.499  -2.403  54.181  1.00  0.00    -0.532 OA
HETATM   24  O2  UNL     1      16.548  -1.337  54.459  1.00  0.00    -0.532 OA
ENDBRANCH  15  22
ENDBRANCH   1  14
TORSDOF 2
ENDMDL