MODEL 3
REMARK VINA RESULT: -7.462046699      4.186      5.955
REMARK  7 active torsions:
REMARK  status: ('A' for Active; 'I' for Inactive)
REMARK    1  A    between atoms: C2_2  and  C3_3
REMARK    2  A    between atoms: C3_3  and  N1_4
REMARK       I    between atoms: N1_4  and  C4_6
REMARK    3  A    between atoms: C4_6  and  C5_8
REMARK       I    between atoms: C5_8  and  N2_10
REMARK    4  A    between atoms: N2_10  and  C6_12
REMARK    5  A    between atoms: C11_19  and  C12_20
REMARK    6  A    between atoms: C12_20  and  C13_21
REMARK    7  A    between atoms: C16_25  and  C17_26
ROOT
HETATM    1  C6  UNL     1       1.777   3.341 -15.645  1.00  0.00     0.165 C
HETATM    2  C7  UNL     1       1.921   3.976 -14.275  1.00  0.00     0.354 C
HETATM    3  C8  UNL     1       1.387   3.076 -13.249  1.00  0.00     0.097 C
HETATM    4  N3  UNL     1       0.969   2.359 -12.461  1.00  0.00    -0.195 NA
HETATM    5  N4  UNL     1       1.086   5.028 -14.725  1.00  0.00     0.130 N
HETATM    6  C9  UNL     1       1.625   4.786 -16.076  1.00  0.00     0.252 C
HETATM    7  C10 UNL     1       2.938   5.550 -16.129  1.00  0.00     0.045 C
HETATM    8  C11 UNL     1       2.836   6.564 -15.029  1.00  0.00     0.035 C
HETATM    9  C16 UNL     1       1.472   6.403 -14.490  1.00  0.00     0.329 C
ENDROOT
BRANCH   1  10
HETATM   10  N2  UNL     1       0.569   2.623 -15.897  1.00  0.00    -0.343 N
HETATM   11  C5  UNL     1       0.268   1.886 -17.049  1.00  0.00     0.309 C
HETATM   12  O2  UNL     1       1.115   1.824 -17.971  1.00  0.00    -0.262 OA
ATOM     13  H2  UNL     1      -0.144   2.650 -15.168  1.00  0.00     0.163 HD
BRANCH  11  14
HETATM   14  C4  UNL     1      -0.991   1.183 -17.226  1.00  0.00     0.309 C
HETATM   15  N1  UNL     1      -1.390   0.687 -18.490  1.00  0.00    -0.349 N
ATOM     16  H1  UNL     1      -0.790   0.818 -19.304  1.00  0.00     0.163 HD
HETATM   17  O1  UNL     1      -1.743   1.010 -16.241  1.00  0.00    -0.262 OA
BRANCH  15  18
HETATM   18  C3  UNL     1      -2.646  -0.001 -18.622  1.00  0.00     0.149 C
BRANCH  18  19
HETATM   19  C2  UNL     1      -3.444   0.371 -19.790  1.00  0.00    -0.018 C
HETATM   20  C1  UNL     1      -3.550  -0.461 -20.819  1.00  0.00     0.008 C
ENDBRANCH  18  19
ENDBRANCH  15  18
ENDBRANCH  11  14
ENDBRANCH   1  10
BRANCH   9  21
HETATM   21  C17 UNL     1       1.335   6.783 -13.051  1.00  0.00     0.208 C
HETATM   22  O3  UNL     1       0.539   7.686 -12.696  1.00  0.00    -0.646 OA
HETATM   23  O4  UNL     1       2.071   6.162 -12.076  1.00  0.00    -0.646 OA
ENDBRANCH   9  21
BRANCH   8  24
HETATM   24  C12 UNL     1       3.380   7.892 -15.292  1.00  0.00     0.050 C
BRANCH  24  25
HETATM   25  C13 UNL     1       2.519   9.056 -15.547  1.00  0.00     0.096 C
HETATM   26  C14 UNL     1       2.425  10.072 -14.435  1.00  0.00     0.051 C
HETATM   27  C15 UNL     1       3.209   9.829 -16.703  1.00  0.00     0.051 C
HETATM   28  F1  UNL     1       1.265   8.765 -16.069  1.00  0.00    -0.244 F
ENDBRANCH  24  25
ENDBRANCH   8  24
TORSDOF 7
ENDMDL