MODEL 1
REMARK VINA RESULT: -6.472518535      0.000      0.000
REMARK  7 active torsions:
REMARK  status: ('A' for Active; 'I' for Inactive)
REMARK    1  A    between atoms: C2_2  and  C3_3
REMARK    2  A    between atoms: C3_3  and  N1_4
REMARK    3  A    between atoms: N1_4  and  C4_6
REMARK    4  A    between atoms: C4_6  and  N2_8
REMARK       I    between atoms: N2_8  and  C5_10
REMARK       I    between atoms: C5_10  and  N3_12
REMARK    5  A    between atoms: N3_12  and  C6_14
REMARK    6  A    between atoms: C7_16  and  C8_17
REMARK    7  A    between atoms: C8_17  and  C9_18
ROOT
HETATM    1  N2  UNL     1       1.123   7.731 -13.812  1.00  0.00    -0.285 N
ATOM      2  H2  UNL     1       0.193   8.146 -13.753  1.00  0.00     0.173 HD
HETATM    3  C5  UNL     1       1.184   6.345 -13.641  1.00  0.00     0.324 C
HETATM    4  O1  UNL     1       2.303   5.766 -13.675  1.00  0.00    -0.247 OA
HETATM    5  N3  UNL     1      -0.014   5.556 -13.416  1.00  0.00    -0.309 N
ATOM      6  H3  UNL     1      -0.939   5.985 -13.416  1.00  0.00     0.167 HD
ENDROOT
BRANCH   5   7
HETATM    7  C6  UNL     1       0.155   4.150 -13.191  1.00  0.00     0.305 C
HETATM    8  O2  UNL     1      -0.285   3.427 -14.260  1.00  0.00    -0.346 OA
HETATM    9  C7  UNL     1      -1.334   2.635 -13.939  1.00  0.00     0.203 C
HETATM   10  C10 UNL     1      -1.261   2.473 -12.442  1.00  0.00     0.228 C
HETATM   11  O3  UNL     1      -1.719   1.523 -11.735  1.00  0.00    -0.286 OA
HETATM   12  C11 UNL     1      -0.541   3.657 -11.995  1.00  0.00     0.245 C
HETATM   13  O4  UNL     1      -0.530   4.141 -10.838  1.00  0.00    -0.284 OA
BRANCH   9  14
HETATM   14  C8  UNL     1      -1.453   1.314 -14.605  1.00  0.00     0.051 C
BRANCH  14  15
HETATM   15  C9  UNL     1      -0.555   0.993 -15.714  1.00  0.00     0.088 C
HETATM   16 BR1  UNL     1      -1.318   0.799 -17.433  1.00  0.00    -0.096 Br
ENDBRANCH  14  15
ENDBRANCH   9  14
ENDBRANCH   5   7
BRANCH   1  17
HETATM   17  C4  UNL     1       2.165   8.614 -14.051  1.00  0.00     0.175 C
HETATM   18  S1  UNL     1       2.175  10.063 -13.256  1.00  0.00    -0.041 SA
BRANCH  17  19
HETATM   19  N1  UNL     1       3.179   8.396 -15.011  1.00  0.00    -0.363 N
ATOM     20  H1  UNL     1       4.102   8.071 -14.724  1.00  0.00     0.162 HD
BRANCH  19  21
HETATM   21  C3  UNL     1       2.885   8.642 -16.424  1.00  0.00     0.148 C
BRANCH  21  22
HETATM   22  C2  UNL     1       2.759   7.453 -17.220  1.00  0.00    -0.018 C
HETATM   23  C1  UNL     1       3.299   6.271 -17.047  1.00  0.00     0.008 C
ENDBRANCH  21  22
ENDBRANCH  19  21
ENDBRANCH  17  19
ENDBRANCH   1  17
TORSDOF 7
ENDMDL