MODEL 1
REMARK VINA RESULT: -6.989720586      0.000      0.000
REMARK  6 active torsions:
REMARK  status: ('A' for Active; 'I' for Inactive)
REMARK    1  A    between atoms: C2_2  and  C3_3
REMARK    2  A    between atoms: C4_4  and  C5_5
REMARK    3  A    between atoms: C7_12  and  C8_13
REMARK    4  A    between atoms: C8_13  and  O4_16
REMARK    5  A    between atoms: N2_19  and  S1_20
REMARK    6  A    between atoms: S1_20  and  C11_23
ROOT
HETATM    1  C3  UNL     1       0.291   5.712 -13.449  1.00  0.00     0.159 C
HETATM    2  C4  UNL     1      -0.231   4.336 -13.377  1.00  0.00     0.210 C
HETATM    3  N1  UNL     1      -0.023   3.652 -14.663  1.00  0.00    -0.342 N
ATOM      4  H1  UNL     1      -0.738   2.963 -14.899  1.00  0.00     0.163 HD
HETATM    5  C6  UNL     1       0.997   3.791 -15.621  1.00  0.00     0.252 C
HETATM    6  O3  UNL     1       0.875   3.137 -16.677  1.00  0.00    -0.270 OA
HETATM    7  C7  UNL     1       2.201   4.625 -15.517  1.00  0.00     0.272 C
HETATM    8  O5  UNL     1       1.901   5.895 -15.045  1.00  0.00    -0.270 OA
HETATM    9  N2  UNL     1       0.584   6.100 -14.816  1.00  0.00    -0.074 NA
ENDROOT
BRANCH   7  10
HETATM   10  C8  UNL     1       2.960   4.598 -16.797  1.00  0.00     0.087 C
HETATM   11  C9  UNL     1       3.532   5.948 -17.175  1.00  0.00     0.049 C
HETATM   12  C10 UNL     1       4.036   3.539 -16.832  1.00  0.00     0.049 C
BRANCH  10  13
HETATM   13  O4  UNL     1       2.057   4.272 -17.838  1.00  0.00    -0.387 OA
ATOM     14  H4  UNL     1       2.416   4.598 -18.654  1.00  0.00     0.210 HD
ENDBRANCH  10  13
ENDBRANCH   7  10
BRANCH   9  15
HETATM   15  S1  UNL     1       0.285   7.780 -15.073  1.00  0.00     0.234 S
HETATM   16  O6  UNL     1      -0.808   8.012 -16.073  1.00  0.00    -0.209 OA
HETATM   17  O7  UNL     1      -0.141   8.396 -13.776  1.00  0.00    -0.209 OA
BRANCH  15  18
HETATM   18  C11 UNL     1       1.721   8.641 -15.637  1.00  0.00     0.155 C
HETATM   19  C12 UNL     1       2.307   9.378 -14.449  1.00  0.00     0.022 C
ENDBRANCH  15  18
ENDBRANCH   9  15
BRANCH   2  20
HETATM   20  C5  UNL     1       0.303   3.490 -12.322  1.00  0.00     0.198 C
HETATM   21  O1  UNL     1      -0.240   3.450 -11.191  1.00  0.00    -0.646 OA
HETATM   22  O2  UNL     1       1.429   2.684 -12.488  1.00  0.00    -0.646 OA
ENDBRANCH   2  20
BRANCH   1  23
HETATM   23  C2  UNL     1       1.465   6.029 -12.615  1.00  0.00    -0.011 C
HETATM   24  C1  UNL     1       1.443   6.618 -11.450  1.00  0.00     0.008 C
ENDBRANCH   1  23
TORSDOF 6
ENDMDL