MODEL 1
REMARK VINA RESULT: -8.014109692      0.000      0.000
REMARK  8 active torsions:
REMARK  status: ('A' for Active; 'I' for Inactive)
REMARK    1  A    between atoms: C2_2  and  C3_3
REMARK    2  A    between atoms: C3_3  and  N1_4
REMARK    3  A    between atoms: C5_7  and  O2_8
REMARK    4  A    between atoms: C8_13  and  C9_14
REMARK    5  A    between atoms: C9_14  and  C10_15
REMARK    6  A    between atoms: C10_15  and  O3_16
REMARK    7  A    between atoms: C10_15  and  O4_18
REMARK    8  A    between atoms: C12_21  and  C13_22
ROOT
HETATM    1  N1  UNL     1       1.899   6.328 -15.492  1.00  0.00    -0.340 N
HETATM    2  C4  UNL     1       2.764   5.580 -16.328  1.00  0.00     0.259 C
HETATM    3  O1  UNL     1       3.485   6.063 -17.219  1.00  0.00    -0.270 OA
HETATM    4  C5  UNL     1       2.688   4.140 -15.989  1.00  0.00     0.182 C
HETATM    5  C6  UNL     1       1.500   3.461 -16.627  1.00  0.00     0.150 C
HETATM    6  C7  UNL     1       1.730   2.272 -17.466  1.00  0.00     0.116 C
HETATM    7 CL1  UNL     1       0.501   2.252 -18.783  1.00  0.00    -0.122 Cl
HETATM    8  C8  UNL     1       1.584   0.949 -16.752  1.00  0.00     0.036 C
HETATM    9  C11 UNL     1       0.393   0.911 -15.876  1.00  0.00     0.013 C
HETATM   10  C12 UNL     1       0.178   2.003 -15.141  1.00  0.00     0.073 C
HETATM   11  N2  UNL     1       1.099   3.072 -15.286  1.00  0.00    -0.358 N
HETATM   12  C15 UNL     1       1.927   4.098 -14.678  1.00  0.00     0.154 C
HETATM   13  C16 UNL     1       1.201   5.420 -14.577  1.00  0.00     0.110 C
HETATM   14  C17 UNL     1       1.316   5.890 -13.142  1.00  0.00     0.034 C
ENDROOT
BRANCH   8  15
HETATM   15  C9  UNL     1       1.641  -0.200 -17.729  1.00  0.00     0.070 C
BRANCH  15  16
HETATM   16  C10 UNL     1       2.513  -1.308 -17.192  1.00  0.00     0.254 C
BRANCH  16  17
HETATM   17  O3  UNL     1       3.694  -1.437 -17.949  1.00  0.00    -0.371 OA
ATOM     18  H3  UNL     1       4.350  -0.810 -17.669  1.00  0.00     0.212 HD
ENDBRANCH  16  17
BRANCH  16  19
HETATM   19  O4  UNL     1       1.837  -2.546 -17.274  1.00  0.00    -0.371 OA
ATOM     20  H4  UNL     1       2.365  -3.236 -16.891  1.00  0.00     0.212 HD
ENDBRANCH  16  19
ENDBRANCH  15  16
ENDBRANCH   8  15
BRANCH  10  21
HETATM   21  C13 UNL     1      -0.969   2.079 -14.235  1.00  0.00     0.171 C
HETATM   22  C14 UNL     1      -1.162   3.284 -13.400  1.00  0.00     0.098 C
HETATM   23  O5  UNL     1      -1.771   1.136 -14.170  1.00  0.00    -0.291 OA
ENDBRANCH  10  21
BRANCH   4  24
HETATM   24  O2  UNL     1       3.861   3.436 -16.030  1.00  0.00    -0.376 OA
ATOM     25  H2  UNL     1       3.884   2.676 -16.599  1.00  0.00     0.211 HD
ENDBRANCH   4  24
BRANCH   1  26
HETATM   26  C3  UNL     1       1.656   7.764 -15.453  1.00  0.00     0.153 C
BRANCH  26  27
HETATM   27  C2  UNL     1       2.892   8.510 -15.116  1.00  0.00    -0.017 C
HETATM   28  C1  UNL     1       3.123   9.703 -15.630  1.00  0.00     0.008 C
ENDBRANCH  26  27
ENDBRANCH   1  26
TORSDOF 8
ENDMDL