MODEL 1
REMARK VINA RESULT: -7.899666681      0.000      0.000
REMARK  5 active torsions:
REMARK  status: ('A' for Active; 'I' for Inactive)
REMARK    1  A    between atoms: C2_2  and  C3_3
REMARK       I    between atoms: C3_3  and  N1_5
REMARK    2  A    between atoms: N1_5  and  C4_7
REMARK       I    between atoms: N2_11  and  C8_13
REMARK    3  A    between atoms: C8_13  and  C9_15
REMARK    4  A    between atoms: C11_17  and  N3_19
REMARK    5  A    between atoms: C13_22  and  C14_23
ROOT
HETATM    1  C4  UNL     1       2.174   5.727 -13.703  1.00  0.00     0.179 C
HETATM    2  C5  UNL     1       1.555   4.809 -14.770  1.00  0.00     0.066 C
HETATM    3  C6  UNL     1       1.165   3.607 -13.967  1.00  0.00     0.139 C
HETATM    4  C7  UNL     1      -0.077   2.915 -14.273  1.00  0.00     0.046 C
HETATM    5  N2  UNL     1      -0.560   2.240 -15.238  1.00  0.00    -0.326 N
ATOM      6  H2  UNL     1      -1.506   1.866 -15.150  1.00  0.00     0.168 HD
HETATM    7  C8  UNL     1       0.165   1.988 -16.429  1.00  0.00     0.254 C
HETATM    8  O2  UNL     1       0.527   2.986 -17.141  1.00  0.00    -0.268 OA
HETATM    9  C13 UNL     1      -0.602   3.343 -12.948  1.00  0.00     0.237 C
HETATM   10  N4  UNL     1       0.505   4.280 -12.823  1.00  0.00    -0.320 N
HETATM   11  C15 UNL     1       1.420   5.300 -12.479  1.00  0.00     0.244 C
HETATM   12  O5  UNL     1       1.571   5.775 -11.300  1.00  0.00    -0.271 OA
ENDROOT
BRANCH   9  13
HETATM   13  C14 UNL     1      -0.628   2.346 -11.882  1.00  0.00     0.203 C
HETATM   14  O3  UNL     1      -1.682   1.718 -11.639  1.00  0.00    -0.646 OA
HETATM   15  O4  UNL     1       0.506   2.093 -11.140  1.00  0.00    -0.646 OA
ENDBRANCH   9  13
BRANCH   7  16
HETATM   16  C9  UNL     1       0.524   0.676 -16.895  1.00  0.00     0.044 C
HETATM   17  C10 UNL     1      -0.360  -0.024 -17.895  1.00  0.00     0.057 C
HETATM   18  C11 UNL     1       1.588  -0.007 -16.525  1.00  0.00     0.110 C
HETATM   19 CL1  UNL     1       2.674   0.724 -15.366  1.00  0.00    -0.064 Cl
BRANCH  18  20
HETATM   20  N3  UNL     1       1.914  -1.289 -16.998  1.00  0.00    -0.384 N
HETATM   21  C12 UNL     1       3.223  -1.770 -17.318  1.00  0.00     0.147 C
ATOM     22  H3  UNL     1       1.141  -1.942 -17.126  1.00  0.00     0.160 HD
ENDBRANCH  18  20
ENDBRANCH   7  16
BRANCH   1  23
HETATM   23  N1  UNL     1       1.749   7.080 -13.998  1.00  0.00    -0.348 N
HETATM   24  C3  UNL     1       2.495   7.966 -14.801  1.00  0.00     0.217 C
HETATM   25  O1  UNL     1       3.580   7.590 -15.294  1.00  0.00    -0.274 OA
ATOM     26  H1  UNL     1       0.867   7.408 -13.605  1.00  0.00     0.163 HD
BRANCH  24  27
HETATM   27  C2  UNL     1       2.018   9.335 -15.073  1.00  0.00     0.098 C
HETATM   28  C1  UNL     1       3.131  10.141 -15.667  1.00  0.00     0.014 C
ENDBRANCH  24  27
ENDBRANCH   1  23
TORSDOF 5
ENDMDL