MODEL 1
REMARK VINA RESULT: -7.506848543      0.000      0.000
REMARK  6 active torsions:
REMARK  status: ('A' for Active; 'I' for Inactive)
REMARK    1  A    between atoms: C2_2  and  C3_3
REMARK    2  A    between atoms: C7_7  and  C8_8
REMARK    3  A    between atoms: C9_11  and  C10_12
REMARK       I    between atoms: N1_18  and  C13_19
REMARK    4  A    between atoms: C13_19  and  C14_21
REMARK    5  A    between atoms: C15_23  and  C17_25
REMARK    6  A    between atoms: C17_25  and  O7_26
ROOT
HETATM    1  C1  UNL     1       3.706   4.298 -14.186  1.00  0.00     0.021 C
HETATM    2  C2  UNL     1       2.884   3.281 -14.934  1.00  0.00     0.021 C
HETATM    3  C11 UNL     1       1.828   2.830 -13.883  1.00  0.00     0.199 C
HETATM    4  F1  UNL     1       2.406   2.588 -12.666  1.00  0.00    -0.247 F
HETATM    5  C12 UNL     1       1.013   4.130 -13.741  1.00  0.00     0.165 C
HETATM    6  N1  UNL     1       1.340   4.939 -14.930  1.00  0.00    -0.331 N
HETATM    7  C13 UNL     1       1.080   6.321 -15.010  1.00  0.00     0.282 C
HETATM    8  O5  UNL     1       1.427   7.040 -16.013  1.00  0.00    -0.265 OA
HETATM    9  C15 UNL     1       1.904   3.978 -15.841  1.00  0.00     0.063 C
HETATM   10  C16 UNL     1       0.726   3.039 -16.175  1.00  0.00     0.042 C
ENDROOT
BRANCH   2  11
HETATM   11  C3  UNL     1       3.625   2.168 -15.495  1.00  0.00     0.019 C
HETATM   12  C4  UNL     1       5.049   1.966 -15.032  1.00  0.00     0.006 C
HETATM   13  C5  UNL     1       4.970   0.916 -13.930  1.00  0.00     0.012 C
HETATM   14  C7  UNL     1       5.389   0.781 -15.944  1.00  0.00     0.096 C
HETATM   15  C6  UNL     1       4.436   0.046 -15.045  1.00  0.00     0.015 C
HETATM   16  C9  UNL     1       3.106   0.763 -15.270  1.00  0.00     0.097 C
BRANCH  16  17
HETATM   17  C10 UNL     1       2.424   0.188 -16.456  1.00  0.00     0.177 C
HETATM   18  O3  UNL     1       2.131   0.836 -17.468  1.00  0.00    -0.648 OA
HETATM   19  O4  UNL     1       2.112  -1.172 -16.390  1.00  0.00    -0.648 OA
ENDBRANCH  16  17
BRANCH  14  20
HETATM   20  C8  UNL     1       6.769   0.359 -16.012  1.00  0.00     0.177 C
HETATM   21  O1  UNL     1       7.683   1.241 -15.804  1.00  0.00    -0.648 OA
HETATM   22  O2  UNL     1       7.273  -0.903 -16.277  1.00  0.00    -0.648 OA
ENDBRANCH  14  20
ENDBRANCH   2  11
BRANCH   9  23
HETATM   23  C17 UNL     1       2.401   4.451 -17.141  1.00  0.00     0.195 C
BRANCH  23  24
HETATM   24  O7  UNL     1       1.774   3.659 -18.145  1.00  0.00    -0.398 OA
ATOM     25  H7  UNL     1       2.013   4.031 -18.986  1.00  0.00     0.209 HD
ENDBRANCH  23  24
ENDBRANCH   9  23
BRANCH   7  26
HETATM   26  C14 UNL     1       0.396   7.060 -13.976  1.00  0.00     0.332 C
HETATM   27  O6  UNL     1      -0.130   8.172 -14.169  1.00  0.00    -0.297 OA
ENDBRANCH   7  26
TORSDOF 6
ENDMDL