MODEL 4
REMARK VINA RESULT: -7.354903849      2.435      3.630
REMARK  5 active torsions:
REMARK  status: ('A' for Active; 'I' for Inactive)
REMARK    1  A    between atoms: C2_2  and  C4_4
REMARK    2  A    between atoms: C4_4  and  N1_5
REMARK    3  A    between atoms: C4_4  and  C15_23
REMARK       I    between atoms: N1_5  and  C5_7
REMARK    4  A    between atoms: C5_7  and  C6_9
REMARK    5  A    between atoms: C7_10  and  C8_11
ROOT
HETATM    1  C6  UNL     1       2.534   4.663 -15.568  1.00  0.00     0.059 C
HETATM    2  C7  UNL     1       2.940   4.749 -14.319  1.00  0.00     0.046 C
HETATM    3  C9  UNL     1       2.812   6.195 -13.842  1.00  0.00     0.124 C
HETATM    4  C10 UNL     1       2.958   6.879 -15.140  1.00  0.00     0.171 C
HETATM    5  O4  UNL     1       3.581   7.849 -15.445  1.00  0.00    -0.294 OA
HETATM    6  C11 UNL     1       2.115   6.040 -16.018  1.00  0.00     0.231 C
HETATM    7  O5  UNL     1       0.786   6.280 -15.714  1.00  0.00    -0.371 OA
HETATM    8  C12 UNL     1       0.443   5.971 -14.416  1.00  0.00     0.195 C
HETATM    9  C13 UNL     1       1.406   6.427 -13.375  1.00  0.00     0.069 C
HETATM   10  C14 UNL     1       1.274   7.917 -13.080  1.00  0.00     0.036 C
HETATM   11 CL1  UNL     1       1.099   5.577 -11.844  1.00  0.00    -0.116 Cl
ENDROOT
BRANCH   1  12
HETATM   12  C5  UNL     1       2.452   3.532 -16.466  1.00  0.00     0.252 C
HETATM   13  N1  UNL     1       1.673   2.398 -16.109  1.00  0.00    -0.344 N
ATOM     14  H1  UNL     1       1.190   2.421 -15.211  1.00  0.00     0.163 HD
HETATM   15  O1  UNL     1       3.015   3.418 -17.588  1.00  0.00    -0.268 OA
BRANCH  13  16
HETATM   16  C4  UNL     1       1.516   1.224 -16.917  1.00  0.00     0.177 C
BRANCH  16  17
HETATM   17  C2  UNL     1       0.071   0.869 -17.164  1.00  0.00     0.009 C
HETATM   18  C1  UNL     1      -0.464   1.484 -18.436  1.00  0.00     0.012 C
HETATM   19  C3  UNL     1      -0.780   1.388 -16.023  1.00  0.00     0.012 C
ENDBRANCH  16  17
BRANCH  16  20
HETATM   20  C15 UNL     1       2.306   0.139 -16.318  1.00  0.00     0.254 C
HETATM   21  N2  UNL     1       2.308  -1.147 -16.899  1.00  0.00    -0.060 NA
HETATM   22  O6  UNL     1       2.982   0.346 -15.290  1.00  0.00    -0.275 OA
ENDBRANCH  16  20
ENDBRANCH  13  16
ENDBRANCH   1  12
BRANCH   2  23
HETATM   23  C8  UNL     1       3.436   3.700 -13.463  1.00  0.00     0.206 C
HETATM   24  O2  UNL     1       4.576   3.541 -13.012  1.00  0.00    -0.644 OA
HETATM   25  O3  UNL     1       2.512   2.699 -13.065  1.00  0.00    -0.644 OA
ENDBRANCH   2  23
TORSDOF 5
ENDMDL