MODEL 1
REMARK VINA RESULT: -7.566301184      0.000      0.000
REMARK  6 active torsions:
REMARK  status: ('A' for Active; 'I' for Inactive)
REMARK    1  A    between atoms: C2_2  and  C3_3
REMARK    2  A    between atoms: C2_2  and  C6_11
REMARK       I    between atoms: C3_3  and  N1_5
REMARK    3  A    between atoms: N1_5  and  C4_7
REMARK    4  A    between atoms: C4_7  and  C5_8
REMARK       I    between atoms: C6_11  and  N2_13
REMARK    5  A    between atoms: C9_17  and  C10_18
REMARK       I    between atoms: C10_18  and  N3_20
REMARK    6  A    between atoms: N3_20  and  C11_22
ROOT
HETATM    1  C6  UNL     1       0.852   2.336 -16.748  1.00  0.00     0.234 C
HETATM    2  O4  UNL     1       0.353   2.683 -17.858  1.00  0.00    -0.272 OA
HETATM    3  N2  UNL     1       1.884   3.159 -16.215  1.00  0.00    -0.328 N
HETATM    4  C7  UNL     1       2.606   2.974 -14.960  1.00  0.00     0.200 C
HETATM    5  S1  UNL     1       4.313   3.139 -15.636  1.00  0.00    -0.147 SA
HETATM    6  C8  UNL     1       3.889   4.230 -17.019  1.00  0.00     0.110 C
HETATM    7  C9  UNL     1       2.393   4.347 -16.858  1.00  0.00     0.189 C
ENDROOT
BRANCH   1   8
HETATM    8  C2  UNL     1       0.338   1.124 -16.098  1.00  0.00     0.166 C
HETATM    9  C1  UNL     1      -0.061   0.097 -17.139  1.00  0.00     0.030 C
BRANCH   8  10
HETATM   10  C3  UNL     1      -0.713   1.339 -15.097  1.00  0.00     0.231 C
HETATM   11  O1  UNL     1      -1.646   0.514 -14.998  1.00  0.00    -0.273 OA
HETATM   12  N1  UNL     1      -0.735   2.447 -14.217  1.00  0.00    -0.350 N
ATOM     13  H1  UNL     1       0.024   3.124 -14.293  1.00  0.00     0.163 HD
BRANCH  12  14
HETATM   14  C4  UNL     1      -1.735   2.690 -13.234  1.00  0.00     0.235 C
BRANCH  14  15
HETATM   15  C5  UNL     1      -1.290   2.194 -11.918  1.00  0.00     0.191 C
HETATM   16  O2  UNL     1      -2.038   1.431 -11.257  1.00  0.00    -0.647 OA
HETATM   17  O3  UNL     1      -0.067   2.529 -11.355  1.00  0.00    -0.647 OA
ENDBRANCH  14  15
ENDBRANCH  12  14
ENDBRANCH   8  10
ENDBRANCH   1   8
BRANCH   7  18
HETATM   18  C10 UNL     1       1.994   5.609 -16.209  1.00  0.00     0.242 C
HETATM   19  O5  UNL     1       0.944   5.582 -15.509  1.00  0.00    -0.271 OA
HETATM   20  N3  UNL     1       2.681   6.842 -16.297  1.00  0.00    -0.351 N
ATOM     21  H3  UNL     1       3.534   6.882 -16.854  1.00  0.00     0.163 HD
BRANCH  20  22
HETATM   22  C11 UNL     1       2.235   8.046 -15.638  1.00  0.00     0.022 C
HETATM   23  C12 UNL     1       0.769   8.304 -15.837  1.00  0.00     0.037 C
HETATM   24  C13 UNL     1       2.989   9.228 -16.245  1.00  0.00     0.037 C
HETATM   25  C14 UNL     1       2.483   7.981 -14.137  1.00  0.00     0.037 C
ENDBRANCH  20  22
ENDBRANCH   7  18
TORSDOF 6
ENDMDL