MODEL 5
REMARK VINA RESULT: -8.175510401      1.572      2.224
REMARK  6 active torsions:
REMARK  status: ('A' for Active; 'I' for Inactive)
REMARK    1  A    between atoms: N1_2  and  C2_5
REMARK    2  A    between atoms: C6_10  and  C7_11
REMARK    3  A    between atoms: C7_11  and  N2_12
REMARK       I    between atoms: N2_12  and  C8_14
REMARK    4  A    between atoms: C8_14  and  C9_16
REMARK    5  A    between atoms: C9_16  and  S1_18
REMARK    6  A    between atoms: C16_26  and  N3_27
ROOT
HETATM    1  C2  UNL     1       2.311   1.513 -16.269  1.00  0.00     0.198 C
HETATM    2  C3  UNL     1       1.660   1.684 -17.609  1.00  0.00     0.048 C
HETATM    3  C4  UNL     1       2.007   3.065 -18.059  1.00  0.00     0.018 C
HETATM    4  C5  UNL     1       2.094   4.030 -17.129  1.00  0.00     0.096 C
HETATM    5  F1  UNL     1       2.409   5.252 -17.595  1.00  0.00    -0.211 F
HETATM    6  C6  UNL     1       1.875   3.807 -15.703  1.00  0.00     0.072 C
HETATM    7  C12 UNL     1       1.434   2.383 -15.399  1.00  0.00     0.034 C
HETATM    8  C13 UNL     1       0.063   2.175 -15.939  1.00  0.00     0.005 A
HETATM    9  C14 UNL     1      -0.557   0.821 -15.631  1.00  0.00     0.017 A
HETATM   10  C15 UNL     1      -1.957   1.049 -15.063  1.00  0.00     0.012 C
HETATM   11  C16 UNL     1      -0.555   0.481 -17.084  1.00  0.00     0.192 A
HETATM   12  C17 UNL     1       0.170   1.731 -17.379  1.00  0.00     0.031 A
ENDROOT
BRANCH   6  13
HETATM   13  C7  UNL     1       1.054   4.797 -14.968  1.00  0.00     0.134 C
BRANCH  13  14
HETATM   14  N2  UNL     1       1.672   6.101 -14.828  1.00  0.00    -0.359 N
HETATM   15  C8  UNL     1       0.855   7.240 -15.027  1.00  0.00     0.235 C
HETATM   16  O1  UNL     1      -0.355   7.073 -15.316  1.00  0.00    -0.272 OA
ATOM     17  H2  UNL     1       2.660   6.195 -14.594  1.00  0.00     0.162 HD
BRANCH  15  18
HETATM   18  C9  UNL     1       1.347   8.634 -14.914  1.00  0.00     0.195 C
HETATM   19  C10 UNL     1       1.565   9.024 -13.480  1.00  0.00     0.036 C
BRANCH  18  20
HETATM   20  S1  UNL     1       2.849   8.790 -15.818  1.00  0.00     0.153 S
HETATM   21  C11 UNL     1       3.345  10.496 -15.981  1.00  0.00     0.162 C
HETATM   22  O2  UNL     1       2.746   8.227 -17.203  1.00  0.00    -0.227 OA
HETATM   23  O3  UNL     1       3.960   8.055 -15.112  1.00  0.00    -0.227 OA
ENDBRANCH  18  20
ENDBRANCH  15  18
ENDBRANCH  13  14
ENDBRANCH   6  13
BRANCH   1  24
HETATM   24  N1  UNL     1       2.477   0.189 -15.806  1.00  0.00    -0.074 N
HETATM   25  C1  UNL     1       3.813  -0.253 -16.159  1.00  0.00     0.267 C
ATOM     26  H12 UNL     1       1.753  -0.440 -16.148  1.00  0.00     0.277 HD
ATOM     27  H11 UNL     1       2.284   0.095 -14.809  1.00  0.00     0.277 HD
ENDBRANCH   1  24
BRANCH  11  28
HETATM   28  N3  UNL     1       0.013  -0.769 -17.483  1.00  0.00    -0.074 N
ATOM     29  H33 UNL     1       0.107  -0.783 -18.499  1.00  0.00     0.274 HD
ATOM     30  H32 UNL     1       0.991  -0.797 -17.197  1.00  0.00     0.274 HD
ATOM     31  H31 UNL     1      -0.448  -1.627 -17.180  1.00  0.00     0.274 HD
ENDBRANCH  11  28
TORSDOF 6
ENDMDL