MODEL 1
REMARK VINA RESULT: -7.947196289      0.000      0.000
REMARK  5 active torsions:
REMARK  status: ('A' for Active; 'I' for Inactive)
REMARK    1  A    between atoms: N2_6  and  C4_8
REMARK       I    between atoms: N3_11  and  C6_12
REMARK    2  A    between atoms: C6_12  and  C7_14
REMARK    3  A    between atoms: C7_14  and  C9_16
REMARK    4  A    between atoms: C12_19  and  C13_20
REMARK    5  A    between atoms: C15_25  and  C16_26
ROOT
HETATM    1  C4  UNL     1       2.550   1.998 -14.767  1.00  0.00     0.186 C
HETATM    2  C5  UNL     1       1.275   2.457 -14.136  1.00  0.00     0.300 C
HETATM    3  F1  UNL     1       0.121   1.894 -14.677  1.00  0.00    -0.224 F
HETATM    4  N3  UNL     1       1.464   3.826 -14.605  1.00  0.00    -0.302 N
HETATM    5  C6  UNL     1       0.757   5.022 -14.330  1.00  0.00     0.227 C
HETATM    6  O1  UNL     1      -0.240   4.921 -13.526  1.00  0.00    -0.273 OA
HETATM    7  C12 UNL     1       2.574   3.375 -15.377  1.00  0.00     0.218 C
ENDROOT
BRANCH   1   8
HETATM    8  N2  UNL     1       2.296   0.917 -15.695  1.00  0.00    -0.214 N
HETATM    9  C3  UNL     1       3.307   0.166 -16.005  1.00  0.00     0.681 A
HETATM   10  N1  UNL     1       4.584   0.241 -15.588  1.00  0.00    -0.193 N
HETATM   11  N4  UNL     1       3.253  -0.888 -16.855  1.00  0.00    -0.179 N
HETATM   12  C2  UNL     1       5.337  -0.729 -16.143  1.00  0.00     0.057 A
ATOM     13  H1  UNL     1       4.936   0.941 -14.935  1.00  0.00     0.184 HD
HETATM   14  C1  UNL     1       6.777  -0.946 -15.910  1.00  0.00     0.071 C
HETATM   15  C15 UNL     1       4.473  -1.441 -16.949  1.00  0.00     0.150 A
HETATM   16  C14 UNL     1       2.071  -1.355 -17.558  1.00  0.00     0.176 C
ATOM     17  H2  UNL     1       1.368   0.754 -16.086  1.00  0.00     0.178 HD
BRANCH  15  18
HETATM   18  C16 UNL     1       4.895  -2.586 -17.738  1.00  0.00     0.229 C
HETATM   19  O4  UNL     1       5.085  -3.673 -17.147  1.00  0.00    -0.643 OA
HETATM   20  O5  UNL     1       5.099  -2.538 -19.103  1.00  0.00    -0.643 OA
ENDBRANCH  15  18
ENDBRANCH   1   8
BRANCH   7  21
HETATM   21  C13 UNL     1       2.439   3.400 -16.854  1.00  0.00     0.199 C
HETATM   22  O2  UNL     1       3.433   3.452 -17.589  1.00  0.00    -0.646 OA
HETATM   23  O3  UNL     1       1.149   3.363 -17.366  1.00  0.00    -0.646 OA
ENDBRANCH   7  21
BRANCH   5  24
HETATM   24  C7  UNL     1       1.091   6.349 -14.902  1.00  0.00     0.077 C
HETATM   25  C8  UNL     1      -0.153   7.213 -14.840  1.00  0.00     0.020 C
BRANCH  24  26
HETATM   26  C9  UNL     1       2.258   7.023 -14.213  1.00  0.00    -0.010 C
HETATM   27  C10 UNL     1       1.948   8.411 -13.752  1.00  0.00     0.010 C
HETATM   28  C11 UNL     1       3.392   7.160 -15.244  1.00  0.00     0.010 C
ENDBRANCH  24  26
ENDBRANCH   5  24
TORSDOF 5
ENDMDL