MODEL 3
REMARK VINA RESULT: -5.574450434      2.812      2.826
REMARK  4 active torsions:
REMARK  status: ('A' for Active; 'I' for Inactive)
REMARK    1  A    between atoms: C3_3  and  C4_4
REMARK    2  A    between atoms: C4_4  and  C5_5
REMARK    3  A    between atoms: C5_5  and  C6_6
REMARK    4  A    between atoms: C7_7  and  C8_8
ROOT
HETATM    1  C1  UNL     1      34.983  -8.845   5.538  1.00  0.00     0.113 C
HETATM    2  C2  UNL     1      34.184  -7.600   5.564  1.00  0.00    -0.097 C
HETATM    3  C3  UNL     1      33.520  -6.591   5.598  1.00  0.00    -0.015 C
ENDROOT
BRANCH   3   4
HETATM    4  C4  UNL     1      32.735  -5.410   5.650  1.00  0.00    -0.009 C
BRANCH   4   5
HETATM    5  C5  UNL     1      32.052  -4.408   5.704  1.00  0.00    -0.045 C
BRANCH   5   6
HETATM    6  C6  UNL     1      31.228  -3.237   5.755  1.00  0.00     0.112 A
HETATM    7  C7  UNL     1      30.905  -2.465   4.657  1.00  0.00     0.060 A
HETATM    8  N1  UNL     1      30.115  -1.439   5.049  1.00  0.00    -0.300 N
HETATM    9  N2  UNL     1      29.936  -1.545   6.356  1.00  0.00    -0.265 N
ATOM     10  H1  UNL     1      29.727  -0.713   4.446  1.00  0.00     0.186 HD
HETATM   11  C9  UNL     1      30.596  -2.623   6.816  1.00  0.00     0.280 A
ATOM     12  H2  UNL     1      29.382  -0.907   6.927  1.00  0.00     0.190 HD
HETATM   13  O1  UNL     1      30.678  -3.072   8.002  1.00  0.00    -0.265 OA
BRANCH   7  14
HETATM   14  C8  UNL     1      31.349  -2.720   3.275  1.00  0.00     0.145 C
HETATM   15 BR1  UNL     1      30.306  -4.223   2.586  1.00  0.00    -0.090 Br
ENDBRANCH   7  14
ENDBRANCH   5   6
ENDBRANCH   4   5
ENDBRANCH   3   4
TORSDOF 4
ENDMDL