MODEL 3
REMARK VINA RESULT: -5.276542220      1.423      1.735
REMARK  3 active torsions:
REMARK  status: ('A' for Active; 'I' for Inactive)
REMARK    1  A    between atoms: C3_5  and  C4_6
REMARK    2  A    between atoms: C5_10  and  N3_11
REMARK    3  A    between atoms: N3_11  and  C6_13
ROOT
HETATM    1  C1  UNL     1      33.971  -2.633   4.102  1.00  0.00     0.047 C
HETATM    2  C2  UNL     1      34.169  -1.692   4.999  1.00  0.00     0.068 A
HETATM    3  N1  UNL     1      35.332  -1.014   5.235  1.00  0.00    -0.340 N
ATOM      4  H1  UNL     1      36.214  -1.149   4.741  1.00  0.00     0.167 HD
HETATM    5  C3  UNL     1      35.114  -0.144   6.224  1.00  0.00     0.114 A
HETATM    6  N2  UNL     1      33.822  -0.281   6.601  1.00  0.00    -0.327 N
ATOM      7  H2  UNL     1      33.371   0.258   7.340  1.00  0.00     0.169 HD
HETATM    8  C5  UNL     1      33.220  -1.219   5.869  1.00  0.00     0.129 A
ENDROOT
BRANCH   8   9
HETATM    9  N3  UNL     1      32.024  -1.593   5.961  1.00  0.00    -0.370 N
ATOM     10  H3  UNL     1      31.447  -1.447   5.133  1.00  0.00     0.161 HD
BRANCH   9  11
HETATM   11  C6  UNL     1      31.374  -2.191   7.069  1.00  0.00     0.075 C
HETATM   12  C7  UNL     1      31.775  -3.673   7.092  1.00  0.00     0.031 C
HETATM   13  C8  UNL     1      29.865  -2.169   6.993  1.00  0.00     0.031 C
ENDBRANCH   9  11
ENDBRANCH   8   9
BRANCH   5  14
HETATM   14  C4  UNL     1      36.020   0.692   6.727  1.00  0.00     0.104 C
HETATM   15 BR1  UNL     1      37.849   0.630   6.188  1.00  0.00    -0.060 Br
ENDBRANCH   5  14
TORSDOF 3
ENDMDL