MODEL 4
REMARK VINA RESULT: -5.266539019      2.603      3.098
REMARK  2 active torsions:
REMARK  status: ('A' for Active; 'I' for Inactive)
REMARK    1  A    between atoms: C4_7  and  C6_9
REMARK    2  A    between atoms: C6_9  and  C7_10
ROOT
HETATM    1  C7  UNL     1      32.407  -6.204   4.075  1.00  0.00    -0.091 C
HETATM    2  C8  UNL     1      33.188  -6.958   4.614  1.00  0.00    -0.024 C
HETATM    3 BR1  UNL     1      34.390  -8.161   5.452  1.00  0.00     0.010 Br
ENDROOT
BRANCH   1   4
HETATM    4  C6  UNL     1      31.464  -5.309   3.450  1.00  0.00     0.135 C
BRANCH   4   5
HETATM    5  C4  UNL     1      31.854  -3.872   3.684  1.00  0.00     0.119 C
HETATM    6  C3  UNL     1      30.746  -2.934   3.558  1.00  0.00     0.252 C
HETATM    7  N1  UNL     1      30.287  -2.693   4.874  1.00  0.00    -0.315 N
HETATM    8  O1  UNL     1      30.294  -2.447   2.508  1.00  0.00    -0.270 OA
HETATM    9  C2  UNL     1      31.103  -3.154   5.738  1.00  0.00     0.076 C
ATOM     10  H1  UNL     1      29.417  -2.212   5.102  1.00  0.00     0.170 HD
HETATM   11  C1  UNL     1      30.880  -3.045   7.223  1.00  0.00     0.089 C
HETATM   12  N2  UNL     1      32.196  -3.751   5.089  1.00  0.00    -0.362 N
ATOM     13  H2  UNL     1      33.070  -4.046   5.526  1.00  0.00     0.162 HD
HETATM   14  C5  UNL     1      33.078  -3.467   2.904  1.00  0.00     0.050 C
ENDBRANCH   4   5
ENDBRANCH   1   4
TORSDOF 2
ENDMDL