MODEL 1
REMARK VINA RESULT: -5.847594110      0.000      0.000
REMARK  1 active torsions:
REMARK  status: ('A' for Active; 'I' for Inactive)
REMARK    1  A    between atoms: N1_5  and  N2_7
ROOT
HETATM    1  C1  UNL     1      35.068  -2.443   3.401  1.00  0.00     0.040 C
HETATM    2  C2  UNL     1      33.853  -2.533   4.295  1.00  0.00     0.187 C
HETATM    3  C3  UNL     1      33.749  -1.251   5.072  1.00  0.00     0.087 C
HETATM    4  C4  UNL     1      33.273  -1.470   6.461  1.00  0.00     0.023 C
HETATM    5  N1  UNL     1      33.450  -0.530   7.305  1.00  0.00    -0.294 N
ATOM      6  H1  UNL     1      33.118  -0.692   8.256  1.00  0.00     0.188 HD
HETATM    7  C5  UNL     1      32.613  -2.704   6.913  1.00  0.00     0.135 C
HETATM    8 BR1  UNL     1      30.688  -2.388   6.980  1.00  0.00    -0.083 Br
HETATM    9  C6  UNL     1      32.907  -3.891   6.037  1.00  0.00     0.202 C
HETATM   10  C7  UNL     1      33.257  -5.053   6.947  1.00  0.00     0.041 C
HETATM   11  N4  UNL     1      33.983  -3.693   5.122  1.00  0.00    -0.066 N
ATOM     12  H41 UNL     1      34.873  -3.678   5.620  1.00  0.00     0.278 HD
ATOM     13  H42 UNL     1      34.118  -4.525   4.547  1.00  0.00     0.278 HD
ENDROOT
BRANCH   5  14
HETATM   14  N2  UNL     1      34.048   0.684   7.048  1.00  0.00    -0.249 N
HETATM   15  N3  UNL     1      35.263   0.966   7.278  1.00  0.00    -0.331 N
ATOM     16  H32 UNL     1      35.829   0.222   7.686  1.00  0.00     0.178 HD
ATOM     17  H31 UNL     1      35.707   1.865   7.088  1.00  0.00     0.178 HD
ATOM     18  H2  UNL     1      33.467   1.416   6.640  1.00  0.00     0.207 HD
ENDBRANCH   5  14
TORSDOF 1
ENDMDL