MODEL 1
REMARK VINA RESULT: -6.105398898      0.000      0.000
REMARK  5 active torsions:
REMARK  status: ('A' for Active; 'I' for Inactive)
REMARK    1  A    between atoms: C2_5  and  C3_6
REMARK    2  A    between atoms: C3_6  and  C4_7
REMARK    3  A    between atoms: C5_8  and  C6_9
REMARK    4  A    between atoms: C6_9  and  C7_10
REMARK    5  A    between atoms: C8_11  and  C9_12
ROOT
HETATM    1  C3  UNL     1      33.974  -9.177   5.546  1.00  0.00     0.141 C
ENDROOT
BRANCH   1   2
HETATM    2  C2  UNL     1      33.880  -9.444   4.069  1.00  0.00     0.201 C
HETATM    3  N1  UNL     1      32.762  -8.675   3.515  1.00  0.00    -0.321 N
HETATM    4  C1  UNL     1      32.395  -9.830   2.775  1.00  0.00     0.319 C
ATOM      5  H1  UNL     1      32.404  -7.725   3.616  1.00  0.00     0.166 HD
HETATM    6  O1  UNL     1      31.730 -10.125   1.748  1.00  0.00    -0.247 OA
HETATM    7  N2  UNL     1      33.122 -10.617   3.702  1.00  0.00    -0.321 N
ATOM      8  H2  UNL     1      33.113 -11.596   3.988  1.00  0.00     0.166 HD
ENDBRANCH   1   2
BRANCH   1   9
HETATM    9  C4  UNL     1      34.227  -7.745   5.722  1.00  0.00    -0.102 C
HETATM   10  C5  UNL     1      34.436  -6.548   5.853  1.00  0.00    -0.094 C
BRANCH  10  11
HETATM   11  C6  UNL     1      34.679  -5.110   5.989  1.00  0.00     0.187 C
BRANCH  11  12
HETATM   12  C7  UNL     1      33.450  -4.519   6.523  1.00  0.00    -0.094 C
HETATM   13  C8  UNL     1      32.443  -4.015   6.949  1.00  0.00    -0.095 C
BRANCH  13  14
HETATM   14  C9  UNL     1      31.206  -3.377   7.459  1.00  0.00     0.178 C
HETATM   15 BR1  UNL     1      30.411  -2.439   5.983  1.00  0.00    -0.083 Br
ENDBRANCH  13  14
ENDBRANCH  11  12
ENDBRANCH  10  11
ENDBRANCH   1   9
TORSDOF 5
ENDMDL