MODEL 5
REMARK VINA RESULT: -5.246590791      6.120      6.708
REMARK  1 active torsions:
REMARK  status: ('A' for Active; 'I' for Inactive)
REMARK    1  A    between atoms: N3_8  and  S1_10
ROOT
HETATM    1  C1  UNL     1      39.461  -0.118   5.398  1.00  0.00     0.071 C
HETATM    2  C2  UNL     1      38.330   0.192   6.305  1.00  0.00     0.043 A
HETATM    3  N1  UNL     1      37.086  -0.309   6.247  1.00  0.00    -0.302 N
ATOM      4  H1  UNL     1      36.754  -0.982   5.557  1.00  0.00     0.186 HD
HETATM    5  N2  UNL     1      36.360   0.202   7.221  1.00  0.00    -0.284 N
ATOM      6  H2  UNL     1      35.379  -0.014   7.400  1.00  0.00     0.188 HD
HETATM    7  C3  UNL     1      37.118   1.059   7.947  1.00  0.00     0.149 A
HETATM    8  N3  UNL     1      36.663   1.681   8.934  1.00  0.00    -0.268 N
ATOM      9  H3  UNL     1      35.683   1.483   9.133  1.00  0.00     0.180 HD
HETATM   10  C5  UNL     1      38.364   1.064   7.381  1.00  0.00     0.080 A
HETATM   11 BR1  UNL     1      39.923   2.035   7.884  1.00  0.00    -0.045 Br
ENDROOT
BRANCH   8  12
HETATM   12  S1  UNL     1      37.365   2.784   9.994  1.00  0.00     0.228 S
HETATM   13  C4  UNL     1      38.662   2.117  11.000  1.00  0.00     0.186 C
HETATM   14  O1  UNL     1      38.019   3.893   9.160  1.00  0.00    -0.206 OA
HETATM   15  O2  UNL     1      36.357   3.530  10.855  1.00  0.00    -0.206 OA
ENDBRANCH   8  12
TORSDOF 1
ENDMDL