MODEL 3
REMARK VINA RESULT: -5.786714590      3.179      3.612
REMARK  3 active torsions:
REMARK  status: ('A' for Active; 'I' for Inactive)
REMARK    1  A    between atoms: C2_2  and  C3_3
REMARK    2  A    between atoms: C4_4  and  C5_5
REMARK    3  A    between atoms: C6_6  and  C7_7
ROOT
HETATM    1  C7  UNL     1      33.222  -4.244   6.687  1.00  0.00     0.167 C
HETATM    2  C8  UNL     1      32.943  -3.360   5.500  1.00  0.00     0.063 C
HETATM    3  C9  UNL     1      31.974  -2.352   6.028  1.00  0.00     0.152 C
HETATM    4 BR1  UNL     1      30.490  -2.052   4.839  1.00  0.00    -0.081 Br
HETATM    5  C10 UNL     1      31.434  -2.938   7.283  1.00  0.00     0.233 C
HETATM    6  O1  UNL     1      30.665  -2.331   8.080  1.00  0.00    -0.272 OA
HETATM    7  N1  UNL     1      31.951  -4.258   7.377  1.00  0.00    -0.345 N
ATOM      8  H1  UNL     1      31.513  -5.056   7.839  1.00  0.00     0.163 HD
ENDROOT
BRANCH   1   9
HETATM    9  C6  UNL     1      33.510  -5.626   6.289  1.00  0.00    -0.067 C
HETATM   10  C5  UNL     1      33.727  -6.766   5.959  1.00  0.00    -0.013 C
BRANCH  10  11
HETATM   11  C4  UNL     1      33.961  -8.108   5.567  1.00  0.00    -0.015 C
HETATM   12  C3  UNL     1      34.144  -9.257   5.230  1.00  0.00    -0.093 C
BRANCH  12  13
HETATM   13  C2  UNL     1      34.349 -10.659   4.812  1.00  0.00     0.090 C
HETATM   14  C1  UNL     1      33.382 -10.935   3.679  1.00  0.00     0.018 C
ENDBRANCH  12  13
ENDBRANCH  10  11
ENDBRANCH   1   9
TORSDOF 3
ENDMDL