MODEL 3
REMARK VINA RESULT: -5.138037109      3.452      3.779
REMARK  2 active torsions:
REMARK  status: ('A' for Active; 'I' for Inactive)
REMARK    1  A    between atoms: C4_9  and  N3_10
REMARK    2  A    between atoms: N3_10  and  S1_12
ROOT
HETATM    1  C1  UNL     1      36.198  -0.922   4.768  1.00  0.00     0.055 C
HETATM    2  C2  UNL     1      35.096  -0.510   5.688  1.00  0.00     0.019 A
HETATM    3  C3  UNL     1      33.832  -1.066   5.714  1.00  0.00     0.104 A
HETATM    4 BR1  UNL     1      33.183  -2.483   4.596  1.00  0.00    -0.029 Br
HETATM    5  N1  UNL     1      33.162  -0.407   6.685  1.00  0.00    -0.291 N
ATOM      6  H1  UNL     1      32.195  -0.584   6.956  1.00  0.00     0.187 HD
HETATM    7  N2  UNL     1      33.963   0.514   7.236  1.00  0.00    -0.284 N
ATOM      8  H2  UNL     1      33.698   1.146   7.991  1.00  0.00     0.188 HD
HETATM    9  C4  UNL     1      35.165   0.479   6.647  1.00  0.00     0.136 A
ENDROOT
BRANCH   9  10
HETATM   10  N3  UNL     1      36.225   1.184   6.864  1.00  0.00    -0.290 N
ATOM     11  H3  UNL     1      36.592   1.769   6.114  1.00  0.00     0.178 HD
BRANCH  10  12
HETATM   12  S1  UNL     1      37.046   1.162   8.405  1.00  0.00     0.111 S
HETATM   13  C5  UNL     1      38.321   2.434   8.396  1.00  0.00     0.152 C
HETATM   14  O1  UNL     1      36.111   1.371   9.570  1.00  0.00    -0.236 OA
ENDBRANCH  10  12
ENDBRANCH   9  10
TORSDOF 2
ENDMDL