MODEL 1
REMARK VINA RESULT: -4.425742744      0.000      0.000
REMARK  1 active torsions:
REMARK  status: ('A' for Active; 'I' for Inactive)
REMARK    1  A    between atoms: C4_9  and  C5_10
ROOT
HETATM    1  C1  UNL     1      31.001  -3.031   7.467  1.00  0.00     0.034 C
HETATM    2  C2  UNL     1      32.145  -3.075   6.526  1.00  0.00     0.103 C
HETATM    3  N1  UNL     1      33.230  -2.278   7.118  1.00  0.00    -0.361 N
ATOM      4  H1  UNL     1      33.709  -2.488   7.994  1.00  0.00     0.162 HD
HETATM    5  C3  UNL     1      33.503  -1.167   6.274  1.00  0.00     0.168 C
HETATM    6  S1  UNL     1      34.786  -0.135   6.358  1.00  0.00    -0.041 SA
HETATM    7  N2  UNL     1      32.440  -1.116   5.327  1.00  0.00    -0.360 N
ATOM      8  H2  UNL     1      32.084  -0.295   4.840  1.00  0.00     0.162 HD
HETATM    9  C4  UNL     1      31.972  -2.482   5.206  1.00  0.00     0.116 C
ENDROOT
BRANCH   9  10
HETATM   10  C5  UNL     1      30.626  -2.529   4.579  1.00  0.00     0.112 C
HETATM   11 BR1  UNL     1      30.612  -3.726   3.059  1.00  0.00    -0.094 Br
ENDBRANCH   9  10
TORSDOF 1
ENDMDL