MODEL 2
REMARK VINA RESULT: -5.796616265      4.082      4.451
REMARK  3 active torsions:
REMARK  status: ('A' for Active; 'I' for Inactive)
REMARK    1  A    between atoms: C2_2  and  C3_3
REMARK    2  A    between atoms: C4_6  and  N2_7
REMARK    3  A    between atoms: N2_7  and  C5_9
ROOT
HETATM    1  C3  UNL     1      34.724  -1.036   5.282  1.00  0.00     0.049 A
HETATM    2  N1  UNL     1      33.533  -1.631   5.096  1.00  0.00    -0.194 N
ATOM      3  H1  UNL     1      33.408  -2.244   4.290  1.00  0.00     0.184 HD
HETATM    4  C4  UNL     1      32.495  -1.443   5.942  1.00  0.00     0.687 A
HETATM    5  N3  UNL     1      32.701  -0.626   6.994  1.00  0.00    -0.155 N
ATOM      6  H3  UNL     1      31.934  -0.468   7.647  1.00  0.00     0.187 HD
HETATM    7  C6  UNL     1      33.881  -0.008   7.220  1.00  0.00     0.279 A
HETATM    8  O2  UNL     1      34.041   0.754   8.219  1.00  0.00    -0.266 OA
HETATM    9  C7  UNL     1      34.948  -0.194   6.360  1.00  0.00     0.102 A
HETATM   10 BR1  UNL     1      36.636   0.650   6.635  1.00  0.00    -0.043 Br
ENDROOT
BRANCH   4  11
HETATM   11  N2  UNL     1      31.357  -1.993   5.797  1.00  0.00    -0.167 N
ATOM     12  H2  UNL     1      31.063  -2.142   4.831  1.00  0.00     0.186 HD
BRANCH  11  13
HETATM   13  C5  UNL     1      30.458  -2.421   6.768  1.00  0.00     0.368 C
HETATM   14  O1  UNL     1      30.768  -2.867   7.906  1.00  0.00    -0.283 OA
ENDBRANCH  11  13
ENDBRANCH   4  11
BRANCH   1  15
HETATM   15  C2  UNL     1      35.853  -1.257   4.318  1.00  0.00     0.055 C
HETATM   16  C1  UNL     1      35.466  -2.297   3.276  1.00  0.00     0.011 C
ENDBRANCH   1  15
TORSDOF 3
ENDMDL