MODEL 1
REMARK VINA RESULT: -7.836573217      0.000      0.000
REMARK  12 active torsions:
REMARK  status: ('A' for Active; 'I' for Inactive)
REMARK    1  A    between atoms: C2_2  and  C3_3
REMARK    2  A    between atoms: C3_3  and  O1_4
REMARK    3  A    between atoms: C3_3  and  C4_6
REMARK    4  A    between atoms: C6_8  and  C7_9
REMARK    5  A    between atoms: C7_9  and  N1_10
REMARK    6  A    between atoms: C11_14  and  N2_15
REMARK    7  A    between atoms: C11_14  and  C12_21
REMARK    8  A    between atoms: N2_15  and  N3_17
REMARK    9  A    between atoms: N3_17  and  N4_18
REMARK   10  A    between atoms: C15_26  and  O4_27
REMARK   11  A    between atoms: C15_26  and  C16_29
REMARK   12  A    between atoms: C16_29  and  C17_31
ROOT
HETATM    1  C4  UNL     1      34.790  36.747  22.744  1.00  0.00    -0.025 C
HETATM    2  C5  UNL     1      35.836  37.188  21.993  1.00  0.00    -0.010 C
HETATM    3  C6  UNL     1      35.958  38.540  21.453  1.00  0.00     0.040 C
HETATM    4  C14 UNL     1      35.147  39.603  22.091  1.00  0.00     0.057 C
HETATM    5  C15 UNL     1      34.169  39.160  23.098  1.00  0.00     0.135 C
HETATM    6  C18 UNL     1      33.755  37.693  22.985  1.00  0.00     0.059 C
HETATM    7  C19 UNL     1      32.801  37.352  24.089  1.00  0.00     0.018 C
ENDROOT
BRANCH   3   8
HETATM    8  C7  UNL     1      35.755  38.540  19.922  1.00  0.00     0.281 C
BRANCH   8   9
HETATM    9  N1  UNL     1      35.889  37.174  19.449  1.00  0.00     0.092 N
HETATM   10  C8  UNL     1      37.150  36.920  18.830  1.00  0.00     0.280 C
HETATM   11  C9  UNL     1      36.884  36.276  17.483  1.00  0.00     0.053 C
HETATM   12  C10 UNL     1      36.900  37.327  16.411  1.00  0.00     0.015 C
HETATM   13  C11 UNL     1      35.484  35.739  17.699  1.00  0.00     0.178 C
HETATM   14  C13 UNL     1      34.860  36.853  18.511  1.00  0.00     0.317 C
BRANCH  13  15
HETATM   15  N2  UNL     1      35.516  34.560  18.545  1.00  0.00    -0.230 N
ATOM     16  H2  UNL     1      36.309  33.922  18.479  1.00  0.00     0.198 HD
BRANCH  15  17
HETATM   17  N3  UNL     1      34.605  34.308  19.346  1.00  0.00    -0.247 NA
BRANCH  17  18
HETATM   18  N4  UNL     1      33.585  33.849  19.838  1.00  0.00    -0.261 N
ATOM     19  H42 UNL     1      33.770  32.884  19.562  1.00  0.00     0.193 HD
ATOM     20  H41 UNL     1      32.693  33.774  20.326  1.00  0.00     0.193 HD
ENDBRANCH  17  18
ENDBRANCH  15  17
ENDBRANCH  13  15
BRANCH  13  21
HETATM   21  C12 UNL     1      34.749  35.480  16.449  1.00  0.00     0.207 C
HETATM   22  O2  UNL     1      33.603  35.888  16.207  1.00  0.00    -0.646 OA
HETATM   23  O3  UNL     1      35.396  34.713  15.463  1.00  0.00    -0.646 OA
ENDBRANCH  13  21
ENDBRANCH   8   9
ENDBRANCH   3   8
BRANCH   1  24
HETATM   24  C3  UNL     1      34.859  35.391  23.175  1.00  0.00     0.049 C
BRANCH  24  25
HETATM   25  C2  UNL     1      35.650  34.685  24.165  1.00  0.00     0.060 C
HETATM   26  C1  UNL     1      34.932  34.721  25.534  1.00  0.00     0.012 C
ENDBRANCH  24  25
BRANCH  24  27
HETATM   27  O1  UNL     1      34.027  34.537  22.562  1.00  0.00    -0.364 OA
ATOM     28  H1  UNL     1      34.175  34.558  21.624  1.00  0.00     0.217 HD
ENDBRANCH  24  27
ENDBRANCH   1  24
BRANCH   5  29
HETATM   29  O4  UNL     1      32.938  39.821  22.779  1.00  0.00    -0.381 OA
ATOM     30  H4  UNL     1      32.298  39.133  22.633  1.00  0.00     0.211 HD
ENDBRANCH   5  29
BRANCH   5  31
HETATM   31  C16 UNL     1      34.461  39.538  24.503  1.00  0.00     0.267 C
HETATM   32  O5  UNL     1      33.614  40.220  25.127  1.00  0.00    -0.285 OA
BRANCH  31  33
HETATM   33  C17 UNL     1      35.657  39.208  25.285  1.00  0.00     0.454 C
HETATM   34  F1  UNL     1      36.821  39.043  24.599  1.00  0.00    -0.163 F
HETATM   35  F2  UNL     1      35.828  40.104  26.361  1.00  0.00    -0.163 F
HETATM   36  F3  UNL     1      35.476  37.986  25.953  1.00  0.00    -0.163 F
ENDBRANCH  31  33
ENDBRANCH   5  31
TORSDOF 12
ENDMDL