MODEL 2
REMARK VINA RESULT: -9.041052259      1.472      1.952
REMARK  8 active torsions:
REMARK  status: ('A' for Active; 'I' for Inactive)
REMARK    1  A    between atoms: C2_2  and  N1_3
REMARK    2  A    between atoms: C2_2  and  C18_29
REMARK    3  A    between atoms: N1_3  and  C3_5
REMARK    4  A    between atoms: N2_7  and  C5_8
REMARK    5  A    between atoms: C7_10  and  O1_11
REMARK    6  A    between atoms: O1_11  and  C8_12
REMARK    7  A    between atoms: C18_29  and  O2_30
REMARK    8  A    between atoms: C18_29  and  C19_32
ROOT
HETATM    1  C5  UNL     1      35.276  39.082  20.662  1.00  0.00     0.228 C
HETATM    2  C6  UNL     1      35.198  40.579  20.677  1.00  0.00     0.068 C
HETATM    3  C7  UNL     1      34.124  40.399  21.769  1.00  0.00     0.135 C
HETATM    4  C16 UNL     1      33.815  39.077  21.038  1.00  0.00     0.068 C
ENDROOT
BRANCH   3   5
HETATM    5  O1  UNL     1      34.767  40.236  22.989  1.00  0.00    -0.327 OA
BRANCH   5   6
HETATM    6  C8  UNL     1      34.614  39.268  23.928  1.00  0.00     0.200 A
HETATM    7  N3  UNL     1      33.415  39.049  24.490  1.00  0.00    -0.335 N
HETATM    8  C9  UNL     1      33.271  38.076  25.430  1.00  0.00     0.034 A
ATOM      9  H3  UNL     1      32.611  39.613  24.212  1.00  0.00     0.168 HD
HETATM   10  C10 UNL     1      34.315  37.288  25.844  1.00  0.00     0.040 A
HETATM   11  C15 UNL     1      31.921  37.838  26.059  1.00  0.00     0.065 C
HETATM   12  N4  UNL     1      35.532  37.519  25.266  1.00  0.00    -0.331 N
HETATM   13  C12 UNL     1      34.219  36.212  26.864  1.00  0.00     0.138 C
HETATM   14  C11 UNL     1      35.671  38.486  24.333  1.00  0.00     0.240 A
ATOM     15  H4  UNL     1      36.339  36.959  25.540  1.00  0.00     0.168 HD
HETATM   16  F1  UNL     1      36.923  38.639  23.815  1.00  0.00    -0.181 F
HETATM   17  C13 UNL     1      32.987  36.319  27.693  1.00  0.00     0.249 C
HETATM   18  F2  UNL     1      33.386  36.248  29.033  1.00  0.00    -0.206 F
HETATM   19  F3  UNL     1      32.103  35.271  27.516  1.00  0.00    -0.206 F
HETATM   20  C14 UNL     1      32.227  37.611  27.536  1.00  0.00     0.085 C
ENDBRANCH   5   6
ENDBRANCH   3   5
BRANCH   1  21
HETATM   21  N2  UNL     1      35.702  38.446  19.493  1.00  0.00     0.097 N
HETATM   22  C4  UNL     1      34.752  37.493  18.859  1.00  0.00     0.299 C
HETATM   23  C3  UNL     1      35.980  36.936  18.204  1.00  0.00     0.133 C
HETATM   24  C17 UNL     1      36.574  37.306  19.588  1.00  0.00     0.299 C
BRANCH  23  25
HETATM   25  N1  UNL     1      36.098  35.595  17.843  1.00  0.00    -0.407 N
ATOM     26  H1  UNL     1      36.341  34.867  18.516  1.00  0.00     0.154 HD
BRANCH  25  27
HETATM   27  C2  UNL     1      35.858  35.315  16.473  1.00  0.00     0.102 C
HETATM   28  C1  UNL     1      36.237  36.425  15.531  1.00  0.00     0.034 C
BRANCH  27  29
HETATM   29  C18 UNL     1      34.419  34.829  16.243  1.00  0.00     0.144 C
BRANCH  29  30
HETATM   30  O2  UNL     1      34.448  33.438  16.400  1.00  0.00    -0.393 OA
ATOM     31  H2  UNL     1      34.253  33.072  15.544  1.00  0.00     0.210 HD
ENDBRANCH  29  30
BRANCH  29  32
HETATM   32  C19 UNL     1      34.105  35.050  14.768  1.00  0.00     0.016 C
HETATM   33  C20 UNL     1      33.505  33.838  14.089  1.00  0.00     0.007 C
HETATM   34  C21 UNL     1      32.421  34.709  13.482  1.00  0.00     0.001 C
HETATM   35  C22 UNL     1      32.740  35.718  14.563  1.00  0.00     0.007 C
ENDBRANCH  29  32
ENDBRANCH  27  29
ENDBRANCH  25  27
ENDBRANCH  23  25
ENDBRANCH   1  21
TORSDOF 8
ENDMDL