MODEL 3
REMARK VINA RESULT: -7.695203432      1.056      1.285
REMARK  8 active torsions:
REMARK  status: ('A' for Active; 'I' for Inactive)
REMARK    1  A    between atoms: N1_2  and  C3_4
REMARK    2  A    between atoms: C3_4  and  C4_5
REMARK    3  A    between atoms: C4_5  and  N2_6
REMARK    4  A    between atoms: C8_10  and  N3_11
REMARK    5  A    between atoms: N3_11  and  C9_13
REMARK    6  A    between atoms: N5_17  and  C11_18
REMARK    7  A    between atoms: C13_24  and  N6_25
REMARK    8  A    between atoms: N6_25  and  C14_27
ROOT
HETATM    1  C9  UNL     1      35.220  35.251  20.572  1.00  0.00     0.078 A
HETATM    2  C10 UNL     1      34.563  34.245  19.852  1.00  0.00     0.139 A
HETATM    3  N4  UNL     1      34.388  34.372  18.535  1.00  0.00    -0.297 N
ATOM      4  H4  UNL     1      33.908  33.627  18.032  1.00  0.00     0.186 HD
HETATM    5  N5  UNL     1      34.810  35.422  17.856  1.00  0.00    -0.157 N
HETATM    6  C12 UNL     1      35.446  36.409  18.516  1.00  0.00     0.298 A
HETATM    7  O1  UNL     1      35.822  37.388  17.797  1.00  0.00    -0.264 OA
HETATM    8  C13 UNL     1      35.671  36.358  19.888  1.00  0.00     0.127 A
ENDROOT
BRANCH   1   9
HETATM    9  N3  UNL     1      35.428  35.055  21.980  1.00  0.00    -0.373 N
ATOM     10  H3  UNL     1      36.329  34.716  22.318  1.00  0.00     0.160 HD
BRANCH   9  11
HETATM   11  C8  UNL     1      34.363  35.337  22.918  1.00  0.00     0.174 C
HETATM   12  C7  UNL     1      33.269  34.300  22.712  1.00  0.00     0.036 C
HETATM   13  C6  UNL     1      32.261  34.264  23.793  1.00  0.00     0.022 C
HETATM   14  C5  UNL     1      32.519  35.093  25.003  1.00  0.00     0.126 C
HETATM   15  N2  UNL     1      33.914  35.060  25.346  1.00  0.00    -0.349 N
HETATM   16  C21 UNL     1      34.875  35.132  24.303  1.00  0.00     0.242 C
HETATM   17  O2  UNL     1      36.080  35.021  24.585  1.00  0.00    -0.271 OA
BRANCH  15  18
HETATM   18  C4  UNL     1      34.338  34.938  26.706  1.00  0.00     0.156 C
BRANCH  18  19
HETATM   19  C3  UNL     1      33.915  36.119  27.502  1.00  0.00     0.291 C
BRANCH  19  20
HETATM   20  N1  UNL     1      34.906  37.162  27.432  1.00  0.00     0.081 N
HETATM   21  C1  UNL     1      34.330  38.289  26.712  1.00  0.00     0.309 C
HETATM   22  C2  UNL     1      35.197  37.567  28.815  1.00  0.00     0.309 C
ENDBRANCH  19  20
ENDBRANCH  18  19
ENDBRANCH  15  18
ENDBRANCH   9  11
ENDBRANCH   1   9
BRANCH   8  23
HETATM   23  N6  UNL     1      36.290  37.400  20.575  1.00  0.00    -0.379 N
ATOM     24  H6  UNL     1      37.309  37.375  20.537  1.00  0.00     0.160 HD
BRANCH  23  25
HETATM   25  C14 UNL     1      35.763  38.493  21.321  1.00  0.00     0.082 C
HETATM   26  C15 UNL     1      35.893  38.404  22.804  1.00  0.00     0.025 C
HETATM   27  C16 UNL     1      35.860  39.794  23.392  1.00  0.00     0.002 C
HETATM   28  C17 UNL     1      34.571  40.452  22.964  1.00  0.00     0.000 C
HETATM   29  C18 UNL     1      33.440  39.479  23.119  1.00  0.00     0.000 C
HETATM   30  C19 UNL     1      33.324  38.511  21.988  1.00  0.00     0.002 C
HETATM   31  C20 UNL     1      34.322  38.724  20.900  1.00  0.00     0.025 C
ENDBRANCH  23  25
ENDBRANCH   8  23
BRANCH   5  32
HETATM   32  C11 UNL     1      34.602  35.522  16.417  1.00  0.00     0.508 C
HETATM   33  F1  UNL     1      35.704  35.975  15.763  1.00  0.00    -0.149 F
HETATM   34  F2  UNL     1      33.498  36.247  16.085  1.00  0.00    -0.149 F
HETATM   35  F3  UNL     1      34.381  34.204  15.989  1.00  0.00    -0.149 F
ENDBRANCH   5  32
TORSDOF 8
ENDMDL