MODEL 1
REMARK VINA RESULT: -9.486324875      0.000      0.000
REMARK  9 active torsions:
REMARK  status: ('A' for Active; 'I' for Inactive)
REMARK    1  A    between atoms: C5_8  and  N2_9
REMARK    2  A    between atoms: N2_9  and  C6_11
REMARK    3  A    between atoms: C6_11  and  C7_12
REMARK    4  A    between atoms: C7_12  and  C8_13
REMARK    5  A    between atoms: N3_16  and  C11_17
REMARK    6  A    between atoms: C11_17  and  C12_18
REMARK    7  A    between atoms: C12_18  and  C13_19
REMARK    8  A    between atoms: C13_19  and  C14_20
REMARK    9  A    between atoms: C19_25  and  C20_26
ROOT
HETATM    1  C8  UNL     1      34.878  37.855  23.792  1.00  0.00     0.127 C
HETATM    2  C9  UNL     1      35.592  39.199  23.800  1.00  0.00     0.062 C
HETATM    3  C10 UNL     1      35.481  39.882  22.482  1.00  0.00     0.277 C
HETATM    4  N3  UNL     1      34.077  40.090  22.047  1.00  0.00     0.111 N
HETATM    5  C21 UNL     1      33.297  39.261  22.967  1.00  0.00     0.440 C
HETATM    6  O2  UNL     1      33.733  37.972  22.947  1.00  0.00    -0.357 OA
ENDROOT
BRANCH   1   7
HETATM    7  C7  UNL     1      35.801  36.888  23.085  1.00  0.00     0.052 C
BRANCH   7   8
HETATM    8  C6  UNL     1      35.246  35.469  23.139  1.00  0.00     0.140 C
BRANCH   8   9
HETATM    9  N2  UNL     1      34.207  35.482  24.157  1.00  0.00    -0.225 N
ATOM     10  H2  UNL     1      34.214  36.199  24.883  1.00  0.00     0.177 HD
BRANCH   9  11
HETATM   11  C5  UNL     1      33.288  34.601  24.143  1.00  0.00     0.696 A
HETATM   12  N1  UNL     1      32.815  33.986  25.267  1.00  0.00    -0.172 N
HETATM   13  C4  UNL     1      31.845  33.133  24.900  1.00  0.00     0.161 A
ATOM     14  H1  UNL     1      33.142  34.147  26.219  1.00  0.00     0.186 HD
HETATM   15  C3  UNL     1      31.043  32.272  25.620  1.00  0.00     0.058 A
HETATM   16  N5  UNL     1      31.691  33.193  23.565  1.00  0.00    -0.162 N
HETATM   17  C2  UNL     1      30.098  31.485  24.987  1.00  0.00     0.080 A
HETATM   18  C1  UNL     1      30.008  31.609  23.620  1.00  0.00     0.261 A
HETATM   19  O1  UNL     1      29.146  30.898  23.005  1.00  0.00    -0.267 OA
HETATM   20  N6  UNL     1      30.790  32.446  22.930  1.00  0.00    -0.243 N
ATOM     21  H6  UNL     1      30.697  32.513  21.917  1.00  0.00     0.192 HD
HETATM   22  N4  UNL     1      32.562  34.073  23.136  1.00  0.00    -0.109 N
ATOM     23  H4  UNL     1      32.678  34.328  22.156  1.00  0.00     0.208 HD
ENDBRANCH   9  11
ENDBRANCH   8   9
ENDBRANCH   7   8
ENDBRANCH   1   7
BRANCH   4  24
HETATM   24  C11 UNL     1      34.016  39.636  20.719  1.00  0.00     0.275 C
BRANCH  24  25
HETATM   25  C12 UNL     1      35.182  39.165  19.972  1.00  0.00     0.031 C
BRANCH  25  26
HETATM   26  C13 UNL     1      35.182  37.772  19.464  1.00  0.00     0.007 C
BRANCH  26  27
HETATM   27  C14 UNL     1      36.292  37.202  18.673  1.00  0.00    -0.002 C
HETATM   28  C15 UNL     1      36.665  35.884  19.414  1.00  0.00     0.005 C
HETATM   29  C16 UNL     1      35.489  34.951  19.417  1.00  0.00     0.000 C
HETATM   30  C17 UNL     1      34.818  34.829  18.093  1.00  0.00     0.001 C
HETATM   31  C18 UNL     1      35.675  35.366  17.022  1.00  0.00     0.014 C
HETATM   32  C19 UNL     1      36.002  36.842  17.242  1.00  0.00     0.097 C
BRANCH  32  33
HETATM   33  C20 UNL     1      37.215  37.038  16.317  1.00  0.00     0.391 C
HETATM   34  F1  UNL     1      37.545  35.718  15.933  1.00  0.00    -0.171 F
HETATM   35  F2  UNL     1      36.998  37.717  15.185  1.00  0.00    -0.171 F
HETATM   36  F3  UNL     1      38.261  37.544  17.075  1.00  0.00    -0.171 F
ENDBRANCH  32  33
ENDBRANCH  26  27
ENDBRANCH  25  26
ENDBRANCH  24  25
ENDBRANCH   4  24
TORSDOF 9
ENDMDL