MODEL 2
REMARK VINA RESULT: -7.191148612      1.731      2.159
REMARK  9 active torsions:
REMARK  status: ('A' for Active; 'I' for Inactive)
REMARK    1  A    between atoms: C2_2  and  C3_3
REMARK    2  A    between atoms: N1_7  and  C7_8
REMARK    3  A    between atoms: C8_9  and  N2_10
REMARK    4  A    between atoms: N2_10  and  S1_12
REMARK    5  A    between atoms: S1_12  and  C9_15
REMARK    6  A    between atoms: C14_22  and  C15_23
REMARK    7  A    between atoms: C14_22  and  C18_28
REMARK    8  A    between atoms: C15_23  and  C16_24
REMARK    9  A    between atoms: C16_24  and  O5_26
ROOT
HETATM    1  C3  UNL     1      32.301  36.379  26.503  1.00  0.00    -0.012 C
HETATM    2  C4  UNL     1      31.480  37.062  25.450  1.00  0.00     0.006 C
HETATM    3  C5  UNL     1      31.577  36.235  24.200  1.00  0.00     0.020 C
HETATM    4  C6  UNL     1      32.819  36.585  23.457  1.00  0.00     0.124 C
HETATM    5  N1  UNL     1      33.855  37.278  24.189  1.00  0.00    -0.358 N
HETATM    6  C14 UNL     1      34.530  37.023  25.463  1.00  0.00     0.133 C
HETATM    7  C19 UNL     1      33.653  36.953  26.661  1.00  0.00     0.045 C
ENDROOT
BRANCH   5   8
HETATM    8  C7  UNL     1      34.300  38.434  23.418  1.00  0.00     0.118 A
HETATM    9  C8  UNL     1      35.173  38.714  22.432  1.00  0.00     0.127 A
HETATM   10  C12 UNL     1      34.763  40.063  22.489  1.00  0.00     0.253 A
HETATM   11  O3  UNL     1      35.055  41.141  21.885  1.00  0.00    -0.281 OA
HETATM   12  C13 UNL     1      33.890  39.758  23.487  1.00  0.00     0.253 A
HETATM   13  O4  UNL     1      33.058  40.463  24.166  1.00  0.00    -0.281 OA
BRANCH   9  14
HETATM   14  N2  UNL     1      36.138  38.180  21.514  1.00  0.00    -0.278 N
ATOM     15  H2  UNL     1      37.129  38.275  21.738  1.00  0.00     0.179 HD
BRANCH  14  16
HETATM   16  S1  UNL     1      35.706  37.404  20.080  1.00  0.00     0.234 S
HETATM   17  O1  UNL     1      34.530  38.174  19.488  1.00  0.00    -0.205 OA
HETATM   18  O2  UNL     1      35.152  36.027  20.378  1.00  0.00    -0.205 OA
BRANCH  16  19
HETATM   19  C9  UNL     1      36.930  37.292  18.826  1.00  0.00     0.121 C
HETATM   20  C10 UNL     1      38.253  36.822  19.365  1.00  0.00     0.027 C
HETATM   21  C11 UNL     1      36.517  36.153  17.835  1.00  0.00     0.027 C
ENDBRANCH  16  19
ENDBRANCH  14  16
ENDBRANCH   9  14
ENDBRANCH   5   8
BRANCH   6  22
HETATM   22  C15 UNL     1      35.603  38.075  25.597  1.00  0.00     0.071 C
BRANCH  22  23
HETATM   23  C16 UNL     1      35.476  38.999  26.775  1.00  0.00     0.116 C
HETATM   24  C17 UNL     1      36.501  40.154  26.610  1.00  0.00     0.039 C
BRANCH  23  25
HETATM   25  O5  UNL     1      34.250  39.632  26.886  1.00  0.00    -0.396 OA
ATOM     26  H5  UNL     1      33.921  39.710  27.775  1.00  0.00     0.210 HD
ENDBRANCH  23  25
ENDBRANCH  22  23
ENDBRANCH   6  22
BRANCH   6  27
HETATM   27  C18 UNL     1      35.218  35.656  25.327  1.00  0.00     0.412 C
HETATM   28  F1  UNL     1      34.298  34.638  25.106  1.00  0.00    -0.168 F
HETATM   29  F2  UNL     1      35.752  35.291  26.589  1.00  0.00    -0.168 F
HETATM   30  F3  UNL     1      36.267  35.642  24.468  1.00  0.00    -0.168 F
ENDBRANCH   6  27
BRANCH   1  31
HETATM   31  C2  UNL     1      31.564  36.596  27.833  1.00  0.00     0.000 C
HETATM   32  C1  UNL     1      32.515  36.707  28.977  1.00  0.00     0.005 C
ENDBRANCH   1  31
TORSDOF 9
ENDMDL