MODEL 3
REMARK VINA RESULT: -9.330695383      2.155      3.023
REMARK  9 active torsions:
REMARK  status: ('A' for Active; 'I' for Inactive)
REMARK    1  A    between atoms: C2_2  and  C3_3
REMARK    2  A    between atoms: C3_3  and  C4_4
REMARK    3  A    between atoms: C4_4  and  N1_5
REMARK    4  A    between atoms: N1_5  and  C5_7
REMARK    5  A    between atoms: C6_10  and  C7_11
REMARK    6  A    between atoms: N4_19  and  C11_21
REMARK    7  A    between atoms: C11_21  and  C12_22
REMARK    8  A    between atoms: C12_22  and  N5_23
REMARK    9  A    between atoms: N6_26  and  C15_27
ROOT
HETATM    1  C5  UNL     1      34.511  35.521  16.603  1.00  0.00     0.680 A
HETATM    2  N2  UNL     1      35.647  35.855  15.955  1.00  0.00    -0.185 N
ATOM      3  H2  UNL     1      35.677  35.782  14.938  1.00  0.00     0.184 HD
HETATM    4  C6  UNL     1      36.735  36.280  16.607  1.00  0.00     0.157 A
HETATM    5  C8  UNL     1      36.658  36.368  17.996  1.00  0.00     0.120 A
HETATM    6  C9  UNL     1      37.842  36.819  18.638  1.00  0.00     0.105 C
HETATM    7  N3  UNL     1      38.830  37.191  19.135  1.00  0.00    -0.191 NA
HETATM    8  C10 UNL     1      35.528  36.041  18.692  1.00  0.00     0.140 A
HETATM    9  N4  UNL     1      35.414  36.107  19.924  1.00  0.00    -0.373 N
ATOM     10  H4  UNL     1      34.486  35.815  20.232  1.00  0.00     0.161 HD
HETATM   11  N7  UNL     1      34.448  35.609  17.930  1.00  0.00    -0.175 N
ATOM     12  H7  UNL     1      33.581  35.353  18.402  1.00  0.00     0.186 HD
ENDROOT
BRANCH   4  13
HETATM   13  C7  UNL     1      37.966  36.639  15.874  1.00  0.00     0.434 C
HETATM   14  F1  UNL     1      39.009  35.773  16.132  1.00  0.00    -0.165 F
HETATM   15  F2  UNL     1      38.283  37.943  16.096  1.00  0.00    -0.165 F
HETATM   16  F3  UNL     1      37.658  36.510  14.513  1.00  0.00    -0.165 F
ENDBRANCH   4  13
BRANCH   9  17
HETATM   17  C11 UNL     1      36.213  36.473  20.989  1.00  0.00     0.141 C
BRANCH  17  18
HETATM   18  C12 UNL     1      35.679  37.758  21.695  1.00  0.00     0.146 C
BRANCH  18  19
HETATM   19  N5  UNL     1      34.984  37.448  22.898  1.00  0.00    -0.369 N
HETATM   20  C13 UNL     1      35.508  36.327  23.559  1.00  0.00     0.083 C
HETATM   21  C14 UNL     1      34.572  35.141  23.672  1.00  0.00     0.168 C
HETATM   22  N6  UNL     1      33.316  35.630  24.159  1.00  0.00    -0.366 N
HETATM   23  C19 UNL     1      32.798  36.937  23.916  1.00  0.00     0.168 C
HETATM   24  C20 UNL     1      33.624  37.759  22.981  1.00  0.00     0.083 C
BRANCH  22  25
HETATM   25  C15 UNL     1      32.515  34.725  24.951  1.00  0.00     0.072 A
HETATM   26  C16 UNL     1      31.732  33.695  24.504  1.00  0.00     0.037 A
HETATM   27  C17 UNL     1      31.074  32.978  25.421  1.00  0.00     0.010 A
HETATM   28  C18 UNL     1      31.234  33.329  26.735  1.00  0.00     0.052 A
HETATM   29  S1  UNL     1      32.305  34.656  26.644  1.00  0.00    -0.084 SA
ENDBRANCH  22  25
ENDBRANCH  18  19
ENDBRANCH  17  18
ENDBRANCH   9  17
BRANCH   1  30
HETATM   30  N1  UNL     1      33.455  35.107  15.991  1.00  0.00    -0.226 N
ATOM     31  H1  UNL     1      32.766  34.619  16.563  1.00  0.00     0.177 HD
BRANCH  30  32
HETATM   32  C4  UNL     1      33.141  35.251  14.617  1.00  0.00     0.138 C
BRANCH  32  33
HETATM   33  C3  UNL     1      33.283  33.968  13.823  1.00  0.00     0.020 C
BRANCH  33  34
HETATM   34  C2  UNL     1      32.202  34.020  12.742  1.00  0.00    -0.003 C
HETATM   35  C1  UNL     1      32.751  33.275  11.531  1.00  0.00     0.005 C
ENDBRANCH  33  34
ENDBRANCH  32  33
ENDBRANCH  30  32
ENDBRANCH   1  30
TORSDOF 9
ENDMDL