MODEL 1
REMARK VINA RESULT: -8.474914878      0.000      0.000
REMARK  9 active torsions:
REMARK  status: ('A' for Active; 'I' for Inactive)
REMARK    1  A    between atoms: C2_2  and  N1_3
REMARK    2  A    between atoms: C3_4  and  C4_5
REMARK    3  A    between atoms: N3_15  and  C11_16
REMARK    4  A    between atoms: C11_16  and  C12_17
REMARK    5  A    between atoms: C12_17  and  O1_18
REMARK    6  A    between atoms: C12_17  and  N4_20
REMARK    7  A    between atoms: C15_25  and  C16_26
REMARK    8  A    between atoms: C16_26  and  C17_27
REMARK    9  A    between atoms: C22_32  and  C23_33
ROOT
HETATM    1  N1  UNL     1      34.109  38.523  23.008  1.00  0.00    -0.308 N
HETATM    2  C3  UNL     1      34.065  37.193  23.065  1.00  0.00     0.119 A
HETATM    3  N5  UNL     1      34.829  36.739  22.062  1.00  0.00    -0.345 N
ATOM      4  H5  UNL     1      34.978  35.750  21.863  1.00  0.00     0.167 HD
HETATM    5  C15 UNL     1      35.379  37.741  21.344  1.00  0.00     0.043 A
HETATM    6  C22 UNL     1      34.911  38.881  21.949  1.00  0.00     0.146 A
ENDROOT
BRANCH   2   7
HETATM    7  C4  UNL     1      33.376  36.202  23.993  1.00  0.00     0.118 C
HETATM    8  C5  UNL     1      31.961  36.589  23.982  1.00  0.00     0.271 C
HETATM    9  N2  UNL     1      31.188  36.352  25.169  1.00  0.00    -0.072 N
HETATM   10  C6  UNL     1      31.831  36.817  26.367  1.00  0.00     0.233 C
ATOM     11  H22 UNL     1      30.254  36.752  25.079  1.00  0.00     0.277 HD
ATOM     12  H21 UNL     1      30.940  35.365  25.249  1.00  0.00     0.277 HD
HETATM   13  C7  UNL     1      33.137  36.107  26.526  1.00  0.00     0.035 C
HETATM   14  C8  UNL     1      34.036  36.145  25.349  1.00  0.00     0.026 C
HETATM   15  C9  UNL     1      34.777  34.770  25.407  1.00  0.00     0.027 C
HETATM   16  C10 UNL     1      35.059  34.635  23.930  1.00  0.00     0.124 C
HETATM   17  N3  UNL     1      33.663  34.909  23.498  1.00  0.00    -0.371 N
BRANCH  17  18
HETATM   18  C11 UNL     1      32.965  33.760  23.526  1.00  0.00     0.122 C
BRANCH  18  19
HETATM   19  C12 UNL     1      31.813  33.489  22.586  1.00  0.00     0.395 C
BRANCH  19  20
HETATM   20  O1  UNL     1      32.245  32.920  21.383  1.00  0.00    -0.364 OA
ATOM     21  H1  UNL     1      32.854  32.205  21.529  1.00  0.00     0.212 HD
ENDBRANCH  19  20
BRANCH  19  22
HETATM   22  N4  UNL     1      30.937  32.420  23.160  1.00  0.00     0.113 N
HETATM   23  C13 UNL     1      31.381  31.125  22.701  1.00  0.00     0.313 C
HETATM   24  C14 UNL     1      31.132  32.518  24.590  1.00  0.00     0.313 C
ENDBRANCH  19  22
ENDBRANCH  18  19
ENDBRANCH  17  18
ENDBRANCH   2   7
BRANCH   1  25
HETATM   25  C2  UNL     1      33.426  39.415  23.851  1.00  0.00     0.067 C
HETATM   26  C1  UNL     1      33.981  39.655  25.255  1.00  0.00     0.055 C
ENDBRANCH   1  25
BRANCH   6  27
HETATM   27  C23 UNL     1      35.106  40.203  21.386  1.00  0.00     0.435 C
HETATM   28  F1  UNL     1      33.842  40.708  20.898  1.00  0.00    -0.165 F
HETATM   29  F2  UNL     1      35.701  41.086  22.231  1.00  0.00    -0.165 F
HETATM   30  F3  UNL     1      35.851  40.310  20.239  1.00  0.00    -0.165 F
ENDBRANCH   6  27
BRANCH   5  31
HETATM   31  C16 UNL     1      36.354  37.407  20.322  1.00  0.00     0.064 C
BRANCH  31  32
HETATM   32  C17 UNL     1      35.910  37.606  18.899  1.00  0.00    -0.009 C
HETATM   33  C18 UNL     1      36.676  36.586  18.044  1.00  0.00     0.005 C
HETATM   34  C19 UNL     1      35.609  35.525  17.879  1.00  0.00     0.000 C
HETATM   35  C20 UNL     1      34.369  36.319  17.574  1.00  0.00     0.000 C
HETATM   36  C21 UNL     1      34.518  37.533  18.499  1.00  0.00     0.005 C
ENDBRANCH  31  32
ENDBRANCH   5  31
TORSDOF 9
ENDMDL