MODEL 2
REMARK VINA RESULT: -7.476653623      2.407      7.014
REMARK  8 active torsions:
REMARK  status: ('A' for Active; 'I' for Inactive)
REMARK    1  A    between atoms: C2_2  and  C3_3
REMARK    2  A    between atoms: C3_3  and  N1_5
REMARK    3  A    between atoms: C6_10  and  N3_11
REMARK    4  A    between atoms: C10_15  and  C11_16
REMARK    5  A    between atoms: C12_21  and  O1_22
REMARK    6  A    between atoms: O1_22  and  C13_23
REMARK    7  A    between atoms: C15_25  and  O2_27
REMARK    8  A    between atoms: C17_29  and  N5_31
ROOT
HETATM    1  N1  UNL     1      31.567  34.495  26.494  1.00  0.00    -0.366 N
ATOM      2  H1  UNL     1      31.883  34.108  27.384  1.00  0.00     0.161 HD
HETATM    3  C5  UNL     1      32.063  35.617  26.350  1.00  0.00     0.161 A
HETATM    4  N2  UNL     1      32.896  36.150  27.314  1.00  0.00    -0.173 N
ATOM      5  H2  UNL     1      33.094  35.597  28.148  1.00  0.00     0.186 HD
HETATM    6  C6  UNL     1      33.447  37.343  27.203  1.00  0.00     0.684 A
HETATM    7  N4  UNL     1      33.218  38.106  26.131  1.00  0.00    -0.167 N
ATOM      8  H4  UNL     1      33.658  39.024  26.074  1.00  0.00     0.186 HD
HETATM    9  C12 UNL     1      32.404  37.690  25.098  1.00  0.00     0.201 A
HETATM   10  C22 UNL     1      31.846  36.429  25.257  1.00  0.00     0.211 A
HETATM   11  F3  UNL     1      31.044  36.032  24.226  1.00  0.00    -0.197 F
ENDROOT
BRANCH   9  12
HETATM   12  O1  UNL     1      32.242  38.545  24.060  1.00  0.00    -0.327 OA
BRANCH  12  13
HETATM   13  C13 UNL     1      32.911  38.897  22.939  1.00  0.00     0.136 C
HETATM   14  C14 UNL     1      33.918  40.011  23.225  1.00  0.00     0.072 C
HETATM   15  C15 UNL     1      35.144  39.688  22.424  1.00  0.00     0.092 C
HETATM   16  C16 UNL     1      35.522  40.869  21.596  1.00  0.00     0.048 C
HETATM   17  C17 UNL     1      34.791  38.463  21.609  1.00  0.00     0.187 C
HETATM   18  C18 UNL     1      33.960  38.772  20.409  1.00  0.00     0.053 C
HETATM   19  C21 UNL     1      33.878  37.737  22.606  1.00  0.00     0.077 C
BRANCH  15  20
HETATM   20  O2  UNL     1      36.146  39.301  23.316  1.00  0.00    -0.387 OA
ATOM     21  H2  UNL     1      36.960  39.697  23.026  1.00  0.00     0.210 HD
ENDBRANCH  15  20
BRANCH  17  22
HETATM   22  N5  UNL     1      35.910  37.609  21.361  1.00  0.00     0.092 N
HETATM   23  C19 UNL     1      36.306  37.561  19.977  1.00  0.00     0.310 C
HETATM   24  C20 UNL     1      35.555  36.268  21.769  1.00  0.00     0.310 C
ENDBRANCH  17  22
ENDBRANCH  12  13
ENDBRANCH   9  12
BRANCH   6  25
HETATM   25  N3  UNL     1      34.313  37.861  28.234  1.00  0.00    -0.207 N
HETATM   26  C7  UNL     1      35.019  37.041  29.197  1.00  0.00     0.142 C
HETATM   27  C8  UNL     1      35.295  37.924  30.390  1.00  0.00     0.023 C
HETATM   28  C9  UNL     1      34.735  39.269  30.004  1.00  0.00     0.033 C
HETATM   29  C10 UNL     1      34.631  39.236  28.498  1.00  0.00     0.167 C
BRANCH  29  30
HETATM   30  C11 UNL     1      35.947  39.663  27.885  1.00  0.00     0.376 C
HETATM   31  F1  UNL     1      36.303  40.935  28.283  1.00  0.00    -0.212 F
HETATM   32  F2  UNL     1      35.913  39.610  26.503  1.00  0.00    -0.212 F
ENDBRANCH  29  30
ENDBRANCH   6  25
BRANCH   1  33
HETATM   33  C3  UNL     1      30.739  33.578  25.881  1.00  0.00     0.101 C
HETATM   34  C4  UNL     1      30.062  32.650  26.883  1.00  0.00     0.036 C
BRANCH  33  35
HETATM   35  C2  UNL     1      31.281  32.827  24.717  1.00  0.00    -0.013 C
HETATM   36  C1  UNL     1      30.637  31.779  24.239  1.00  0.00     0.009 C
ENDBRANCH  33  35
ENDBRANCH   1  33
TORSDOF 8
ENDMDL