MODEL 3
REMARK VINA RESULT: -7.661935388      1.366      1.849
REMARK  13 active torsions:
REMARK  status: ('A' for Active; 'I' for Inactive)
REMARK    1  A    between atoms: C2_2  and  O1_3
REMARK    2  A    between atoms: O1_3  and  C3_4
REMARK    3  A    between atoms: C3_4  and  C4_6
REMARK    4  A    between atoms: N1_10  and  C8_11
REMARK    5  A    between atoms: C8_11  and  O3_12
REMARK    6  A    between atoms: C8_11  and  C9_14
REMARK    7  A    between atoms: C9_14  and  C10_15
REMARK    8  A    between atoms: C10_15  and  C11_16
REMARK    9  A    between atoms: C11_16  and  O4_17
REMARK   10  A    between atoms: N2_19  and  O5_21
REMARK   11  A    between atoms: N3_26  and  C15_27
REMARK   12  A    between atoms: C15_27  and  C16_28
REMARK   13  A    between atoms: C16_28  and  C18_30
ROOT
HETATM    1  C9  UNL     1      35.197  37.480  22.272  1.00  0.00     0.033 C
HETATM    2  C12 UNL     1      34.037  37.817  21.336  1.00  0.00     0.020 C
HETATM    3  C13 UNL     1      34.327  38.839  20.307  1.00  0.00     0.021 C
HETATM    4  C14 UNL     1      34.712  38.207  18.996  1.00  0.00     0.117 C
HETATM    5  N3  UNL     1      35.993  37.571  18.996  1.00  0.00    -0.412 N
HETATM    6  C19 UNL     1      36.710  37.674  20.226  1.00  0.00     0.118 C
HETATM    7  C20 UNL     1      36.238  36.866  21.363  1.00  0.00     0.038 C
ENDROOT
BRANCH   1   8
HETATM    8  C8  UNL     1      34.688  36.402  23.144  1.00  0.00     0.123 C
BRANCH   8   9
HETATM    9  N1  UNL     1      33.563  36.388  23.997  1.00  0.00    -0.351 N
HETATM   10  C4  UNL     1      33.582  35.890  25.365  1.00  0.00     0.185 C
HETATM   11  C5  UNL     1      32.182  35.957  25.878  1.00  0.00     0.037 C
HETATM   12  C6  UNL     1      31.378  36.762  24.931  1.00  0.00     0.022 C
HETATM   13  C7  UNL     1      32.240  36.811  23.703  1.00  0.00     0.126 C
BRANCH  10  14
HETATM   14  C3  UNL     1      34.489  36.696  26.224  1.00  0.00     0.281 C
HETATM   15  O2  UNL     1      35.369  36.114  26.878  1.00  0.00    -0.263 OA
BRANCH  14  16
HETATM   16  O1  UNL     1      34.384  38.064  26.318  1.00  0.00    -0.320 OA
BRANCH  16  17
HETATM   17  C2  UNL     1      34.892  38.792  27.447  1.00  0.00     0.174 C
HETATM   18  C1  UNL     1      35.914  39.769  26.906  1.00  0.00     0.034 C
ENDBRANCH  16  17
ENDBRANCH  14  16
ENDBRANCH  10  14
ENDBRANCH   8   9
BRANCH   8  19
HETATM   19  O3  UNL     1      35.335  35.267  23.174  1.00  0.00    -0.349 OA
ATOM     20  H3  UNL     1      35.931  35.219  23.913  1.00  0.00     0.219 HD
ENDBRANCH   8  19
ENDBRANCH   1   8
BRANCH   1  21
HETATM   21  C10 UNL     1      35.750  38.657  22.955  1.00  0.00     0.104 C
BRANCH  21  22
HETATM   22  C11 UNL     1      34.832  39.728  23.306  1.00  0.00     0.136 C
HETATM   23  N2  UNL     1      33.781  39.636  24.027  1.00  0.00    -0.251 N
ATOM     24  H2  UNL     1      33.548  38.717  24.405  1.00  0.00     0.196 HD
BRANCH  22  25
HETATM   25  O4  UNL     1      35.106  41.011  22.814  1.00  0.00    -0.348 OA
ATOM     26  H4  UNL     1      34.947  41.750  23.390  1.00  0.00     0.219 HD
ENDBRANCH  22  25
BRANCH  23  27
HETATM   27  O5  UNL     1      32.949  40.668  24.330  1.00  0.00    -0.288 OA
ATOM     28  H5  UNL     1      32.804  41.014  25.202  1.00  0.00     0.244 HD
ENDBRANCH  23  27
ENDBRANCH  21  22
ENDBRANCH   1  21
BRANCH   5  29
HETATM   29  C15 UNL     1      36.032  36.315  18.335  1.00  0.00     0.130 C
BRANCH  29  30
HETATM   30  C16 UNL     1      35.800  36.328  16.862  1.00  0.00     0.107 C
HETATM   31  C17 UNL     1      35.123  35.112  16.329  1.00  0.00     0.021 C
BRANCH  30  32
HETATM   32  C18 UNL     1      37.135  36.479  16.146  1.00  0.00     0.392 C
HETATM   33  F1  UNL     1      37.117  37.528  15.260  1.00  0.00    -0.171 F
HETATM   34  F2  UNL     1      38.175  36.595  17.026  1.00  0.00    -0.171 F
HETATM   35  F3  UNL     1      37.394  35.340  15.370  1.00  0.00    -0.171 F
ENDBRANCH  30  32
ENDBRANCH  29  30
ENDBRANCH   5  29
TORSDOF 13
ENDMDL