MODEL 4
REMARK VINA RESULT: -7.474512559      1.633      1.930
REMARK  8 active torsions:
REMARK  status: ('A' for Active; 'I' for Inactive)
REMARK    1  A    between atoms: C2_2  and  S1_4
REMARK    2  A    between atoms: S1_4  and  C4_7
REMARK    3  A    between atoms: C5_9  and  N1_10
REMARK       I    between atoms: N1_10  and  C6_12
REMARK    4  A    between atoms: C6_12  and  C7_14
REMARK    5  A    between atoms: C7_14  and  N2_15
REMARK    6  A    between atoms: N2_15  and  C9_17
REMARK    7  A    between atoms: C9_17  and  C10_18
REMARK    8  A    between atoms: C16_27  and  C17_28
ROOT
HETATM    1  N1  UNL     1      35.828  36.951  22.678  1.00  0.00    -0.317 N
ATOM      2  H1  UNL     1      36.493  37.707  22.837  1.00  0.00     0.169 HD
HETATM    3  C6  UNL     1      35.762  36.323  21.421  1.00  0.00     0.261 C
HETATM    4  O3  UNL     1      34.931  35.396  21.225  1.00  0.00    -0.267 OA
ENDROOT
BRANCH   1   5
HETATM    5  C5  UNL     1      34.945  36.520  23.751  1.00  0.00     0.079 A
HETATM    6  S2  UNL     1      35.171  35.242  24.853  1.00  0.00    -0.060 SA
HETATM    7  C4  UNL     1      33.710  35.402  25.761  1.00  0.00     0.117 A
HETATM    8  C16 UNL     1      33.101  36.454  25.158  1.00  0.00     0.079 A
HETATM    9  C15 UNL     1      33.736  37.039  24.117  1.00  0.00     0.055 A
BRANCH   7  10
HETATM   10  S1  UNL     1      33.249  34.347  27.089  1.00  0.00     0.186 S
HETATM   11  O1  UNL     1      34.172  33.133  27.003  1.00  0.00    -0.222 OA
HETATM   12  O2  UNL     1      31.870  33.831  26.921  1.00  0.00    -0.222 OA
BRANCH  10  13
HETATM   13  C2  UNL     1      33.514  35.075  28.665  1.00  0.00     0.106 C
HETATM   14  C1  UNL     1      34.303  36.346  28.673  1.00  0.00     0.026 C
HETATM   15  C3  UNL     1      32.166  35.237  29.361  1.00  0.00     0.026 C
ENDBRANCH  10  13
ENDBRANCH   7  10
BRANCH   8  16
HETATM   16  C17 UNL     1      31.717  36.924  25.575  1.00  0.00     0.419 C
HETATM   17  F1  UNL     1      31.627  37.278  26.876  1.00  0.00    -0.166 F
HETATM   18  F2  UNL     1      31.346  38.069  24.852  1.00  0.00    -0.166 F
HETATM   19  F3  UNL     1      30.757  35.979  25.179  1.00  0.00    -0.166 F
ENDBRANCH   8  16
ENDBRANCH   1   5
BRANCH   3  20
HETATM   20  C7  UNL     1      36.670  36.761  20.321  1.00  0.00     0.164 C
BRANCH  20  21
HETATM   21  N2  UNL     1      36.027  37.352  19.219  1.00  0.00    -0.369 N
HETATM   22  C8  UNL     1      35.222  38.487  19.503  1.00  0.00     0.154 C
BRANCH  21  23
HETATM   23  C9  UNL     1      36.401  37.083  17.908  1.00  0.00     0.069 C
BRANCH  23  24
HETATM   24  C10 UNL     1      35.848  35.884  17.254  1.00  0.00     0.050 C
HETATM   25  C11 UNL     1      34.344  35.696  17.473  1.00  0.00     0.013 C
HETATM   26  C12 UNL     1      33.608  35.746  16.168  1.00  0.00     0.028 C
HETATM   27  C13 UNL     1      34.109  34.696  15.191  1.00  0.00     0.232 C
HETATM   28  N3  UNL     1      35.565  34.584  15.214  1.00  0.00    -0.074 N
HETATM   29  C14 UNL     1      36.120  35.829  15.770  1.00  0.00     0.242 C
ATOM     30  H32 UNL     1      35.886  33.755  15.714  1.00  0.00     0.277 HD
ATOM     31  H31 UNL     1      35.955  34.355  14.301  1.00  0.00     0.277 HD
ENDBRANCH  23  24
ENDBRANCH  21  23
ENDBRANCH  20  21
ENDBRANCH   3  20
TORSDOF 8
ENDMDL