MODEL 5
REMARK VINA RESULT: -6.421621737      1.886      5.561
REMARK  5 active torsions:
REMARK  status: ('A' for Active; 'I' for Inactive)
REMARK    1  A    between atoms: C1_2  and  C2_4
REMARK    2  A    between atoms: C5_8  and  C6_9
REMARK    3  A    between atoms: C6_9  and  O3_10
REMARK    4  A    between atoms: C6_9  and  O4_12
REMARK    5  A    between atoms: C10_17  and  O5_18
ROOT
HETATM    1  C2  UNL     1      16.766  16.969  19.284  1.00  0.00     0.093 A
HETATM    2  S1  UNL     1      17.288  17.442  20.869  1.00  0.00    -0.084 SA
HETATM    3  C3  UNL     1      15.995  16.846  21.777  1.00  0.00     0.019 A
HETATM    4  C4  UNL     1      15.173  16.289  20.843  1.00  0.00    -0.030 A
HETATM    5  C5  UNL     1      15.576  16.354  19.540  1.00  0.00     0.027 A
HETATM    6  C7  UNL     1      13.870  15.632  21.334  1.00  0.00     0.040 C
HETATM    7  C8  UNL     1      14.143  15.164  22.714  1.00  0.00     0.007 C
HETATM    8  C9  UNL     1      14.379  16.388  23.571  1.00  0.00     0.037 C
HETATM    9  C10 UNL     1      15.745  16.887  23.252  1.00  0.00     0.158 C
ENDROOT
BRANCH   5  10
HETATM   10  C6  UNL     1      14.725  15.816  18.387  1.00  0.00     0.290 C
BRANCH  10  11
HETATM   11  O3  UNL     1      14.379  16.856  17.564  1.00  0.00    -0.367 OA
ATOM     12  H3  UNL     1      13.485  17.115  17.752  1.00  0.00     0.213 HD
ENDBRANCH  10  11
BRANCH  10  13
HETATM   13  O4  UNL     1      15.458  14.837  17.702  1.00  0.00    -0.367 OA
ATOM     14  H4  UNL     1      14.884  14.399  17.085  1.00  0.00     0.213 HD
ENDBRANCH  10  13
ENDBRANCH   5  10
BRANCH   1  15
HETATM   15  C1  UNL     1      17.518  17.200  18.035  1.00  0.00     0.217 C
HETATM   16  O1  UNL     1      17.085  17.393  16.916  1.00  0.00    -0.643 OA
HETATM   17  O2  UNL     1      18.926  17.195  18.159  1.00  0.00    -0.643 OA
ENDBRANCH   1  15
BRANCH   9  18
HETATM   18  O5  UNL     1      16.738  16.189  23.946  1.00  0.00    -0.390 OA
ATOM     19  H5  UNL     1      17.360  15.796  23.344  1.00  0.00     0.210 HD
ENDBRANCH   9  18
TORSDOF 5
ENDMDL