MODEL 3
REMARK VINA RESULT: -7.360259177      2.176      2.886
REMARK  5 active torsions:
REMARK  status: ('A' for Active; 'I' for Inactive)
REMARK    1  A    between atoms: C1_4  and  O1_5
REMARK    2  A    between atoms: C1_4  and  C2_7
REMARK    3  A    between atoms: C6_13  and  C7_14
REMARK    4  A    between atoms: C11_18  and  O2_19
REMARK    5  A    between atoms: C12_21  and  O3_22
ROOT
HETATM    1  C2  UNL     1      13.900  15.438  22.822  1.00  0.00     0.037 A
HETATM    2  C3  UNL     1      13.807  14.339  23.665  1.00  0.00     0.019 A
HETATM    3  C4  UNL     1      14.055  13.079  23.135  1.00  0.00     0.018 A
HETATM    4  C5  UNL     1      14.386  12.881  21.823  1.00  0.00     0.088 A
HETATM    5  N2  UNL     1      14.464  13.965  21.056  1.00  0.00    -0.368 N
ATOM      6  H2  UNL     1      14.713  13.839  20.075  1.00  0.00     0.165 HD
HETATM    7  C6  UNL     1      14.231  15.237  21.499  1.00  0.00     0.030 A
ENDROOT
BRANCH   7   8
HETATM    8  C7  UNL     1      14.238  16.352  20.521  1.00  0.00     0.068 C
HETATM    9  C8  UNL     1      15.393  16.040  19.534  1.00  0.00     0.013 C
HETATM   10  C9  UNL     1      15.227  16.828  18.260  1.00  0.00     0.004 C
HETATM   11  C10 UNL     1      14.178  15.994  17.510  1.00  0.00     0.034 C
HETATM   12  C11 UNL     1      12.936  16.198  18.279  1.00  0.00     0.147 C
HETATM   13  C12 UNL     1      12.924  16.218  19.746  1.00  0.00     0.156 C
BRANCH  12  14
HETATM   14  O2  UNL     1      12.041  15.209  17.782  1.00  0.00    -0.393 OA
ATOM     15  H2  UNL     1      12.372  15.000  16.916  1.00  0.00     0.210 HD
ENDBRANCH  12  14
BRANCH  13  16
HETATM   16  O3  UNL     1      12.114  17.308  20.128  1.00  0.00    -0.392 OA
ATOM     17  H3  UNL     1      11.217  17.067  19.928  1.00  0.00     0.210 HD
ENDBRANCH  13  16
ENDBRANCH   7   8
BRANCH   1  18
HETATM   18  C1  UNL     1      13.646  16.758  23.398  1.00  0.00     0.145 C
HETATM   19  N1  UNL     1      14.615  17.388  23.980  1.00  0.00    -0.379 N
ATOM     20  H12 UNL     1      14.438  18.308  24.382  1.00  0.00     0.158 HD
ATOM     21  H11 UNL     1      15.501  16.882  23.982  1.00  0.00     0.158 HD
BRANCH  18  22
HETATM   22  O1  UNL     1      12.435  17.449  23.396  1.00  0.00    -0.346 OA
ATOM     23  H1  UNL     1      12.525  18.392  23.334  1.00  0.00     0.219 HD
ENDBRANCH  18  22
ENDBRANCH   1  18
TORSDOF 5
ENDMDL