MODEL 4
REMARK VINA RESULT: -7.083716580      1.104      1.746
REMARK  5 active torsions:
REMARK  status: ('A' for Active; 'I' for Inactive)
REMARK    1  A    between atoms: C3_5  and  N2_6
REMARK    2  A    between atoms: N2_6  and  C4_8
REMARK    3  A    between atoms: C10_16  and  C11_17
REMARK    4  A    between atoms: C11_17  and  O1_18
REMARK    5  A    between atoms: N4_20  and  O2_22
ROOT
HETATM    1  C1  UNL     1      14.228  14.036  21.035  1.00  0.00     0.035 C
HETATM    2  C2  UNL     1      15.039  15.310  21.234  1.00  0.00     0.126 C
HETATM    3  N1  UNL     1      14.898  16.013  19.931  1.00  0.00    -0.220 N
ATOM      4  H1  UNL     1      15.611  16.204  19.228  1.00  0.00     0.178 HD
HETATM    5  C3  UNL     1      13.493  16.358  19.914  1.00  0.00     0.671 C
HETATM    6  N3  UNL     1      13.094  16.503  21.155  1.00  0.00    -0.212 N
ATOM      7  H3  UNL     1      12.147  16.745  21.444  1.00  0.00     0.178 HD
HETATM    8  C10 UNL     1      14.224  16.261  22.063  1.00  0.00     0.198 C
ENDROOT
BRANCH   5   9
HETATM    9  N2  UNL     1      12.634  16.530  18.803  1.00  0.00    -0.222 N
ATOM     10  H2  UNL     1      11.726  16.966  18.962  1.00  0.00     0.178 HD
BRANCH   9  11
HETATM   11  C4  UNL     1      12.960  16.129  17.475  1.00  0.00     0.099 C
HETATM   12  C5  UNL     1      12.364  17.039  16.413  1.00  0.00     0.026 C
HETATM   13  C6  UNL     1      13.135  16.749  15.136  1.00  0.00     0.002 C
HETATM   14  C7  UNL     1      12.877  15.328  14.730  1.00  0.00     0.000 C
HETATM   15  C8  UNL     1      12.056  14.560  15.733  1.00  0.00     0.002 C
HETATM   16  C9  UNL     1      12.529  14.721  17.144  1.00  0.00     0.026 C
ENDBRANCH   9  11
ENDBRANCH   5   9
BRANCH   8  17
HETATM   17  C11 UNL     1      13.847  15.786  23.374  1.00  0.00     0.161 C
HETATM   18  N4  UNL     1      13.133  16.430  24.201  1.00  0.00    -0.249 N
ATOM     19  H4  UNL     1      12.964  15.946  25.083  1.00  0.00     0.196 HD
BRANCH  17  20
HETATM   20  O1  UNL     1      14.277  14.521  23.801  1.00  0.00    -0.346 OA
ATOM     21  H1  UNL     1      14.213  14.290  24.721  1.00  0.00     0.219 HD
ENDBRANCH  17  20
BRANCH  18  22
HETATM   22  O2  UNL     1      12.563  17.637  24.112  1.00  0.00    -0.288 OA
ATOM     23  H2  UNL     1      12.345  18.168  23.356  1.00  0.00     0.244 HD
ENDBRANCH  18  22
ENDBRANCH   8  17
TORSDOF 5
ENDMDL