MODEL 1
REMARK VINA RESULT: -7.577101533      0.000      0.000
REMARK  6 active torsions:
REMARK  status: ('A' for Active; 'I' for Inactive)
REMARK    1  A    between atoms: N1_1  and  C1_5
REMARK    2  A    between atoms: C3_7  and  N2_8
REMARK    3  A    between atoms: C3_7  and  C4_12
REMARK    4  A    between atoms: C8_16  and  C9_17
REMARK    5  A    between atoms: C9_17  and  O1_18
REMARK    6  A    between atoms: N3_20  and  O2_22
ROOT
HETATM    1  C4  UNL     1      14.767  15.713  19.959  1.00  0.00    -0.011 A
HETATM    2  C5  UNL     1      15.990  16.313  19.950  1.00  0.00     0.010 A
HETATM    3  C6  UNL     1      16.532  16.926  21.086  1.00  0.00     0.002 A
HETATM    4  C7  UNL     1      15.748  16.885  22.216  1.00  0.00     0.016 A
HETATM    5  C8  UNL     1      14.508  16.296  22.290  1.00  0.00     0.017 A
HETATM    6  C10 UNL     1      14.041  15.715  21.137  1.00  0.00     0.026 A
ENDROOT
BRANCH   1   7
HETATM    7  C3  UNL     1      14.171  15.024  18.796  1.00  0.00     0.203 C
HETATM    8  C2  UNL     1      12.798  15.508  18.398  1.00  0.00     0.099 C
HETATM    9  C1  UNL     1      13.335  16.675  17.585  1.00  0.00     0.250 C
HETATM   10  S1  UNL     1      14.899  15.790  17.289  1.00  0.00    -0.093 SA
BRANCH   9  11
HETATM   11  N1  UNL     1      12.630  16.945  16.353  1.00  0.00    -0.066 N
ATOM     12  H13 UNL     1      12.491  16.080  15.832  1.00  0.00     0.275 HD
ATOM     13  H12 UNL     1      11.660  17.194  16.551  1.00  0.00     0.275 HD
ATOM     14  H11 UNL     1      13.056  17.651  15.752  1.00  0.00     0.275 HD
ENDBRANCH   9  11
BRANCH   7  15
HETATM   15  N2  UNL     1      14.376  13.613  18.852  1.00  0.00    -0.057 N
ATOM     16  H23 UNL     1      15.087  13.402  19.553  1.00  0.00     0.276 HD
ATOM     17  H22 UNL     1      13.559  13.169  19.270  1.00  0.00     0.276 HD
ATOM     18  H21 UNL     1      14.609  13.139  17.979  1.00  0.00     0.276 HD
ENDBRANCH   7  15
ENDBRANCH   1   7
BRANCH   5  19
HETATM   19  C9  UNL     1      13.715  16.253  23.509  1.00  0.00     0.170 C
HETATM   20  N3  UNL     1      13.409  17.397  24.047  1.00  0.00    -0.247 N
ATOM     21  H3  UNL     1      13.733  18.252  23.597  1.00  0.00     0.196 HD
BRANCH  19  22
HETATM   22  O1  UNL     1      13.333  15.027  24.031  1.00  0.00    -0.344 OA
ATOM     23  H1  UNL     1      12.469  14.930  24.412  1.00  0.00     0.219 HD
ENDBRANCH  19  22
BRANCH  20  24
HETATM   24  O2  UNL     1      12.668  17.497  25.194  1.00  0.00    -0.288 OA
ATOM     25  H2  UNL     1      12.056  18.207  25.347  1.00  0.00     0.244 HD
ENDBRANCH  20  24
ENDBRANCH   5  19
TORSDOF 6
ENDMDL