MODEL 1
REMARK VINA RESULT: -7.681730692      0.000      0.000
REMARK  6 active torsions:
REMARK  status: ('A' for Active; 'I' for Inactive)
REMARK    1  A    between atoms: C2_2  and  C3_3
REMARK    2  A    between atoms: C3_3  and  C4_4
REMARK    3  A    between atoms: C6_6  and  O1_7
REMARK    4  A    between atoms: C7_9  and  O2_10
REMARK    5  A    between atoms: C8_12  and  O3_13
REMARK    6  A    between atoms: C12_19  and  O5_20
ROOT
HETATM    1  C4  UNL     1      14.949  15.592  22.121  1.00  0.00     0.090 C
HETATM    2  C5  UNL     1      14.926  15.004  20.812  1.00  0.00    -0.140 C
HETATM    3  C6  UNL     1      14.573  14.664  19.487  1.00  0.00     0.216 C
HETATM    4  C7  UNL     1      13.192  15.303  19.137  1.00  0.00     0.191 C
HETATM    5  C8  UNL     1      12.945  16.612  19.787  1.00  0.00     0.189 C
HETATM    6  C9  UNL     1      12.860  16.761  21.235  1.00  0.00     0.041 A
HETATM    7  C10 UNL     1      13.651  16.379  22.320  1.00  0.00    -0.007 A
HETATM    8  C11 UNL     1      13.100  16.791  23.475  1.00  0.00     0.154 A
HETATM    9  O4  UNL     1      11.994  17.415  23.134  1.00  0.00    -0.299 OA
HETATM   10  C12 UNL     1      11.792  17.436  21.865  1.00  0.00     0.192 A
ENDROOT
BRANCH   1  11
HETATM   11  C3  UNL     1      16.150  16.488  22.414  1.00  0.00     0.021 C
BRANCH  11  12
HETATM   12  C2  UNL     1      16.715  17.143  21.196  1.00  0.00    -0.003 C
HETATM   13  C1  UNL     1      18.178  17.478  21.519  1.00  0.00     0.005 C
ENDBRANCH  11  12
ENDBRANCH   1  11
BRANCH   3  14
HETATM   14  O1  UNL     1      14.376  13.277  19.250  1.00  0.00    -0.382 OA
ATOM     15  H1  UNL     1      15.152  12.799  18.981  1.00  0.00     0.211 HD
ENDBRANCH   3  14
BRANCH   4  16
HETATM   16  O2  UNL     1      13.075  15.469  17.776  1.00  0.00    -0.389 OA
ATOM     17  H2  UNL     1      12.213  15.196  17.485  1.00  0.00     0.210 HD
ENDBRANCH   4  16
BRANCH   5  18
HETATM   18  O3  UNL     1      11.740  17.064  19.205  1.00  0.00    -0.388 OA
ATOM     19  H3  UNL     1      11.945  17.941  18.900  1.00  0.00     0.210 HD
ENDBRANCH   5  18
BRANCH  10  20
HETATM   20  O5  UNL     1      10.727  18.011  21.183  1.00  0.00    -0.340 OA
ATOM     21  H5  UNL     1       9.815  17.815  21.361  1.00  0.00     0.220 HD
ENDBRANCH  10  20
TORSDOF 6
ENDMDL