MODEL 1
REMARK VINA RESULT: -7.913944361      0.000      0.000
REMARK  4 active torsions:
REMARK  status: ('A' for Active; 'I' for Inactive)
REMARK    1  A    between atoms: N2_9  and  C8_10
REMARK    2  A    between atoms: C10_12  and  O1_13
REMARK    3  A    between atoms: C11_15  and  C12_16
REMARK    4  A    between atoms: C12_16  and  O2_17
ROOT
HETATM    1  N1  UNL     1      14.160  16.135  22.082  1.00  0.00    -0.100 NA
HETATM    2  C1  UNL     1      15.419  16.567  21.592  1.00  0.00     0.074 A
HETATM    3  C2  UNL     1      16.343  16.940  22.545  1.00  0.00     0.029 A
HETATM    4  C3  UNL     1      17.586  17.371  22.137  1.00  0.00     0.003 A
HETATM    5  C4  UNL     1      17.850  17.409  20.779  1.00  0.00     0.014 A
HETATM    6  C5  UNL     1      16.911  17.031  19.842  1.00  0.00    -0.006 A
HETATM    7  C6  UNL     1      16.958  16.991  18.465  1.00  0.00     0.031 A
HETATM    8  C7  UNL     1      15.723  16.529  18.067  1.00  0.00     0.092 A
HETATM    9  N2  UNL     1      14.926  16.286  19.133  1.00  0.00    -0.350 N
HETATM   10  C14 UNL     1      15.640  16.589  20.232  1.00  0.00     0.069 A
ENDROOT
BRANCH   9  11
HETATM   11  C8  UNL     1      13.568  15.797  19.126  1.00  0.00     0.092 C
HETATM   12  C9  UNL     1      12.608  16.914  18.788  1.00  0.00     0.057 C
HETATM   13  C10 UNL     1      12.195  16.737  17.347  1.00  0.00     0.126 C
HETATM   14  C11 UNL     1      13.191  15.722  16.817  1.00  0.00     0.040 C
HETATM   15  C13 UNL     1      13.354  14.820  17.996  1.00  0.00     0.035 C
BRANCH  13  16
HETATM   16  O1  UNL     1      12.238  17.945  16.695  1.00  0.00    -0.395 OA
ATOM     17  H1  UNL     1      11.518  18.007  16.079  1.00  0.00     0.210 HD
ENDBRANCH  13  16
BRANCH  14  18
HETATM   18  C12 UNL     1      12.669  15.018  15.591  1.00  0.00     0.171 C
BRANCH  18  19
HETATM   19  O2  UNL     1      11.373  15.519  15.367  1.00  0.00    -0.400 OA
ATOM     20  H2  UNL     1      11.452  16.465  15.344  1.00  0.00     0.209 HD
ENDBRANCH  18  19
ENDBRANCH  14  18
ENDBRANCH   9  11
TORSDOF 4
ENDMDL