MODEL 4
REMARK VINA RESULT: -6.095488019      2.923      6.462
REMARK  7 active torsions:
REMARK  status: ('A' for Active; 'I' for Inactive)
REMARK    1  A    between atoms: C2_2  and  O1_4
REMARK    2  A    between atoms: C2_2  and  C4_6
REMARK    3  A    between atoms: C4_6  and  N1_7
REMARK    4  A    between atoms: N1_7  and  C5_9
REMARK    5  A    between atoms: N2_14  and  O2_15
REMARK    6  A    between atoms: C10_17  and  N3_18
REMARK    7  A    between atoms: C11_22  and  N4_23
ROOT
HETATM    1  C5  UNL     1      14.271  15.801  17.489  1.00  0.00     0.034 C
HETATM    2  C6  UNL     1      14.618  16.791  16.468  1.00  0.00     0.091 C
HETATM    3  C7  UNL     1      13.558  17.078  15.473  1.00  0.00     0.055 C
HETATM    4  C8  UNL     1      13.988  16.617  14.073  1.00  0.00     0.041 C
HETATM    5  C9  UNL     1      13.438  18.595  15.378  1.00  0.00     0.041 C
HETATM    6  N2  UNL     1      12.262  16.593  15.818  1.00  0.00    -0.250 N
HETATM    7  C10 UNL     1      12.201  15.226  16.217  1.00  0.00     0.356 C
HETATM    8  C11 UNL     1      13.037  15.049  17.420  1.00  0.00     0.077 C
ENDROOT
BRANCH   1   9
HETATM    9  N1  UNL     1      15.075  15.596  18.461  1.00  0.00    -0.389 N
ATOM     10  H1  UNL     1      15.585  14.713  18.483  1.00  0.00     0.159 HD
BRANCH   9  11
HETATM   11  C4  UNL     1      15.307  16.535  19.525  1.00  0.00     0.156 C
BRANCH  11  12
HETATM   12  C2  UNL     1      14.777  15.984  20.829  1.00  0.00     0.066 C
HETATM   13  C1  UNL     1      15.598  16.380  22.008  1.00  0.00     0.047 C
HETATM   14  C3  UNL     1      13.370  16.501  21.000  1.00  0.00     0.047 C
BRANCH  12  15
HETATM   15  O1  UNL     1      14.726  14.598  20.722  1.00  0.00    -0.389 OA
ATOM     16  H1  UNL     1      15.116  14.317  19.902  1.00  0.00     0.210 HD
ENDBRANCH  12  15
ENDBRANCH  11  12
ENDBRANCH   9  11
ENDBRANCH   1   9
BRANCH   8  17
HETATM   17  N4  UNL     1      12.660  14.259  18.345  1.00  0.00    -0.398 N
ATOM     18  H42 UNL     1      13.307  13.561  18.713  1.00  0.00     0.156 HD
ATOM     19  H41 UNL     1      11.723  14.288  18.746  1.00  0.00     0.156 HD
ENDBRANCH   8  17
BRANCH   7  20
HETATM   20  N3  UNL     1      12.662  14.297  15.217  1.00  0.00    -0.051 N
ATOM     21  H33 UNL     1      11.977  14.214  14.466  1.00  0.00     0.277 HD
ATOM     22  H32 UNL     1      13.444  14.692  14.697  1.00  0.00     0.277 HD
ATOM     23  H31 UNL     1      12.906  13.376  15.581  1.00  0.00     0.277 HD
ENDBRANCH   7  20
BRANCH   6  24
HETATM   24  O2  UNL     1      11.319  17.001  14.994  1.00  0.00    -0.289 OA
ATOM     25  H2  UNL     1      10.759  17.671  15.367  1.00  0.00     0.244 HD
ENDBRANCH   6  24
TORSDOF 7
ENDMDL