MODEL 3
REMARK VINA RESULT: -7.073018006      1.157      1.499
REMARK  6 active torsions:
REMARK  status: ('A' for Active; 'I' for Inactive)
REMARK    1  A    between atoms: O1_1  and  N1_3
REMARK    2  A    between atoms: C1_5  and  O2_6
REMARK    3  A    between atoms: C1_5  and  C2_8
REMARK    4  A    between atoms: C2_8  and  O3_9
REMARK    5  A    between atoms: C2_8  and  N2_11
REMARK    6  A    between atoms: N2_11  and  C3_13
ROOT
HETATM    1  N2  UNL     1      15.090  15.361  21.896  1.00  0.00    -0.338 N
ATOM      2  H2  UNL     1      15.195  14.404  22.230  1.00  0.00     0.164 HD
ENDROOT
BRANCH   1   3
HETATM    3  C2  UNL     1      15.214  16.518  22.797  1.00  0.00     0.297 C
BRANCH   3   4
HETATM    4  C1  UNL     1      14.030  16.507  23.666  1.00  0.00     0.185 C
HETATM    5  N1  UNL     1      13.714  17.567  24.311  1.00  0.00    -0.247 N
ATOM      6  H1  UNL     1      14.310  18.385  24.189  1.00  0.00     0.196 HD
BRANCH   5   7
HETATM    7  O1  UNL     1      12.653  17.689  25.141  1.00  0.00    -0.288 OA
ATOM      8  H1  UNL     1      12.067  16.984  25.391  1.00  0.00     0.244 HD
ENDBRANCH   5   7
BRANCH   4   9
HETATM    9  O2  UNL     1      13.264  15.370  23.788  1.00  0.00    -0.345 OA
ATOM     10  H2  UNL     1      13.504  14.701  24.418  1.00  0.00     0.219 HD
ENDBRANCH   4   9
ENDBRANCH   3   4
BRANCH   3  11
HETATM   11  O3  UNL     1      16.394  16.423  23.555  1.00  0.00    -0.369 OA
ATOM     12  H3  UNL     1      16.637  17.269  23.912  1.00  0.00     0.212 HD
ENDBRANCH   3  11
ENDBRANCH   1   3
BRANCH   1  13
HETATM   13  C3  UNL     1      14.838  15.633  20.640  1.00  0.00     0.147 A
HETATM   14  N3  UNL     1      13.794  15.263  19.904  1.00  0.00    -0.339 N
HETATM   15  C4  UNL     1      13.733  15.643  18.660  1.00  0.00     0.024 A
ATOM     16  H3  UNL     1      13.053  14.691  20.307  1.00  0.00     0.168 HD
HETATM   17  C5  UNL     1      14.763  16.412  18.174  1.00  0.00     0.009 A
HETATM   18  C9  UNL     1      12.666  15.366  17.602  1.00  0.00     0.058 C
HETATM   19  S1  UNL     1      15.771  16.548  19.546  1.00  0.00    -0.057 SA
HETATM   20  C6  UNL     1      14.774  16.897  16.742  1.00  0.00     0.048 C
HETATM   21  C7  UNL     1      13.417  17.267  16.260  1.00  0.00     0.006 C
HETATM   22  C8  UNL     1      12.294  16.761  17.102  1.00  0.00     0.006 C
ENDBRANCH   1  13
TORSDOF 6
ENDMDL