MODEL 2
REMARK VINA RESULT: -6.689709787      0.128      1.896
REMARK  5 active torsions:
REMARK  status: ('A' for Active; 'I' for Inactive)
REMARK    1  A    between atoms: C2_2  and  N1_3
REMARK       I    between atoms: C3_5  and  N3_7
REMARK       I    between atoms: N4_9  and  C4_11
REMARK    2  A    between atoms: C4_11  and  C5_13
REMARK    3  A    between atoms: C5_13  and  N5_14
REMARK    4  A    between atoms: C6_15  and  O2_16
REMARK    5  A    between atoms: C9_20  and  O3_21
ROOT
HETATM    1  N1  UNL     1      12.299  17.385  16.219  1.00  0.00    -0.364 N
ATOM      2  H1  UNL     1      12.290  18.316  16.635  1.00  0.00     0.162 HD
HETATM    3  C3  UNL     1      12.229  16.366  16.988  1.00  0.00     0.203 C
HETATM    4  N2  UNL     1      12.235  15.046  16.486  1.00  0.00    -0.062 NA
HETATM    5  N3  UNL     1      12.142  16.561  18.385  1.00  0.00    -0.271 N
ATOM      6  H3  UNL     1      11.327  17.003  18.810  1.00  0.00     0.189 HD
HETATM    7  N4  UNL     1      13.124  16.162  19.091  1.00  0.00    -0.266 N
ATOM      8  H4  UNL     1      13.932  15.721  18.650  1.00  0.00     0.190 HD
HETATM    9  C4  UNL     1      13.081  16.337  20.488  1.00  0.00     0.254 C
HETATM   10  O1  UNL     1      12.358  17.224  20.979  1.00  0.00    -0.270 OA
ENDROOT
BRANCH   9  11
HETATM   11  C5  UNL     1      13.888  15.472  21.363  1.00  0.00     0.237 C
BRANCH  11  12
HETATM   12  N5  UNL     1      15.028  16.200  21.866  1.00  0.00    -0.300 N
HETATM   13  C6  UNL     1      16.028  16.740  21.147  1.00  0.00     0.144 A
HETATM   14  C7  UNL     1      16.875  17.327  22.062  1.00  0.00     0.060 A
HETATM   15  C8  UNL     1      16.393  17.148  23.340  1.00  0.00     0.060 A
HETATM   16  C9  UNL     1      15.223  16.431  23.187  1.00  0.00     0.144 A
BRANCH  13  17
HETATM   17  O2  UNL     1      16.170  16.705  19.749  1.00  0.00    -0.346 OA
ATOM     18  H2  UNL     1      16.188  17.453  19.163  1.00  0.00     0.219 HD
ENDBRANCH  13  17
BRANCH  16  19
HETATM   19  O3  UNL     1      14.395  16.023  24.225  1.00  0.00    -0.346 OA
ATOM     20  H3  UNL     1      14.330  15.145  24.581  1.00  0.00     0.219 HD
ENDBRANCH  16  19
ENDBRANCH  11  12
ENDBRANCH   9  11
BRANCH   1  21
HETATM   21  C2  UNL     1      12.389  17.264  14.789  1.00  0.00     0.118 C
HETATM   22  C1  UNL     1      13.710  17.833  14.349  1.00  0.00     0.026 C
ENDBRANCH   1  21
TORSDOF 5
ENDMDL