MODEL 4
REMARK VINA RESULT: -6.755066882      1.985      3.449
REMARK  6 active torsions:
REMARK  status: ('A' for Active; 'I' for Inactive)
REMARK    1  A    between atoms: O1_1  and  C1_3
REMARK    2  A    between atoms: C1_3  and  C2_4
REMARK    3  A    between atoms: C2_4  and  N1_5
REMARK    4  A    between atoms: C3_6  and  O2_7
REMARK    5  A    between atoms: C6_11  and  O3_12
REMARK    6  A    between atoms: C9_16  and  O4_17
ROOT
HETATM    1  N1  UNL     1      16.174  16.975  21.456  1.00  0.00    -0.306 N
HETATM    2  C3  UNL     1      15.023  16.280  21.567  1.00  0.00     0.151 A
HETATM    3  C4  UNL     1      14.701  15.732  20.339  1.00  0.00     0.008 A
HETATM    4  C5  UNL     1      15.705  16.124  19.472  1.00  0.00     0.008 A
HETATM    5  C6  UNL     1      16.596  16.885  20.180  1.00  0.00     0.151 A
HETATM    6  C7  UNL     1      15.434  15.570  18.109  1.00  0.00     0.026 C
HETATM    7  C8  UNL     1      14.584  16.569  17.360  1.00  0.00     0.041 C
HETATM    8  C9  UNL     1      13.404  16.968  18.199  1.00  0.00     0.119 C
HETATM    9  C10 UNL     1      12.756  15.835  18.921  1.00  0.00     0.041 C
HETATM   10  C11 UNL     1      13.742  14.909  19.570  1.00  0.00     0.026 C
HETATM   11  C12 UNL     1      14.618  14.332  18.467  1.00  0.00     0.019 C
ENDROOT
BRANCH   1  12
HETATM   12  C2  UNL     1      16.806  17.683  22.553  1.00  0.00     0.159 C
BRANCH  12  13
HETATM   13  C1  UNL     1      17.785  16.722  23.200  1.00  0.00     0.184 C
BRANCH  13  14
HETATM   14  O1  UNL     1      18.858  17.511  23.654  1.00  0.00    -0.399 OA
ATOM     15  H1  UNL     1      19.325  16.977  24.287  1.00  0.00     0.209 HD
ENDBRANCH  13  14
ENDBRANCH  12  13
ENDBRANCH   1  12
BRANCH   2  16
HETATM   16  O2  UNL     1      14.247  16.109  22.709  1.00  0.00    -0.345 OA
ATOM     17  H2  UNL     1      14.278  15.386  23.324  1.00  0.00     0.219 HD
ENDBRANCH   2  16
BRANCH   5  18
HETATM   18  O3  UNL     1      17.770  17.500  19.727  1.00  0.00    -0.345 OA
ATOM     19  H3  UNL     1      18.501  17.009  19.370  1.00  0.00     0.219 HD
ENDBRANCH   5  18
BRANCH   8  20
HETATM   20  O4  UNL     1      12.423  17.561  17.376  1.00  0.00    -0.396 OA
ATOM     21  H4  UNL     1      12.087  18.341  17.800  1.00  0.00     0.210 HD
ENDBRANCH   8  20
TORSDOF 6
ENDMDL