MODEL 3
REMARK VINA RESULT: -7.011217416      3.023      8.416
REMARK  12 active torsions:
REMARK  status: ('A' for Active; 'I' for Inactive)
REMARK    1  A    between atoms: N1_1  and  C1_4
REMARK    2  A    between atoms: C2_7  and  C3_8
REMARK    3  A    between atoms: C4_11  and  N4_12
REMARK    4  A    between atoms: N4_12  and  C5_14
REMARK    5  A    between atoms: C8_22  and  C9_23
REMARK    6  A    between atoms: C9_23  and  C10_24
REMARK    7  A    between atoms: C10_24  and  C11_25
REMARK    8  A    between atoms: C11_25  and  C12_26
REMARK    9  A    between atoms: C12_26  and  C13_27
REMARK   10  A    between atoms: C13_27  and  N7_28
REMARK   11  A    between atoms: C20_37  and  C21_38
REMARK   12  A    between atoms: C21_38  and  O3_39
ROOT
HETATM    1  N4  UNL     1      -7.443  48.412  17.350  1.00  0.00    -0.322 N
ATOM      2  H4  UNL     1      -8.183  48.164  16.693  1.00  0.00     0.169 HD
ENDROOT
BRANCH   1   3
HETATM    3  C4  UNL     1      -6.595  49.584  17.178  1.00  0.00     0.151 A
HETATM    4  N3  UNL     1      -6.684  50.527  16.297  1.00  0.00    -0.333 N
HETATM    5  C3  UNL     1      -5.827  51.537  16.270  1.00  0.00     0.095 A
ATOM      6  H3  UNL     1      -7.432  50.493  15.606  1.00  0.00     0.168 HD
HETATM    7  C20 UNL     1      -4.859  51.528  17.211  1.00  0.00     0.040 A
HETATM    8  S1  UNL     1      -5.240  50.060  18.083  1.00  0.00    -0.054 SA
BRANCH   5   9
HETATM    9  C2  UNL     1      -6.014  52.566  15.224  1.00  0.00     0.153 A
HETATM   10  N2  UNL     1      -5.096  52.831  14.326  1.00  0.00    -0.174 N
HETATM   11  C1  UNL     1      -5.274  53.788  13.350  1.00  0.00     0.681 A
ATOM     12  H2  UNL     1      -4.219  52.311  14.352  1.00  0.00     0.186 HD
HETATM   13  N9  UNL     1      -6.424  54.449  13.338  1.00  0.00    -0.141 N
HETATM   14  C22 UNL     1      -7.397  54.216  14.235  1.00  0.00     0.340 A
ATOM     15  H9  UNL     1      -6.574  55.161  12.622  1.00  0.00     0.189 HD
HETATM   16  N8  UNL     1      -7.160  53.276  15.156  1.00  0.00    -0.292 N
HETATM   17  O4  UNL     1      -8.487  54.853  14.213  1.00  0.00    -0.246 OA
ATOM     18  H8  UNL     1      -7.887  53.084  15.846  1.00  0.00     0.172 HD
BRANCH  11  19
HETATM   19  N1  UNL     1      -4.377  54.035  12.487  1.00  0.00    -0.234 N
ATOM     20  H12 UNL     1      -3.833  53.280  12.071  1.00  0.00     0.174 HD
ATOM     21  H11 UNL     1      -4.171  54.987  12.184  1.00  0.00     0.174 HD
ENDBRANCH  11  19
ENDBRANCH   5   9
BRANCH   7  22
HETATM   22  C21 UNL     1      -3.717  52.429  17.539  1.00  0.00     0.213 C
BRANCH  22  23
HETATM   23  O3  UNL     1      -4.264  53.707  17.890  1.00  0.00    -0.396 OA
ATOM     24  H3  UNL     1      -3.733  54.061  18.594  1.00  0.00     0.209 HD
ENDBRANCH  22  23
ENDBRANCH   7  22
ENDBRANCH   1   3
BRANCH   1  25
HETATM   25  C5  UNL     1      -7.180  47.715  18.403  1.00  0.00     0.122 A
HETATM   26  N5  UNL     1      -6.194  46.802  18.490  1.00  0.00    -0.338 N
HETATM   27  C6  UNL     1      -5.982  46.104  19.635  1.00  0.00     0.184 A
ATOM     28  H5  UNL     1      -5.597  46.631  17.680  1.00  0.00     0.168 HD
HETATM   29  N6  UNL     1      -6.724  46.274  20.735  1.00  0.00    -0.332 N
HETATM   30  C7  UNL     1      -7.722  47.174  20.702  1.00  0.00     0.162 A
ATOM     31  H6  UNL     1      -6.536  45.733  21.580  1.00  0.00     0.168 HD
HETATM   32  O1  UNL     1      -8.593  47.543  21.607  1.00  0.00    -0.297 OA
HETATM   33  C19 UNL     1      -7.953  47.901  19.528  1.00  0.00     0.062 A
HETATM   34  C8  UNL     1      -9.400  48.466  21.138  1.00  0.00     0.056 A
HETATM   35  C18 UNL     1      -9.022  48.714  19.830  1.00  0.00     0.052 A
BRANCH  34  36
HETATM   36  C9  UNL     1     -10.527  49.161  21.821  1.00  0.00     0.065 C
BRANCH  36  37
HETATM   37  C10 UNL     1     -11.114  50.212  20.913  1.00  0.00     0.007 C
BRANCH  37  38
HETATM   38  C11 UNL     1     -12.503  49.907  20.455  1.00  0.00     0.005 C
BRANCH  38  39
HETATM   39  C12 UNL     1     -12.776  50.282  19.013  1.00  0.00     0.044 C
BRANCH  39  40
HETATM   40  C13 UNL     1     -11.591  51.080  18.550  1.00  0.00     0.058 C
BRANCH  40  41
HETATM   41  N7  UNL     1     -10.983  50.667  17.347  1.00  0.00    -0.389 N
HETATM   42  C14 UNL     1     -11.710  49.730  16.540  1.00  0.00     0.148 C
HETATM   43  C15 UNL     1     -10.641  48.871  15.847  1.00  0.00     0.187 C
HETATM   44  O2  UNL     1      -9.633  49.670  15.345  1.00  0.00    -0.388 OA
HETATM   45  C16 UNL     1      -9.967  51.005  15.234  1.00  0.00     0.187 C
HETATM   46  C17 UNL     1     -10.258  51.639  16.601  1.00  0.00     0.148 C
ENDBRANCH  40  41
ENDBRANCH  39  40
ENDBRANCH  38  39
ENDBRANCH  37  38
ENDBRANCH  36  37
ENDBRANCH  34  36
ENDBRANCH   1  25
TORSDOF 12
ENDMDL