MODEL 2
REMARK VINA RESULT: -6.148998404      4.535      9.151
REMARK  14 active torsions:
REMARK  status: ('A' for Active; 'I' for Inactive)
REMARK    1  A    between atoms: O1_2  and  C2_3
REMARK    2  A    between atoms: C2_3  and  C3_5
REMARK    3  A    between atoms: C3_5  and  N1_6
REMARK    4  A    between atoms: N1_6  and  C4_8
REMARK    5  A    between atoms: C4_8  and  C5_9
REMARK    6  A    between atoms: C6_10  and  C7_11
REMARK    7  A    between atoms: C7_11  and  N2_12
REMARK       I    between atoms: N2_12  and  C8_14
REMARK    8  A    between atoms: C8_14  and  C9_16
REMARK    9  A    between atoms: C10_17  and  C11_18
REMARK   10  A    between atoms: C11_18  and  O4_19
REMARK   11  A    between atoms: O4_19  and  C12_20
REMARK   12  A    between atoms: C15_23  and  O5_24
REMARK   13  A    between atoms: C19_32  and  O6_33
REMARK   14  A    between atoms: N4_39  and  N5_41
ROOT
HETATM    1  C9  UNL     1      -8.100  46.746  22.617  1.00  0.00     0.072 C
HETATM    2  C10 UNL     1      -9.355  46.810  22.239  1.00  0.00     0.005 C
ENDROOT
BRANCH   2   3
HETATM    3  C11 UNL     1     -10.434  46.767  23.295  1.00  0.00     0.196 C
BRANCH   3   4
HETATM    4  O4  UNL     1     -10.630  48.041  23.752  1.00  0.00    -0.376 OA
BRANCH   4   5
HETATM    5  C12 UNL     1     -10.529  48.252  25.102  1.00  0.00     0.177 C
HETATM    6  C13 UNL     1     -11.067  47.140  25.923  1.00  0.00     0.027 A
HETATM    7  C14 UNL     1     -12.421  47.251  26.169  1.00  0.00     0.047 A
HETATM    8  C19 UNL     1     -10.353  46.059  26.414  1.00  0.00     0.104 A
HETATM    9  C15 UNL     1     -13.053  46.293  26.895  1.00  0.00     0.102 A
HETATM   10  S2  UNL     1     -12.996  48.796  25.422  1.00  0.00    -0.114 SA
HETATM   11  C16 UNL     1     -12.330  45.209  27.386  1.00  0.00     0.070 A
HETATM   12  S1  UNL     1     -12.695  43.816  28.324  1.00  0.00    -0.080 SA
HETATM   13  C18 UNL     1     -10.987  45.053  27.171  1.00  0.00     0.086 A
HETATM   14  C17 UNL     1     -11.131  43.137  28.379  1.00  0.00     0.139 A
HETATM   15  N3  UNL     1     -10.421  44.001  27.685  1.00  0.00    -0.356 N
ATOM     16  H3  UNL     1      -9.422  43.845  27.549  1.00  0.00     0.166 HD
HETATM   17  C20 UNL     1     -11.279  49.513  25.434  1.00  0.00     0.036 C
HETATM   18  C21 UNL     1     -11.261  50.485  24.291  1.00  0.00     0.030 C
HETATM   19  C22 UNL     1     -10.954  50.123  26.746  1.00  0.00     0.030 C
BRANCH   9  20
HETATM   20  O5  UNL     1     -14.384  46.364  27.159  1.00  0.00    -0.358 OA
ATOM     21  H5  UNL     1     -14.736  46.121  28.008  1.00  0.00     0.217 HD
ENDBRANCH   9  20
BRANCH   8  22
HETATM   22  O6  UNL     1      -8.973  45.925  26.177  1.00  0.00    -0.358 OA
ATOM     23  H6  UNL     1      -8.521  46.489  25.561  1.00  0.00     0.217 HD
ENDBRANCH   8  22
ENDBRANCH   4   5
ENDBRANCH   3   4
ENDBRANCH   2   3
BRANCH   1  24
HETATM   24  C8  UNL     1      -7.035  46.785  21.643  1.00  0.00     0.241 C
HETATM   25  N2  UNL     1      -7.211  46.306  20.336  1.00  0.00    -0.354 N
ATOM     26  H2  UNL     1      -8.111  45.916  20.056  1.00  0.00     0.163 HD
HETATM   27  O3  UNL     1      -5.937  47.268  22.010  1.00  0.00    -0.269 OA
BRANCH  25  28
HETATM   28  C7  UNL     1      -6.134  46.359  19.390  1.00  0.00     0.150 C
BRANCH  28  29
HETATM   29  C6  UNL     1      -6.185  47.683  18.683  1.00  0.00    -0.004 C
HETATM   30  C5  UNL     1      -5.265  47.967  17.809  1.00  0.00     0.047 C
BRANCH  30  31
HETATM   31  C4  UNL     1      -5.213  49.194  17.077  1.00  0.00     0.115 C
HETATM   32  N4  UNL     1      -5.545  49.385  15.905  1.00  0.00    -0.292 N
ATOM     33  H4  UNL     1      -5.404  50.359  15.638  1.00  0.00     0.188 HD
BRANCH  31  34
HETATM   34  N1  UNL     1      -4.710  50.344  17.808  1.00  0.00    -0.366 N
ATOM     35  H1  UNL     1      -3.799  50.303  18.265  1.00  0.00     0.161 HD
BRANCH  34  36
HETATM   36  C3  UNL     1      -5.508  51.546  17.885  1.00  0.00     0.232 C
BRANCH  36  37
HETATM   37  C2  UNL     1      -4.954  52.644  17.058  1.00  0.00     0.276 C
HETATM   38  O2  UNL     1      -4.826  53.796  17.547  1.00  0.00    -0.263 OA
BRANCH  37  39
HETATM   39  O1  UNL     1      -4.567  52.448  15.752  1.00  0.00    -0.325 OA
HETATM   40  C1  UNL     1      -5.375  52.797  14.643  1.00  0.00     0.213 C
ENDBRANCH  37  39
ENDBRANCH  36  37
ENDBRANCH  34  36
ENDBRANCH  31  34
BRANCH  32  41
HETATM   41  N5  UNL     1      -6.045  48.662  14.871  1.00  0.00    -0.344 N
ATOM     42  H52 UNL     1      -5.752  47.689  14.959  1.00  0.00     0.176 HD
ATOM     43  H51 UNL     1      -6.622  48.823  14.045  1.00  0.00     0.176 HD
ENDBRANCH  32  41
ENDBRANCH  30  31
ENDBRANCH  28  29
ENDBRANCH  25  28
ENDBRANCH   1  24
TORSDOF 14
ENDMDL