MODEL 3
REMARK VINA RESULT: -6.472905676      2.015      5.593
REMARK  13 active torsions:
REMARK  status: ('A' for Active; 'I' for Inactive)
REMARK    1  A    between atoms: C2_2  and  N1_3
REMARK    2  A    between atoms: C2_2  and  C16_36
REMARK       I    between atoms: N1_3  and  C3_5
REMARK    3  A    between atoms: C3_5  and  C4_7
REMARK    4  A    between atoms: C8_15  and  S2_16
REMARK    5  A    between atoms: S2_16  and  C9_17
REMARK    6  A    between atoms: C9_17  and  C10_18
REMARK       I    between atoms: C10_18  and  N3_20
REMARK    7  A    between atoms: N3_20  and  C11_22
REMARK    8  A    between atoms: C11_22  and  C12_23
REMARK    9  A    between atoms: C12_23  and  C13_24
REMARK   10  A    between atoms: C13_24  and  O4_25
REMARK   11  A    between atoms: N4_27  and  O5_29
REMARK   12  A    between atoms: C16_36  and  O8_38
REMARK   13  A    between atoms: O8_38  and  C17_39
ROOT
HETATM    1  C4  UNL     1     -10.349  49.415  20.965  1.00  0.00     0.055 A
HETATM    2  C5  UNL     1     -10.703  49.277  22.294  1.00  0.00     0.068 A
HETATM    3  S1  UNL     1      -9.687  48.029  22.839  1.00  0.00    -0.094 SA
HETATM    4  C6  UNL     1      -8.843  47.709  21.393  1.00  0.00     0.089 A
HETATM    5  C7  UNL     1      -7.855  46.729  21.239  1.00  0.00     0.265 C
HETATM    6  O2  UNL     1      -7.632  46.073  22.276  1.00  0.00    -0.267 OA
HETATM    7  N2  UNL     1      -7.125  46.405  20.139  1.00  0.00    -0.303 N
ATOM      8  H2  UNL     1      -6.626  45.515  20.152  1.00  0.00     0.171 HD
HETATM    9  C8  UNL     1      -7.010  47.162  19.036  1.00  0.00     0.150 C
HETATM   10  N5  UNL     1      -7.958  47.989  18.544  1.00  0.00    -0.303 N
ATOM     11  H5  UNL     1      -7.972  48.074  17.528  1.00  0.00     0.171 HD
HETATM   12  C14 UNL     1      -8.886  48.714  19.188  1.00  0.00     0.260 C
HETATM   13  O6  UNL     1      -9.339  49.621  18.448  1.00  0.00    -0.267 OA
HETATM   14  C15 UNL     1      -9.388  48.608  20.503  1.00  0.00     0.071 A
ENDROOT
BRANCH   9  15
HETATM   15  S2  UNL     1      -5.474  47.071  18.185  1.00  0.00    -0.084 SA
BRANCH  15  16
HETATM   16  C9  UNL     1      -4.552  48.613  18.425  1.00  0.00     0.185 C
BRANCH  16  17
HETATM   17  C10 UNL     1      -5.293  49.661  17.692  1.00  0.00     0.227 C
HETATM   18  O3  UNL     1      -5.917  50.497  18.417  1.00  0.00    -0.273 OA
HETATM   19  N3  UNL     1      -5.302  49.721  16.277  1.00  0.00    -0.360 N
ATOM     20  H3  UNL     1      -4.777  49.025  15.747  1.00  0.00     0.162 HD
BRANCH  19  21
HETATM   21  C11 UNL     1      -6.034  50.738  15.566  1.00  0.00     0.130 C
BRANCH  21  22
HETATM   22  C12 UNL     1      -7.036  50.219  14.587  1.00  0.00     0.105 C
BRANCH  22  23
HETATM   23  C13 UNL     1      -8.031  49.296  15.196  1.00  0.00     0.136 C
HETATM   24  N4  UNL     1      -9.253  49.565  15.392  1.00  0.00    -0.251 N
ATOM     25  H4  UNL     1      -9.633  50.475  15.129  1.00  0.00     0.196 HD
BRANCH  23  26
HETATM   26  O4  UNL     1      -7.532  48.035  15.567  1.00  0.00    -0.348 OA
ATOM     27  H4  UNL     1      -7.083  48.007  16.405  1.00  0.00     0.219 HD
ENDBRANCH  23  26
BRANCH  24  28
HETATM   28  O5  UNL     1     -10.068  48.598  15.972  1.00  0.00    -0.288 OA
ATOM     29  H5  UNL     1     -10.366  48.726  16.864  1.00  0.00     0.244 HD
ENDBRANCH  24  28
ENDBRANCH  22  23
ENDBRANCH  21  22
ENDBRANCH  19  21
ENDBRANCH  16  17
ENDBRANCH  15  16
ENDBRANCH   9  15
BRANCH   1  30
HETATM   30  C3  UNL     1     -11.169  50.392  20.162  1.00  0.00     0.253 C
HETATM   31  N1  UNL     1     -12.034  49.978  19.147  1.00  0.00    -0.343 N
ATOM     32  H1  UNL     1     -12.053  48.971  18.987  1.00  0.00     0.163 HD
HETATM   33  O1  UNL     1     -11.048  51.602  20.451  1.00  0.00    -0.268 OA
BRANCH  31  34
HETATM   34  C2  UNL     1     -12.889  50.732  18.303  1.00  0.00     0.180 C
HETATM   35  C1  UNL     1     -14.019  49.925  17.738  1.00  0.00     0.043 C
BRANCH  34  36
HETATM   36  C16 UNL     1     -12.158  51.330  17.157  1.00  0.00     0.282 C
HETATM   37  O7  UNL     1     -11.533  52.395  17.205  1.00  0.00    -0.263 OA
BRANCH  36  38
HETATM   38  O8  UNL     1     -12.182  50.632  15.942  1.00  0.00    -0.310 OA
BRANCH  38  39
HETATM   39  C17 UNL     1     -12.730  51.133  14.751  1.00  0.00     0.060 C
HETATM   40  C18 UNL     1     -13.315  49.937  14.000  1.00  0.00     0.045 C
HETATM   41  C19 UNL     1     -13.741  52.209  14.987  1.00  0.00     0.045 C
HETATM   42  C20 UNL     1     -11.633  51.668  13.828  1.00  0.00     0.045 C
ENDBRANCH  38  39
ENDBRANCH  36  38
ENDBRANCH  34  36
ENDBRANCH  31  34
ENDBRANCH   1  30
TORSDOF 13
ENDMDL