MODEL 3
REMARK VINA RESULT: -7.010395765      1.812      2.080
REMARK  13 active torsions:
REMARK  status: ('A' for Active; 'I' for Inactive)
REMARK    1  A    between atoms: C4_6  and  C5_7
REMARK    2  A    between atoms: C5_7  and  N2_8
REMARK    3  A    between atoms: N2_8  and  C6_11
REMARK    4  A    between atoms: C6_11  and  C7_12
REMARK    5  A    between atoms: C7_12  and  C8_13
REMARK    6  A    between atoms: C8_13  and  N3_14
REMARK    7  A    between atoms: N3_14  and  C9_16
REMARK    8  A    between atoms: C10_19  and  C11_20
REMARK    9  A    between atoms: C13_22  and  O1_23
REMARK   10  A    between atoms: C15_25  and  C16_26
REMARK   11  A    between atoms: C18_30  and  C19_31
REMARK   12  A    between atoms: C19_31  and  O3_33
REMARK   13  A    between atoms: C23_41  and  N7_42
ROOT
HETATM    1  C9  UNL     1      -8.237  48.566  17.349  1.00  0.00     0.146 A
HETATM    2  N4  UNL     1      -8.706  48.458  18.621  1.00  0.00    -0.337 N
ATOM      3  H4  UNL     1      -9.646  48.794  18.835  1.00  0.00     0.167 HD
HETATM    4  C10 UNL     1      -7.971  47.926  19.591  1.00  0.00     0.073 A
HETATM    5  C21 UNL     1      -6.709  47.475  19.303  1.00  0.00     0.035 A
HETATM    6  C22 UNL     1      -5.819  46.872  20.300  1.00  0.00     0.070 C
HETATM    7  N6  UNL     1      -6.221  47.577  18.022  1.00  0.00    -0.342 N
ATOM      8  H6  UNL     1      -5.281  47.240  17.812  1.00  0.00     0.167 HD
HETATM    9  C23 UNL     1      -6.962  48.112  17.047  1.00  0.00     0.144 A
ENDROOT
BRANCH   1  10
HETATM   10  N3  UNL     1      -8.920  49.072  16.394  1.00  0.00    -0.373 N
ATOM     11  H3  UNL     1      -8.442  49.305  15.523  1.00  0.00     0.161 HD
BRANCH  10  12
HETATM   12  C8  UNL     1     -10.325  49.325  16.490  1.00  0.00     0.123 C
BRANCH  12  13
HETATM   13  C7  UNL     1     -10.539  50.848  16.382  1.00  0.00     0.047 C
BRANCH  13  14
HETATM   14  C6  UNL     1     -10.660  51.412  17.769  1.00  0.00     0.234 C
BRANCH  14  15
HETATM   15  N2  UNL     1      -9.468  52.111  18.136  1.00  0.00    -0.070 N
ATOM     16  H22 UNL     1      -8.826  51.504  18.646  1.00  0.00     0.277 HD
ATOM     17  H21 UNL     1      -9.654  52.799  18.867  1.00  0.00     0.277 HD
BRANCH  15  18
HETATM   18  C5  UNL     1      -8.816  52.723  16.989  1.00  0.00     0.291 C
BRANCH  18  19
HETATM   19  C4  UNL     1      -7.355  52.750  17.272  1.00  0.00     0.066 A
HETATM   20  C3  UNL     1      -6.606  53.987  17.452  1.00  0.00     0.118 A
HETATM   21  N1  UNL     1      -5.327  53.997  17.698  1.00  0.00    -0.350 N
HETATM   22  C2  UNL     1      -4.597  52.788  17.802  1.00  0.00     0.110 A
ATOM     23  H1  UNL     1      -4.844  54.888  17.818  1.00  0.00     0.166 HD
HETATM   24  C1  UNL     1      -3.315  52.846  18.049  1.00  0.00     0.065 C
HETATM   25  N9  UNL     1      -5.320  51.582  17.628  1.00  0.00    -0.286 N
HETATM   26  N8  UNL     1      -6.684  51.641  17.368  1.00  0.00    -0.300 N
ATOM     27  H9  UNL     1      -4.846  50.682  17.693  1.00  0.00     0.188 HD
ATOM     28  H8  UNL     1      -7.187  50.763  17.244  1.00  0.00     0.186 HD
ENDBRANCH  18  19
ENDBRANCH  15  18
ENDBRANCH  14  15
ENDBRANCH  13  14
ENDBRANCH  12  13
ENDBRANCH  10  12
ENDBRANCH   1  10
BRANCH   9  29
HETATM   29  N7  UNL     1      -6.523  48.222  15.820  1.00  0.00    -0.382 N
ATOM     30  H72 UNL     1      -6.629  49.081  15.280  1.00  0.00     0.157 HD
ATOM     31  H71 UNL     1      -6.058  47.424  15.387  1.00  0.00     0.157 HD
ENDBRANCH   9  29
BRANCH   4  32
HETATM   32  C11 UNL     1      -8.521  47.831  20.945  1.00  0.00     0.037 A
HETATM   33  C12 UNL     1      -8.616  48.842  21.878  1.00  0.00     0.059 A
HETATM   34  C13 UNL     1      -9.152  48.548  23.063  1.00  0.00     0.091 A
HETATM   35  C15 UNL     1      -9.571  47.251  23.266  1.00  0.00     0.090 A
HETATM   36  S1  UNL     1      -9.193  46.504  21.783  1.00  0.00    -0.081 SA
BRANCH  34  37
HETATM   37  O1  UNL     1      -9.323  49.470  24.132  1.00  0.00    -0.354 OA
HETATM   38  C14 UNL     1     -10.492  50.239  24.166  1.00  0.00     0.210 C
ENDBRANCH  34  37
BRANCH  35  39
HETATM   39  C16 UNL     1     -10.185  46.649  24.446  1.00  0.00     0.168 A
HETATM   40  N5  UNL     1      -9.978  46.994  25.713  1.00  0.00    -0.343 N
HETATM   41  C17 UNL     1     -10.726  46.205  26.514  1.00  0.00     0.134 A
ATOM     42  H5  UNL     1      -9.355  47.737  26.029  1.00  0.00     0.167 HD
HETATM   43  C18 UNL     1     -11.401  45.355  25.658  1.00  0.00     0.168 A
HETATM   44  O4  UNL     1     -11.042  45.663  24.442  1.00  0.00    -0.285 OA
BRANCH  43  45
HETATM   45  C19 UNL     1     -12.337  44.312  26.024  1.00  0.00     0.318 C
HETATM   46  O2  UNL     1     -12.899  44.364  27.146  1.00  0.00    -0.257 OA
BRANCH  45  47
HETATM   47  O3  UNL     1     -12.655  43.250  25.208  1.00  0.00    -0.321 OA
HETATM   48  C20 UNL     1     -12.605  41.892  25.623  1.00  0.00     0.213 C
ENDBRANCH  45  47
ENDBRANCH  43  45
ENDBRANCH  35  39
ENDBRANCH   4  32
TORSDOF 13
ENDMDL