MODEL 4
REMARK VINA RESULT: -6.161947018      4.301     10.156
REMARK  15 active torsions:
REMARK  status: ('A' for Active; 'I' for Inactive)
REMARK    1  A    between atoms: O1_2  and  C2_3
REMARK    2  A    between atoms: C2_3  and  C3_5
REMARK    3  A    between atoms: C3_5  and  N1_7
REMARK    4  A    between atoms: N1_7  and  C5_9
REMARK    5  A    between atoms: C6_12  and  N3_13
REMARK    6  A    between atoms: C8_21  and  N6_22
REMARK    7  A    between atoms: N6_22  and  C9_24
REMARK    8  A    between atoms: C9_24  and  C10_26
REMARK    9  A    between atoms: C10_26  and  C11_27
REMARK   10  A    between atoms: C11_27  and  C12_28
REMARK   11  A    between atoms: C12_28  and  C13_29
REMARK   12  A    between atoms: C14_32  and  C15_33
REMARK   13  A    between atoms: C15_33  and  O3_34
REMARK   14  A    between atoms: C15_33  and  O4_36
REMARK   15  A    between atoms: O4_36  and  C16_37
ROOT
HETATM    1  C5  UNL     1      -7.786  47.958  19.308  1.00  0.00     0.714 A
HETATM    2  N2  UNL     1      -6.933  47.469  18.398  1.00  0.00    -0.021 N
ATOM      3  H2  UNL     1      -6.900  47.842  17.449  1.00  0.00     0.203 HD
HETATM    4  C6  UNL     1      -6.121  46.467  18.784  1.00  0.00     0.705 A
HETATM    5  N4  UNL     1      -6.153  45.969  20.019  1.00  0.00    -0.021 N
ATOM      6  H4  UNL     1      -5.523  45.209  20.275  1.00  0.00     0.203 HD
HETATM    7  C7  UNL     1      -7.021  46.469  20.942  1.00  0.00     0.719 A
HETATM    8  N5  UNL     1      -7.268  46.175  22.221  1.00  0.00    -0.174 N
ATOM      9  H5  UNL     1      -6.790  45.453  22.759  1.00  0.00     0.186 HD
HETATM   10  C8  UNL     1      -8.263  46.993  22.706  1.00  0.00     0.139 A
HETATM   11  C21 UNL     1      -8.599  47.788  21.658  1.00  0.00     0.183 A
HETATM   12  N8  UNL     1      -7.832  47.463  20.572  1.00  0.00     0.017 N
ENDROOT
BRANCH  10  13
HETATM   13  N6  UNL     1      -8.741  46.918  24.026  1.00  0.00    -0.335 N
ATOM     14  H6  UNL     1      -8.228  46.287  24.642  1.00  0.00     0.168 HD
BRANCH  13  15
HETATM   15  C9  UNL     1      -9.817  47.585  24.615  1.00  0.00     0.079 C
HETATM   16  S1  UNL     1      -9.896  49.194  24.680  1.00  0.00    -0.065 SA
BRANCH  15  17
HETATM   17  C10 UNL     1     -10.954  46.797  25.217  1.00  0.00     0.070 C
BRANCH  17  18
HETATM   18  C11 UNL     1     -10.471  45.937  26.338  1.00  0.00     0.013 C
BRANCH  18  19
HETATM   19  C12 UNL     1      -9.830  46.638  27.478  1.00  0.00     0.065 C
BRANCH  19  20
HETATM   20  C13 UNL     1      -8.793  45.822  28.159  1.00  0.00     0.051 A
HETATM   21  N7  UNL     1      -8.009  44.916  27.577  1.00  0.00    -0.353 N
HETATM   22  C14 UNL     1      -7.129  44.285  28.272  1.00  0.00     0.071 A
ATOM     23  H7  UNL     1      -8.107  44.721  26.580  1.00  0.00     0.166 HD
HETATM   24  C20 UNL     1      -7.031  44.578  29.609  1.00  0.00     0.081 A
HETATM   25  S2  UNL     1      -8.250  45.775  29.775  1.00  0.00    -0.086 SA
BRANCH  22  26
HETATM   26  C15 UNL     1      -6.207  43.247  27.656  1.00  0.00     0.309 C
BRANCH  26  27
HETATM   27  O3  UNL     1      -6.841  42.864  26.455  1.00  0.00    -0.366 OA
ATOM     28  H3  UNL     1      -6.735  41.921  26.411  1.00  0.00     0.213 HD
ENDBRANCH  26  27
BRANCH  26  29
HETATM   29  O4  UNL     1      -6.150  42.218  28.560  1.00  0.00    -0.346 OA
BRANCH  29  30
HETATM   30  C16 UNL     1      -4.966  41.589  28.712  1.00  0.00     0.053 C
HETATM   31  C17 UNL     1      -3.795  42.515  28.464  1.00  0.00     0.045 C
HETATM   32  C18 UNL     1      -4.857  41.153  30.179  1.00  0.00     0.045 C
HETATM   33  C19 UNL     1      -4.771  40.352  27.886  1.00  0.00     0.045 C
ENDBRANCH  29  30
ENDBRANCH  26  29
ENDBRANCH  22  26
ENDBRANCH  19  20
ENDBRANCH  18  19
ENDBRANCH  17  18
ENDBRANCH  15  17
ENDBRANCH  13  15
ENDBRANCH  10  13
BRANCH   1  34
HETATM   34  N1  UNL     1      -8.587  48.904  19.027  1.00  0.00    -0.211 N
ATOM     35  H1  UNL     1      -8.586  49.732  19.622  1.00  0.00     0.178 HD
BRANCH  34  36
HETATM   36  C3  UNL     1      -9.492  48.865  17.915  1.00  0.00     0.195 C
HETATM   37  C4  UNL     1     -10.716  49.722  18.195  1.00  0.00     0.043 C
BRANCH  36  38
HETATM   38  C2  UNL     1      -8.800  49.315  16.680  1.00  0.00     0.281 C
HETATM   39  O2  UNL     1      -8.803  50.536  16.393  1.00  0.00    -0.263 OA
BRANCH  38  40
HETATM   40  O1  UNL     1      -8.154  48.408  15.845  1.00  0.00    -0.325 OA
HETATM   41  C1  UNL     1      -6.987  48.832  15.164  1.00  0.00     0.213 C
ENDBRANCH  38  40
ENDBRANCH  36  38
ENDBRANCH  34  36
ENDBRANCH   1  34
BRANCH   4  42
HETATM   42  N3  UNL     1      -5.306  46.019  17.868  1.00  0.00    -0.234 N
ATOM     43  H32 UNL     1      -5.082  46.551  17.027  1.00  0.00     0.174 HD
ATOM     44  H31 UNL     1      -4.905  45.099  18.049  1.00  0.00     0.174 HD
ENDBRANCH   4  42
TORSDOF 15
ENDMDL