MODEL 1
REMARK VINA RESULT: -7.715529131      0.000      0.000
REMARK  10 active torsions:
REMARK  status: ('A' for Active; 'I' for Inactive)
REMARK    1  A    between atoms: C2_2  and  C3_3
REMARK    2  A    between atoms: C3_3  and  C4_4
REMARK    3  A    between atoms: C5_9  and  N3_10
REMARK    4  A    between atoms: N3_10  and  C7_12
REMARK    5  A    between atoms: C7_12  and  C8_13
REMARK    6  A    between atoms: C8_13  and  C9_14
REMARK    7  A    between atoms: C9_14  and  C10_15
REMARK    8  A    between atoms: C10_15  and  C11_16
REMARK    9  A    between atoms: C18_34  and  O2_35
REMARK   10  A    between atoms: C19_37  and  C20_38
ROOT
HETATM    1  C4  UNL     1      -9.913  47.639  24.705  1.00  0.00     0.042 A
HETATM    2  N1  UNL     1      -8.852  46.846  24.353  1.00  0.00    -0.302 N
ATOM      3  H1  UNL     1      -8.475  46.203  25.049  1.00  0.00     0.186 HD
HETATM    4  N2  UNL     1      -8.319  46.871  23.209  1.00  0.00    -0.285 N
ATOM      5  H2  UNL     1      -7.533  46.243  23.035  1.00  0.00     0.188 HD
HETATM    6  C5  UNL     1      -8.740  47.714  22.150  1.00  0.00     0.130 A
HETATM    7  C12 UNL     1      -9.751  48.520  22.443  1.00  0.00     0.043 A
HETATM    8  C13 UNL     1     -10.357  48.473  23.747  1.00  0.00     0.071 A
HETATM    9  C14 UNL     1     -11.467  49.237  23.967  1.00  0.00     0.259 A
HETATM   10  O1  UNL     1     -12.038  49.241  25.071  1.00  0.00    -0.267 OA
HETATM   11  N8  UNL     1     -11.983  50.012  23.021  1.00  0.00    -0.321 N
ATOM     12  H8  UNL     1     -12.819  50.557  23.228  1.00  0.00     0.169 HD
HETATM   13  C15 UNL     1     -11.429  50.096  21.794  1.00  0.00     0.059 A
HETATM   14  C16 UNL     1     -11.934  50.986  20.902  1.00  0.00     0.000 A
HETATM   15  C17 UNL     1     -13.152  51.739  21.247  1.00  0.00     0.054 C
HETATM   16  C18 UNL     1     -11.308  51.169  19.701  1.00  0.00     0.091 A
HETATM   17  C19 UNL     1     -10.183  50.472  19.396  1.00  0.00     0.092 A
HETATM   18  C24 UNL     1      -9.643  49.542  20.301  1.00  0.00     0.202 A
HETATM   19  O3  UNL     1      -8.544  49.024  19.844  1.00  0.00    -0.286 OA
HETATM   20  C25 UNL     1     -10.289  49.353  21.483  1.00  0.00     0.058 A
ENDROOT
BRANCH   6  21
HETATM   21  N3  UNL     1      -8.183  47.185  21.014  1.00  0.00    -0.370 N
HETATM   22  C6  UNL     1      -8.742  46.178  20.087  1.00  0.00     0.151 C
BRANCH  21  23
HETATM   23  C7  UNL     1      -6.718  47.354  20.804  1.00  0.00     0.124 C
BRANCH  23  24
HETATM   24  C8  UNL     1      -6.259  46.367  19.805  1.00  0.00     0.020 C
BRANCH  24  25
HETATM   25  C9  UNL     1      -5.258  47.131  18.918  1.00  0.00     0.009 C
BRANCH  25  26
HETATM   26  C10 UNL     1      -5.774  48.476  18.560  1.00  0.00     0.079 C
BRANCH  26  27
HETATM   27  C11 UNL     1      -5.943  48.575  17.088  1.00  0.00     0.112 A
HETATM   28  N4  UNL     1      -6.822  48.004  16.275  1.00  0.00    -0.272 N
HETATM   29  N5  UNL     1      -6.553  48.407  15.049  1.00  0.00    -0.227 N
ATOM     30  H4  UNL     1      -7.570  47.368  16.549  1.00  0.00     0.190 HD
HETATM   31  N6  UNL     1      -5.534  49.216  15.056  1.00  0.00    -0.227 N
ATOM     32  H5  UNL     1      -7.069  48.126  14.215  1.00  0.00     0.210 HD
HETATM   33  N7  UNL     1      -5.138  49.335  16.309  1.00  0.00    -0.272 N
ATOM     34  H6  UNL     1      -5.118  49.672  14.244  1.00  0.00     0.210 HD
ATOM     35  H7  UNL     1      -4.356  49.904  16.635  1.00  0.00     0.190 HD
ENDBRANCH  26  27
ENDBRANCH  25  26
ENDBRANCH  24  25
ENDBRANCH  23  24
ENDBRANCH  21  23
ENDBRANCH   6  21
BRANCH   1  36
HETATM   36  C3  UNL     1     -10.514  47.460  26.017  1.00  0.00     0.059 C
BRANCH  36  37
HETATM   37  C2  UNL     1     -10.973  46.059  26.355  1.00  0.00     0.002 C
HETATM   38  C1  UNL     1     -12.119  45.649  25.395  1.00  0.00     0.005 C
ENDBRANCH  36  37
ENDBRANCH   1  36
BRANCH  17  39
HETATM   39  C20 UNL     1      -9.509  50.663  18.114  1.00  0.00     0.114 C
HETATM   40  N9  UNL     1      -8.604  51.489  17.888  1.00  0.00    -0.376 N
HETATM   41  C21 UNL     1      -7.938  51.687  16.649  1.00  0.00     0.123 C
ATOM     42  H9  UNL     1      -8.313  52.080  18.667  1.00  0.00     0.161 HD
HETATM   43  C22 UNL     1      -8.607  51.112  15.454  1.00  0.00     0.039 C
HETATM   44  C23 UNL     1      -9.867  50.355  15.691  1.00  0.00     0.123 C
HETATM   45  N10 UNL     1      -9.965  49.832  17.037  1.00  0.00    -0.376 N
ATOM     46  H10 UNL     1     -10.346  48.903  17.214  1.00  0.00     0.161 HD
ENDBRANCH  17  39
BRANCH  16  47
HETATM   47  O2  UNL     1     -11.839  52.076  18.795  1.00  0.00    -0.359 OA
ATOM     48  H2  UNL     1     -11.376  52.242  17.982  1.00  0.00     0.217 HD
ENDBRANCH  16  47
TORSDOF 10
ENDMDL