MODEL 1
REMARK VINA RESULT: -7.643886626      0.000      0.000
REMARK  9 active torsions:
REMARK  status: ('A' for Active; 'I' for Inactive)
REMARK    1  A    between atoms: C2_2  and  C4_4
REMARK    2  A    between atoms: C4_4  and  N1_5
REMARK    3  A    between atoms: C6_7  and  C7_8
REMARK    4  A    between atoms: N3_13  and  C10_15
REMARK    5  A    between atoms: C12_17  and  C13_18
REMARK       I    between atoms: C13_18  and  N4_20
REMARK    6  A    between atoms: N4_20  and  C14_22
REMARK    7  A    between atoms: C14_22  and  C15_23
REMARK    8  A    between atoms: C15_23  and  C16_24
REMARK    9  A    between atoms: C18_30  and  C19_31
ROOT
HETATM    1  C7  UNL     1      -9.203  48.011  21.197  1.00  0.00     0.010 A
HETATM    2  C8  UNL     1      -9.211  46.843  21.918  1.00  0.00     0.103 A
HETATM    3  N2  UNL     1      -9.927  46.731  23.069  1.00  0.00    -0.351 N
ATOM      4  H2  UNL     1      -9.914  45.851  23.584  1.00  0.00     0.166 HD
HETATM    5  C9  UNL     1     -10.652  47.763  23.538  1.00  0.00     0.120 A
HETATM    6  N3  UNL     1     -11.323  47.646  24.624  1.00  0.00    -0.327 N
ATOM      7  H3  UNL     1     -11.867  48.438  24.966  1.00  0.00     0.169 HD
HETATM    8  C18 UNL     1     -10.675  48.946  22.855  1.00  0.00     0.054 A
HETATM    9  C24 UNL     1      -9.942  49.074  21.669  1.00  0.00     0.034 A
ENDROOT
BRANCH   8  10
HETATM   10  C19 UNL     1     -11.464  50.054  23.378  1.00  0.00     0.134 A
HETATM   11  N7  UNL     1     -12.744  50.160  22.904  1.00  0.00    -0.283 N
HETATM   12  N8  UNL     1     -13.587  51.097  23.271  1.00  0.00    -0.282 N
ATOM     13  H7  UNL     1     -13.062  49.470  22.224  1.00  0.00     0.188 HD
HETATM   14  C20 UNL     1     -13.142  52.014  24.181  1.00  0.00     0.152 A
ATOM     15  H8  UNL     1     -14.534  51.139  22.892  1.00  0.00     0.188 HD
HETATM   16  N9  UNL     1     -13.953  53.002  24.602  1.00  0.00    -0.336 N
HETATM   17  C23 UNL     1     -11.857  51.925  24.671  1.00  0.00     0.123 A
HETATM   18  C21 UNL     1     -13.532  53.911  25.496  1.00  0.00     0.183 A
ATOM     19  H9  UNL     1     -14.903  53.062  24.235  1.00  0.00     0.168 HD
HETATM   20  N10 UNL     1     -12.284  53.826  25.972  1.00  0.00    -0.337 N
HETATM   21  C22 UNL     1     -11.426  52.867  25.596  1.00  0.00     0.131 A
ATOM     22  H10 UNL     1     -11.972  54.520  26.651  1.00  0.00     0.168 HD
HETATM   23  N11 UNL     1     -10.223  52.802  26.070  1.00  0.00    -0.383 N
ATOM     24 2H11 UNL     1      -9.906  53.494  26.749  1.00  0.00     0.157 HD
ATOM     25 1H11 UNL     1      -9.570  52.073  25.784  1.00  0.00     0.157 HD
HETATM   26  N12 UNL     1     -11.000  50.935  24.270  1.00  0.00    -0.335 N
ATOM     27  H12 UNL     1     -10.050  50.873  24.636  1.00  0.00     0.168 HD
ENDBRANCH   8  10
BRANCH   6  28
HETATM   28  C10 UNL     1     -11.319  46.435  25.354  1.00  0.00     0.123 A
HETATM   29  C11 UNL     1     -12.167  45.361  25.205  1.00  0.00     0.086 A
HETATM   30  C12 UNL     1     -11.815  44.375  26.125  1.00  0.00     0.119 A
HETATM   31  N5  UNL     1     -10.767  44.886  26.799  1.00  0.00    -0.294 N
HETATM   32  N6  UNL     1     -10.478  46.097  26.343  1.00  0.00    -0.285 N
ATOM     33  H5  UNL     1     -10.269  44.411  27.551  1.00  0.00     0.187 HD
ATOM     34  H6  UNL     1      -9.723  46.687  26.694  1.00  0.00     0.188 HD
BRANCH  30  35
HETATM   35  C13 UNL     1     -12.415  43.086  26.337  1.00  0.00     0.269 C
HETATM   36  O1  UNL     1     -12.769  42.756  27.496  1.00  0.00    -0.266 OA
HETATM   37  N4  UNL     1     -12.639  42.141  25.290  1.00  0.00    -0.356 N
ATOM     38  H4  UNL     1     -12.354  42.401  24.346  1.00  0.00     0.162 HD
BRANCH  37  39
HETATM   39  C14 UNL     1     -13.229  40.867  25.473  1.00  0.00     0.123 C
BRANCH  39  40
HETATM   40  C15 UNL     1     -13.136  39.909  24.338  1.00  0.00     0.019 C
BRANCH  40  41
HETATM   41  C16 UNL     1     -11.758  39.698  23.820  1.00  0.00    -0.003 C
HETATM   42  C17 UNL     1     -11.647  38.929  22.539  1.00  0.00     0.005 C
ENDBRANCH  40  41
ENDBRANCH  39  40
ENDBRANCH  37  39
ENDBRANCH  30  35
ENDBRANCH   6  28
BRANCH   1  43
HETATM   43  C6  UNL     1      -8.419  48.075  19.974  1.00  0.00     0.078 A
HETATM   44  C5  UNL     1      -7.063  48.291  19.880  1.00  0.00     0.143 A
HETATM   45  N1  UNL     1      -6.729  48.278  18.581  1.00  0.00    -0.283 N
HETATM   46  N14 UNL     1      -7.821  48.063  17.896  1.00  0.00    -0.240 N
HETATM   47  N13 UNL     1      -8.860  47.936  18.696  1.00  0.00    -0.284 N
ATOM     48  H14 UNL     1      -7.863  48.003  16.879  1.00  0.00     0.208 HD
ATOM     49  H13 UNL     1      -9.823  47.764  18.407  1.00  0.00     0.188 HD
BRANCH  45  50
HETATM   50  C4  UNL     1      -5.367  48.475  18.118  1.00  0.00     0.182 C
BRANCH  50  51
HETATM   51  C2  UNL     1      -5.190  49.772  17.447  1.00  0.00    -0.073 C
HETATM   52  C1  UNL     1      -4.777  50.826  18.126  1.00  0.00     0.015 C
HETATM   53  C3  UNL     1      -5.475  49.909  15.985  1.00  0.00     0.044 C
ENDBRANCH  50  51
ENDBRANCH  45  50
ENDBRANCH   1  43
TORSDOF 9
ENDMDL