MODEL 1
REMARK VINA RESULT: -7.731368202      0.000      0.000
REMARK  11 active torsions:
REMARK  status: ('A' for Active; 'I' for Inactive)
REMARK    1  A    between atoms: C2_2  and  O1_3
REMARK    2  A    between atoms: C2_2  and  O2_5
REMARK    3  A    between atoms: O2_5  and  N1_6
REMARK       I    between atoms: N1_6  and  C3_8
REMARK       I    between atoms: C3_8  and  N4_13
REMARK    4  A    between atoms: N4_13  and  C5_15
REMARK    5  A    between atoms: C5_15  and  C6_16
REMARK    6  A    between atoms: C7_19  and  C8_20
REMARK    7  A    between atoms: C8_20  and  C9_21
REMARK    8  A    between atoms: C9_21  and  C10_22
REMARK    9  A    between atoms: C10_22  and  S1_23
REMARK   10  A    between atoms: S1_23  and  C11_24
REMARK   11  A    between atoms: N8_41  and  N9_42
ROOT
HETATM    1  N1  UNL     1     -13.381  50.348  17.083  1.00  0.00    -0.093 N
ATOM      2  H1  UNL     1     -13.182  50.932  16.271  1.00  0.00     0.213 HD
HETATM    3  C3  UNL     1     -12.278  49.865  17.850  1.00  0.00     0.707 C
HETATM    4  N2  UNL     1     -11.279  49.286  17.287  1.00  0.00    -0.124 N
ATOM      5  H2  UNL     1     -10.527  48.967  17.897  1.00  0.00     0.197 HD
HETATM    6  C4  UNL     1     -11.129  49.058  15.936  1.00  0.00     0.196 C
HETATM    7  N3  UNL     1     -10.988  48.857  14.810  1.00  0.00    -0.171 NA
HETATM    8  N4  UNL     1     -12.277  50.019  19.259  1.00  0.00    -0.217 N
ATOM      9  H4  UNL     1     -13.092  49.672  19.765  1.00  0.00     0.178 HD
ENDROOT
BRANCH   1  10
HETATM   10  O2  UNL     1     -14.671  50.077  17.369  1.00  0.00    -0.234 OA
BRANCH  10  11
HETATM   11  C2  UNL     1     -15.127  49.084  16.534  1.00  0.00     0.282 C
HETATM   12  C1  UNL     1     -16.657  49.048  16.454  1.00  0.00     0.073 C
BRANCH  11  13
HETATM   13  O1  UNL     1     -14.686  47.833  17.021  1.00  0.00    -0.369 OA
ATOM     14  H1  UNL     1     -13.822  47.667  16.663  1.00  0.00     0.212 HD
ENDBRANCH  11  13
ENDBRANCH  10  11
ENDBRANCH   1  10
BRANCH   8  15
HETATM   15  C5  UNL     1     -11.230  50.620  20.034  1.00  0.00     0.216 C
BRANCH  15  16
HETATM   16  C6  UNL     1     -10.786  49.691  21.109  1.00  0.00     0.121 A
HETATM   17  N5  UNL     1     -10.081  48.588  20.899  1.00  0.00    -0.345 N
HETATM   18  C7  UNL     1      -9.824  47.968  22.069  1.00  0.00     0.028 A
ATOM     19  H5  UNL     1      -9.777  48.255  19.984  1.00  0.00     0.167 HD
HETATM   20  C21 UNL     1     -10.400  48.728  23.040  1.00  0.00     0.142 A
HETATM   21  N8  UNL     1     -10.989  49.786  22.432  1.00  0.00    -0.258 N
BRANCH  18  22
HETATM   22  C8  UNL     1      -9.096  46.719  22.208  1.00  0.00     0.059 C
BRANCH  22  23
HETATM   23  C9  UNL     1      -7.673  46.720  21.780  1.00  0.00     0.017 C
BRANCH  23  24
HETATM   24  C10 UNL     1      -7.421  46.260  20.376  1.00  0.00     0.082 C
BRANCH  24  25
HETATM   25  S1  UNL     1      -5.785  46.891  19.869  1.00  0.00    -0.094 SA
BRANCH  25  26
HETATM   26  C11 UNL     1      -6.011  48.010  18.501  1.00  0.00     0.147 A
HETATM   27  N6  UNL     1      -6.809  47.805  17.469  1.00  0.00    -0.303 N
HETATM   28  C12 UNL     1      -6.963  48.653  16.444  1.00  0.00     0.261 A
ATOM     29  H6  UNL     1      -7.346  46.938  17.451  1.00  0.00     0.171 HD
HETATM   30  O3  UNL     1      -7.764  48.323  15.522  1.00  0.00    -0.267 OA
HETATM   31  C13 UNL     1      -6.246  49.870  16.414  1.00  0.00     0.073 A
HETATM   32  C14 UNL     1      -6.265  50.849  15.467  1.00  0.00    -0.026 A
HETATM   33  C16 UNL     1      -5.423  50.068  17.490  1.00  0.00     0.092 A
HETATM   34  C15 UNL     1      -5.463  51.935  15.679  1.00  0.00    -0.008 A
HETATM   35  C20 UNL     1      -7.078  50.910  14.175  1.00  0.00     0.041 C
HETATM   36  S2  UNL     1      -4.714  51.586  17.158  1.00  0.00    -0.075 SA
HETATM   37  C17 UNL     1      -5.323  53.111  14.782  1.00  0.00     0.047 C
HETATM   38  C18 UNL     1      -6.277  53.132  13.644  1.00  0.00     0.005 C
HETATM   39  C19 UNL     1      -7.514  52.349  13.972  1.00  0.00     0.005 C
HETATM   40  N7  UNL     1      -5.309  49.156  18.510  1.00  0.00    -0.330 N
ATOM     41  H7  UNL     1      -4.681  49.353  19.290  1.00  0.00     0.168 HD
ENDBRANCH  25  26
ENDBRANCH  24  25
ENDBRANCH  23  24
ENDBRANCH  22  23
ENDBRANCH  18  22
BRANCH  21  42
HETATM   42  N9  UNL     1     -11.693  50.819  23.073  1.00  0.00    -0.338 N
ATOM     43  H92 UNL     1     -11.590  51.817  22.892  1.00  0.00     0.177 HD
ATOM     44  H91 UNL     1     -12.398  50.690  23.799  1.00  0.00     0.177 HD
ENDBRANCH  21  42
ENDBRANCH  15  16
ENDBRANCH   8  15
TORSDOF 11
ENDMDL