MODEL 3
REMARK VINA RESULT: -7.259253613      1.623      1.975
REMARK  12 active torsions:
REMARK  status: ('A' for Active; 'I' for Inactive)
REMARK    1  A    between atoms: C4_4  and  S1_5
REMARK    2  A    between atoms: S1_5  and  C5_6
REMARK    3  A    between atoms: C5_6  and  C6_7
REMARK    4  A    between atoms: N2_11  and  C8_13
REMARK    5  A    between atoms: C13_23  and  S2_24
REMARK    6  A    between atoms: C15_30  and  N7_31
REMARK    7  A    between atoms: N9_37  and  C17_38
REMARK    8  A    between atoms: C17_38  and  C18_39
REMARK    9  A    between atoms: C18_39  and  C19_40
REMARK   10  A    between atoms: C19_40  and  C20_41
REMARK   11  A    between atoms: C20_41  and  C21_42
REMARK   12  A    between atoms: C21_42  and  O3_43
ROOT
HETATM    1  C8  UNL     1     -10.353  49.935  16.849  1.00  0.00     0.129 C
HETATM    2  C9  UNL     1     -10.389  51.313  16.287  1.00  0.00     0.055 C
HETATM    3  C10 UNL     1     -11.670  49.260  16.289  1.00  0.00     0.055 C
HETATM    4  C11 UNL     1      -9.273  49.137  16.154  1.00  0.00     0.090 C
HETATM    5  N3  UNL     1      -8.448  48.558  15.616  1.00  0.00    -0.195 NA
ENDROOT
BRANCH   1   6
HETATM    6  N2  UNL     1     -10.270  49.755  18.202  1.00  0.00    -0.205 N
HETATM    7  C7  UNL     1      -9.565  49.327  19.145  1.00  0.00     0.681 A
HETATM    8  N1  UNL     1      -8.334  48.792  19.049  1.00  0.00    -0.194 N
HETATM    9  N4  UNL     1     -10.206  49.088  20.344  1.00  0.00    -0.176 N
HETATM   10  C6  UNL     1      -7.681  48.069  19.925  1.00  0.00     0.054 A
ATOM     11  H1  UNL     1      -7.842  48.975  18.174  1.00  0.00     0.184 HD
HETATM   12  C16 UNL     1      -8.317  47.793  21.143  1.00  0.00     0.076 A
HETATM   13  C12 UNL     1      -9.630  48.368  21.284  1.00  0.00     0.139 A
HETATM   14  C15 UNL     1      -7.803  47.037  22.125  1.00  0.00     0.117 A
HETATM   15  N5  UNL     1     -10.222  48.063  22.441  1.00  0.00    -0.318 N
HETATM   16  C13 UNL     1      -9.716  47.304  23.412  1.00  0.00     0.205 A
ATOM     17  H5  UNL     1     -11.153  48.448  22.597  1.00  0.00     0.169 HD
HETATM   18  N6  UNL     1      -8.444  46.734  23.317  1.00  0.00    -0.319 N
ATOM     19  H6  UNL     1      -8.031  46.156  24.048  1.00  0.00     0.169 HD
ATOM     20  H4  UNL     1     -11.137  49.473  20.504  1.00  0.00     0.186 HD
ATOM     21  H2  UNL     1     -11.133  50.116  18.609  1.00  0.00     0.179 HD
BRANCH  10  22
HETATM   22  C5  UNL     1      -6.280  47.521  19.763  1.00  0.00     0.139 C
BRANCH  22  23
HETATM   23  S1  UNL     1      -5.693  47.731  18.088  1.00  0.00    -0.105 SA
BRANCH  23  24
HETATM   24  C4  UNL     1      -5.329  49.256  17.430  1.00  0.00     0.086 A
HETATM   25  C3  UNL     1      -4.707  50.273  18.194  1.00  0.00     0.064 A
HETATM   26  C2  UNL     1      -4.635  51.386  17.441  1.00  0.00     0.027 A
HETATM   27  C1  UNL     1      -4.064  52.703  17.877  1.00  0.00     0.070 C
HETATM   28  N9  UNL     1      -5.200  51.074  16.226  1.00  0.00    -0.296 N
HETATM   29  N8  UNL     1      -5.576  49.854  16.270  1.00  0.00    -0.292 N
ATOM     30  H8  UNL     1      -6.026  49.381  15.485  1.00  0.00     0.188 HD
BRANCH  28  31
HETATM   31  C17 UNL     1      -5.262  52.109  15.257  1.00  0.00     0.148 C
BRANCH  31  32
HETATM   32  C18 UNL     1      -6.607  52.116  14.513  1.00  0.00     0.022 C
BRANCH  32  33
HETATM   33  C19 UNL     1      -6.549  53.287  13.586  1.00  0.00     0.004 C
BRANCH  33  34
HETATM   34  C20 UNL     1      -5.268  54.055  13.545  1.00  0.00     0.026 C
BRANCH  34  35
HETATM   35  C21 UNL     1      -4.921  54.144  12.038  1.00  0.00     0.164 C
BRANCH  35  36
HETATM   36  O3  UNL     1      -3.557  54.165  11.841  1.00  0.00    -0.401 OA
ATOM     37  H3  UNL     1      -3.308  54.849  11.230  1.00  0.00     0.209 HD
ENDBRANCH  35  36
ENDBRANCH  34  35
ENDBRANCH  33  34
ENDBRANCH  32  33
ENDBRANCH  31  32
ENDBRANCH  28  31
ENDBRANCH  23  24
ENDBRANCH  22  23
ENDBRANCH  10  22
BRANCH  16  38
HETATM   38  S2  UNL     1     -10.666  46.883  24.787  1.00  0.00     0.203 S
HETATM   39  C14 UNL     1      -9.789  46.840  26.311  1.00  0.00     0.170 C
HETATM   40  O1  UNL     1     -11.327  45.568  24.550  1.00  0.00    -0.220 OA
HETATM   41  O2  UNL     1     -11.771  47.936  24.941  1.00  0.00    -0.220 OA
ENDBRANCH  16  38
BRANCH  14  42
HETATM   42  N7  UNL     1      -6.596  46.508  21.936  1.00  0.00    -0.385 N
ATOM     43  H72 UNL     1      -5.903  47.066  21.437  1.00  0.00     0.157 HD
ATOM     44  H71 UNL     1      -6.445  45.562  22.285  1.00  0.00     0.157 HD
ENDBRANCH  14  42
ENDBRANCH   1   6
TORSDOF 12
ENDMDL