MODEL 5
REMARK VINA RESULT: -6.482633321      1.038      2.251
REMARK  12 active torsions:
REMARK  status: ('A' for Active; 'I' for Inactive)
REMARK    1  A    between atoms: C2_2  and  C3_3
REMARK    2  A    between atoms: C3_3  and  C4_4
REMARK    3  A    between atoms: C4_4  and  O1_5
REMARK    4  A    between atoms: C4_4  and  C5_7
REMARK    5  A    between atoms: C5_7  and  C6_8
REMARK    6  A    between atoms: C5_7  and  S1_12
REMARK    7  A    between atoms: S1_12  and  C10_15
REMARK    8  A    between atoms: C11_18  and  C12_19
REMARK    9  A    between atoms: C12_19  and  C13_21
REMARK   10  A    between atoms: C13_21  and  S2_22
REMARK   11  A    between atoms: S2_22  and  C14_23
REMARK   12  A    between atoms: C17_28  and  O5_29
ROOT
HETATM    1  C10 UNL     1      -9.810  49.048  18.317  1.00  0.00     0.204 A
HETATM    2  N1  UNL     1      -8.848  48.108  18.336  1.00  0.00    -0.328 N
ATOM      3  H1  UNL     1      -8.462  47.639  17.517  1.00  0.00     0.168 HD
HETATM    4  C11 UNL     1      -8.478  47.888  19.601  1.00  0.00     0.103 A
HETATM    5  C21 UNL     1      -9.235  48.717  20.394  1.00  0.00     0.038 A
HETATM    6  C22 UNL     1      -9.173  48.823  21.894  1.00  0.00     0.070 C
HETATM    7  N6  UNL     1     -10.031  49.403  19.566  1.00  0.00    -0.335 N
ATOM      8  H6  UNL     1     -10.712  50.103  19.860  1.00  0.00     0.168 HD
ENDROOT
BRANCH   4   9
HETATM    9  C12 UNL     1      -7.461  46.948  20.091  1.00  0.00     0.187 C
HETATM   10  O4  UNL     1      -7.835  45.871  20.587  1.00  0.00    -0.290 OA
BRANCH   9  11
HETATM   11  C13 UNL     1      -6.013  47.254  20.006  1.00  0.00     0.166 C
BRANCH  11  12
HETATM   12  S2  UNL     1      -5.368  47.062  18.355  1.00  0.00    -0.102 SA
BRANCH  12  13
HETATM   13  C14 UNL     1      -5.423  48.580  17.465  1.00  0.00     0.106 A
HETATM   14  N2  UNL     1      -4.765  49.691  17.785  1.00  0.00    -0.334 N
HETATM   15  C15 UNL     1      -5.041  50.669  16.928  1.00  0.00     0.126 A
ATOM     16  H2  UNL     1      -4.133  49.779  18.581  1.00  0.00     0.168 HD
HETATM   17  C16 UNL     1      -5.942  50.148  15.991  1.00  0.00     0.088 A
HETATM   18  N5  UNL     1      -4.587  51.932  16.900  1.00  0.00    -0.333 N
HETATM   19  C17 UNL     1      -6.193  48.827  16.318  1.00  0.00     0.117 A
HETATM   20  C18 UNL     1      -6.362  51.020  14.996  1.00  0.00     0.116 A
HETATM   21  N3  UNL     1      -7.165  50.651  14.114  1.00  0.00    -0.385 N
HETATM   22  N4  UNL     1      -5.877  52.294  15.003  1.00  0.00    -0.338 N
ATOM     23  H32 UNL     1      -7.527  49.698  14.108  1.00  0.00     0.157 HD
ATOM     24  H31 UNL     1      -7.473  51.291  13.383  1.00  0.00     0.157 HD
HETATM   25  C19 UNL     1      -5.030  52.718  15.917  1.00  0.00     0.185 A
ATOM     26  H4  UNL     1      -6.181  52.941  14.276  1.00  0.00     0.168 HD
HETATM   27  C20 UNL     1      -3.664  52.398  17.894  1.00  0.00     0.158 C
BRANCH  19  28
HETATM   28  O5  UNL     1      -7.002  47.953  15.684  1.00  0.00    -0.357 OA
ATOM     29  H5  UNL     1      -7.926  48.067  15.494  1.00  0.00     0.217 HD
ENDBRANCH  19  28
ENDBRANCH  12  13
ENDBRANCH  11  12
ENDBRANCH   9  11
ENDBRANCH   4   9
BRANCH   1  30
HETATM   30  S1  UNL     1     -10.507  49.587  16.847  1.00  0.00     0.214 S
HETATM   31  O2  UNL     1      -9.424  49.635  15.757  1.00  0.00    -0.219 OA
HETATM   32  O3  UNL     1     -11.452  48.507  16.284  1.00  0.00    -0.219 OA
BRANCH  30  33
HETATM   33  C5  UNL     1     -11.358  51.088  16.844  1.00  0.00     0.152 C
BRANCH  33  34
HETATM   34  C4  UNL     1     -12.488  51.203  17.846  1.00  0.00     0.137 C
BRANCH  34  35
HETATM   35  C3  UNL     1     -13.289  49.932  17.994  1.00  0.00     0.033 C
BRANCH  35  36
HETATM   36  C2  UNL     1     -14.606  49.929  17.289  1.00  0.00    -0.002 C
HETATM   37  C1  UNL     1     -14.880  48.632  16.598  1.00  0.00     0.005 C
ENDBRANCH  35  36
ENDBRANCH  34  35
BRANCH  34  38
HETATM   38  O1  UNL     1     -11.981  51.499  19.118  1.00  0.00    -0.394 OA
ATOM     39  H1  UNL     1     -11.645  52.386  19.072  1.00  0.00     0.210 HD
ENDBRANCH  34  38
ENDBRANCH  33  34
BRANCH  33  40
HETATM   40  C6  UNL     1     -11.665  51.742  15.540  1.00  0.00    -0.032 C
HETATM   41  C7  UNL     1     -10.442  52.478  15.029  1.00  0.00     0.016 C
HETATM   42  C8  UNL     1     -12.682  52.871  15.821  1.00  0.00     0.016 C
HETATM   43  C9  UNL     1     -12.259  50.931  14.465  1.00  0.00     0.016 C
ENDBRANCH  33  40
ENDBRANCH  30  33
ENDBRANCH   1  30
TORSDOF 12
ENDMDL