MODEL 4
REMARK VINA RESULT: -6.444578718      2.820      3.805
REMARK  2 active torsions:
REMARK  status: ('A' for Active; 'I' for Inactive)
REMARK       I    between atoms: C2_2  and  N1_4
REMARK    1  A    between atoms: C3_6  and  C4_7
REMARK    2  A    between atoms: N2_9  and  O2_11
ROOT
HETATM    1  C4  UNL     1      71.609  49.565   9.949  1.00  0.00     0.079 C
HETATM    2  C5  UNL     1      72.722  48.765  10.524  1.00  0.00     0.020 C
HETATM    3  N2  UNL     1      72.533  48.087  11.600  1.00  0.00    -0.277 N
ATOM      4  H2  UNL     1      71.622  48.099  12.058  1.00  0.00     0.193 HD
HETATM    5  C6  UNL     1      74.044  48.750   9.858  1.00  0.00     0.064 C
HETATM    6  C7  UNL     1      73.884  48.268   8.417  1.00  0.00    -0.042 C
HETATM    7  C8  UNL     1      74.379  46.825   8.384  1.00  0.00     0.015 C
HETATM    8  C9  UNL     1      74.736  49.060   7.463  1.00  0.00     0.015 C
HETATM    9  C10 UNL     1      72.431  48.221   8.014  1.00  0.00     0.018 C
HETATM   10  C11 UNL     1      71.654  49.426   8.443  1.00  0.00    -0.034 C
HETATM   11  C12 UNL     1      72.174  50.708   7.865  1.00  0.00     0.016 C
HETATM   12  C13 UNL     1      70.237  49.237   7.882  1.00  0.00     0.016 C
ENDROOT
BRANCH   1  13
HETATM   13  C3  UNL     1      70.300  49.179  10.499  1.00  0.00     0.075 C
HETATM   14  N1  UNL     1      69.642  49.966  11.255  1.00  0.00    -0.340 N
HETATM   15  C2  UNL     1      70.119  51.255  11.617  1.00  0.00     0.217 C
ATOM     16  H1  UNL     1      68.738  49.658  11.614  1.00  0.00     0.167 HD
HETATM   17  C1  UNL     1      70.776  51.543  12.918  1.00  0.00     0.117 C
HETATM   18  O1  UNL     1      70.004  52.253  10.826  1.00  0.00    -0.274 OA
ENDBRANCH   1  13
BRANCH   3  19
HETATM   19  O2  UNL     1      73.556  47.351  12.130  1.00  0.00    -0.290 OA
ATOM     20  H2  UNL     1      74.025  47.672  12.891  1.00  0.00     0.244 HD
ENDBRANCH   3  19
TORSDOF 2
ENDMDL