MODEL 2
REMARK VINA RESULT: -7.063288035      1.980      4.171
REMARK  2 active torsions:
REMARK  status: ('A' for Active; 'I' for Inactive)
REMARK    1  A    between atoms: C5_5  and  C6_6
REMARK    2  A    between atoms: N1_7  and  O1_9
ROOT
HETATM    1  C1  UNL     1      71.768  47.944  10.539  1.00  0.00     0.043 C
HETATM    2  C2  UNL     1      71.000  49.177  10.210  1.00  0.00    -0.083 C
HETATM    3  C3  UNL     1      71.509  50.136   9.451  1.00  0.00    -0.023 C
HETATM    4  C4  UNL     1      70.813  51.380   9.082  1.00  0.00     0.043 C
HETATM    5  C5  UNL     1      69.519  51.586   9.810  1.00  0.00     0.005 C
HETATM    6  C7  UNL     1      68.397  51.157   8.854  1.00  0.00     0.035 C
HETATM    7  C8  UNL     1      68.589  49.721   8.498  1.00  0.00     0.094 C
HETATM    8  C9  UNL     1      67.403  49.301   7.719  1.00  0.00     0.064 C
HETATM    9  N2  UNL     1      66.469  48.962   7.124  1.00  0.00    -0.197 NA
HETATM   10  C10 UNL     1      68.664  48.834   9.715  1.00  0.00     0.029 C
HETATM   11  C11 UNL     1      69.635  49.338  10.742  1.00  0.00     0.024 C
HETATM   12  C12 UNL     1      69.414  50.774  11.078  1.00  0.00    -0.028 C
HETATM   13  C13 UNL     1      68.028  50.935  11.646  1.00  0.00     0.016 C
HETATM   14  C14 UNL     1      70.401  51.276  12.070  1.00  0.00     0.016 C
ENDROOT
BRANCH   5  15
HETATM   15  C6  UNL     1      69.348  53.026  10.051  1.00  0.00     0.097 C
HETATM   16  N1  UNL     1      68.587  53.703   9.285  1.00  0.00    -0.283 N
ATOM     17  H1  UNL     1      68.123  53.206   8.524  1.00  0.00     0.192 HD
BRANCH  16  18
HETATM   18  O1  UNL     1      68.346  55.038   9.403  1.00  0.00    -0.291 OA
ATOM     19  H1  UNL     1      68.778  55.717   8.897  1.00  0.00     0.244 HD
ENDBRANCH  16  18
ENDBRANCH   5  15
TORSDOF 2
ENDMDL