MODEL 5
REMARK VINA RESULT: -6.272579912      2.855      5.185
REMARK  2 active torsions:
REMARK  status: ('A' for Active; 'I' for Inactive)
REMARK    1  A    between atoms: C12_13  and  N2_14
REMARK    2  A    between atoms: N2_14  and  N3_16
ROOT
HETATM    1  C1  UNL     1      66.952  54.492  11.159  1.00  0.00     0.081 C
HETATM    2  C2  UNL     1      67.567  53.121  10.887  1.00  0.00     0.076 C
HETATM    3  N1  UNL     1      68.274  52.919   9.937  1.00  0.00    -0.429 NA
HETATM    4  C3  UNL     1      69.072  52.391   9.002  1.00  0.00     0.154 C
HETATM    5  C4  UNL     1      68.964  50.951   8.614  1.00  0.00     0.059 C
HETATM    6  C5  UNL     1      70.218  50.180   8.517  1.00  0.00     0.006 C
HETATM    7  C6  UNL     1      71.212  50.280   9.616  1.00  0.00     0.000 C
HETATM    8  C7  UNL     1      70.945  49.427  10.818  1.00  0.00     0.000 C
HETATM    9  C8  UNL     1      71.147  50.049  12.144  1.00  0.00     0.000 C
HETATM   10  C9  UNL     1      70.763  51.441  12.379  1.00  0.00     0.000 C
HETATM   11  C10 UNL     1      69.433  51.693  13.039  1.00  0.00     0.002 C
HETATM   12  C11 UNL     1      68.236  51.160  12.365  1.00  0.00     0.028 C
HETATM   13  C12 UNL     1      67.211  52.085  11.868  1.00  0.00     0.138 C
ENDROOT
BRANCH  13  14
HETATM   14  N2  UNL     1      66.131  51.293  11.279  1.00  0.00    -0.231 NA
HETATM   15  C13 UNL     1      65.600  50.332  12.220  1.00  0.00     0.136 C
BRANCH  14  16
HETATM   16  N3  UNL     1      65.088  52.160  10.855  1.00  0.00    -0.363 NA
ATOM     17  H32 UNL     1      64.664  52.602  11.670  1.00  0.00     0.171 HD
ATOM     18  H31 UNL     1      65.466  52.853  10.207  1.00  0.00     0.171 HD
ENDBRANCH  14  16
ENDBRANCH  13  14
TORSDOF 2
ENDMDL