MODEL 4
REMARK VINA RESULT: -6.461831918      3.491      5.669
REMARK  2 active torsions:
REMARK  status: ('A' for Active; 'I' for Inactive)
REMARK    1  A    between atoms: C3_3  and  C4_4
REMARK    2  A    between atoms: N1_14  and  O1_16
ROOT
HETATM    1  C4  UNL     1      67.711  50.335   9.304  1.00  0.00     0.123 C
HETATM    2  C5  UNL     1      68.632  51.477   9.112  1.00  0.00     0.050 C
HETATM    3  C6  UNL     1      69.908  51.464   9.987  1.00  0.00     0.015 C
HETATM    4  C7  UNL     1      70.557  50.039  10.017  1.00  0.00    -0.018 C
HETATM    5  C8  UNL     1      71.850  50.154   9.228  1.00  0.00     0.018 C
HETATM    6  C9  UNL     1      70.940  49.684  11.434  1.00  0.00     0.018 C
HETATM    7  C10 UNL     1      69.584  49.266   9.374  1.00  0.00     0.154 C
HETATM    8  C11 UNL     1      69.270  47.945   8.980  1.00  0.00     0.008 C
HETATM    9  C12 UNL     1      68.077  47.937   8.312  1.00  0.00     0.029 C
HETATM   10  C13 UNL     1      67.521  49.322   8.228  1.00  0.00     0.070 C
HETATM   11  N1  UNL     1      66.844  49.616   7.161  1.00  0.00    -0.270 N
ATOM     12  H1  UNL     1      66.451  50.554   7.083  1.00  0.00     0.194 HD
HETATM   13  O2  UNL     1      68.470  49.565  10.220  1.00  0.00    -0.360 OA
ENDROOT
BRANCH   1  14
HETATM   14  C3  UNL     1      66.393  50.696   9.872  1.00  0.00     0.013 C
HETATM   15  C2  UNL     1      65.651  49.923  10.609  1.00  0.00    -0.032 C
HETATM   16  C1  UNL     1      64.346  50.407  11.117  1.00  0.00     0.036 C
ENDBRANCH   1  14
BRANCH  11  17
HETATM   17  O1  UNL     1      66.633  48.746   6.145  1.00  0.00    -0.290 OA
ATOM     18  H1  UNL     1      66.381  49.013   5.268  1.00  0.00     0.244 HD
ENDBRANCH  11  17
TORSDOF 2
ENDMDL