MODEL 3
REMARK VINA RESULT: -6.107401991      2.216      4.220
REMARK  2 active torsions:
REMARK  status: ('A' for Active; 'I' for Inactive)
REMARK    1  A    between atoms: C2_2  and  C4_4
REMARK    2  A    between atoms: N3_11  and  C6_12
ROOT
HETATM    1  C4  UNL     1      69.124  51.686   9.148  1.00  0.00     0.104 A
HETATM    2  N1  UNL     1      67.827  51.600   8.797  1.00  0.00    -0.286 N
ATOM      3  H1  UNL     1      67.092  52.254   9.065  1.00  0.00     0.188 HD
HETATM    4  N2  UNL     1      67.666  50.521   8.043  1.00  0.00    -0.275 N
ATOM      5  H2  UNL     1      66.794  50.193   7.629  1.00  0.00     0.189 HD
HETATM    6  C5  UNL     1      68.875  49.940   7.931  1.00  0.00     0.194 A
HETATM    7  S1  UNL     1      69.148  48.584   7.093  1.00  0.00    -0.039 SA
HETATM    8  N3  UNL     1      69.799  50.636   8.604  1.00  0.00    -0.306 N
ENDROOT
BRANCH   8   9
HETATM    9  C6  UNL     1      71.189  50.415   8.772  1.00  0.00     0.093 C
HETATM   10  C7  UNL     1      71.565  49.231   9.585  1.00  0.00     0.026 C
HETATM   11  C8  UNL     1      73.041  49.416   9.980  1.00  0.00     0.002 C
HETATM   12  C9  UNL     1      73.883  49.425   8.702  1.00  0.00     0.000 C
HETATM   13  C10 UNL     1      73.432  50.568   7.848  1.00  0.00     0.002 C
HETATM   14  C11 UNL     1      71.963  50.344   7.463  1.00  0.00     0.026 C
ENDBRANCH   8   9
BRANCH   1  15
HETATM   15  C2  UNL     1      69.654  52.779   9.994  1.00  0.00     0.047 C
HETATM   16  C1  UNL     1      69.566  52.397  11.462  1.00  0.00     0.017 C
HETATM   17  C3  UNL     1      68.791  54.019   9.775  1.00  0.00     0.017 C
ENDBRANCH   1  15
TORSDOF 2
ENDMDL