MODEL 3
REMARK VINA RESULT: -6.212454674      3.362      4.603
REMARK  1 active torsions:
REMARK  status: ('A' for Active; 'I' for Inactive)
REMARK    1  A    between atoms: N1_8  and  N2_10
ROOT
HETATM    1  C1  UNL     1      73.139  49.652  10.955  1.00  0.00     0.016 C
HETATM    2  C2  UNL     1      72.092  49.152  11.929  1.00  0.00     0.029 C
HETATM    3  C3  UNL     1      72.658  48.921  13.302  1.00  0.00     0.010 C
HETATM    4  C4  UNL     1      73.038  50.148  14.036  1.00  0.00     0.001 C
HETATM    5  C5  UNL     1      72.318  51.386  13.666  1.00  0.00     0.006 C
HETATM    6  C6  UNL     1      70.986  51.175  13.015  1.00  0.00     0.054 C
HETATM    7  C7  UNL     1      70.954  50.079  12.054  1.00  0.00     0.007 C
HETATM    8  N1  UNL     1      69.925  49.912  11.307  1.00  0.00    -0.308 N
ATOM      9  H1  UNL     1      69.900  49.146  10.634  1.00  0.00     0.186 HD
ENDROOT
BRANCH   8  10
HETATM   10  N2  UNL     1      68.856  50.772  11.416  1.00  0.00    -0.298 N
HETATM   11  C8  UNL     1      67.854  50.659  10.658  1.00  0.00     0.062 C
HETATM   12  C9  UNL     1      67.766  49.619   9.630  1.00  0.00     0.066 C
HETATM   13  S1  UNL     1      66.477  51.765  10.797  1.00  0.00    -0.115 SA
HETATM   14  C10 UNL     1      66.533  48.781   9.738  1.00  0.00     0.007 C
HETATM   15  C11 UNL     1      65.309  49.418  10.239  1.00  0.00     0.011 C
HETATM   16  C12 UNL     1      65.106  50.868   9.958  1.00  0.00     0.080 C
ATOM     17  H2  UNL     1      68.873  51.511  12.119  1.00  0.00     0.187 HD
ENDBRANCH   8  10
TORSDOF 1
ENDMDL