MODEL 4
REMARK VINA RESULT: -5.243874829      3.814      4.824
REMARK  3 active torsions:
REMARK  status: ('A' for Active; 'I' for Inactive)
REMARK    1  A    between atoms: C2_2  and  S1_4
REMARK    2  A    between atoms: S1_4  and  C4_5
REMARK    3  A    between atoms: N2_15  and  O1_16
ROOT
HETATM    1  C4  UNL     1      69.740  50.726   8.623  1.00  0.00     0.164 C
HETATM    2  N1  UNL     1      70.858  50.355   8.018  1.00  0.00    -0.361 N
ATOM      3  H1  UNL     1      71.748  50.760   8.308  1.00  0.00     0.162 HD
HETATM    4  C5  UNL     1      70.827  49.398   6.969  1.00  0.00     0.027 C
HETATM    5  C6  UNL     1      72.216  48.758   6.896  1.00  0.00     0.038 C
HETATM    6  C7  UNL     1      70.617  50.047   5.593  1.00  0.00     0.038 C
HETATM    7  C8  UNL     1      69.806  48.319   7.121  1.00  0.00     0.063 C
HETATM    8  C9  UNL     1      68.547  48.730   7.785  1.00  0.00     0.057 C
HETATM    9  C10 UNL     1      67.330  48.522   6.900  1.00  0.00     0.041 C
HETATM   10  C11 UNL     1      68.335  47.846   9.005  1.00  0.00     0.041 C
HETATM   11  N2  UNL     1      68.530  50.137   8.182  1.00  0.00    -0.229 N
ENDROOT
BRANCH   1  12
HETATM   12  S1  UNL     1      69.789  51.910   9.916  1.00  0.00    -0.088 SA
BRANCH  12  13
HETATM   13  C2  UNL     1      69.984  51.323  11.572  1.00  0.00     0.047 C
HETATM   14  C1  UNL     1      70.702  49.999  11.577  1.00  0.00     0.021 C
HETATM   15  C3  UNL     1      68.571  51.125  12.152  1.00  0.00     0.021 C
ENDBRANCH  12  13
ENDBRANCH   1  12
BRANCH  11  16
HETATM   16  O1  UNL     1      67.399  50.863   8.140  1.00  0.00    -0.285 OA
ATOM     17  H1  UNL     1      66.566  50.463   8.359  1.00  0.00     0.245 HD
ENDBRANCH  11  16
TORSDOF 3
ENDMDL