MODEL 5
REMARK VINA RESULT: -5.983747159      3.625      4.690
REMARK  2 active torsions:
REMARK  status: ('A' for Active; 'I' for Inactive)
REMARK    1  A    between atoms: C2_2  and  C5_5
REMARK    2  A    between atoms: N2_8  and  C6_9
ROOT
HETATM    1  C5  UNL     1      68.513  50.485   8.709  1.00  0.00     0.106 A
HETATM    2  N1  UNL     1      69.278  50.380   9.794  1.00  0.00    -0.283 N
ATOM      3  H1  UNL     1      69.657  49.514  10.178  1.00  0.00     0.188 HD
HETATM    4  N2  UNL     1      69.463  51.615  10.297  1.00  0.00    -0.261 N
HETATM    5  C11 UNL     1      68.812  52.454   9.511  1.00  0.00     0.194 A
HETATM    6  S1  UNL     1      68.737  54.072   9.754  1.00  0.00    -0.039 SA
HETATM    7  N3  UNL     1      68.220  51.769   8.522  1.00  0.00    -0.320 N
ATOM      8  H3  UNL     1      67.652  52.160   7.770  1.00  0.00     0.169 HD
ENDROOT
BRANCH   4   9
HETATM    9  C6  UNL     1      70.243  51.806  11.477  1.00  0.00     0.111 C
HETATM   10  C7  UNL     1      69.332  52.052  12.662  1.00  0.00     0.027 C
HETATM   11  C8  UNL     1      70.246  51.794  13.849  1.00  0.00     0.002 C
HETATM   12  C9  UNL     1      71.535  51.218  13.286  1.00  0.00     0.002 C
HETATM   13  C10 UNL     1      71.016  50.622  11.956  1.00  0.00     0.027 C
ENDBRANCH   4   9
BRANCH   1  14
HETATM   14  C2  UNL     1      68.084  49.285   7.919  1.00  0.00     0.009 C
HETATM   15  C1  UNL     1      69.010  49.070   6.745  1.00  0.00     0.023 C
HETATM   16  C3  UNL     1      68.263  48.118   8.914  1.00  0.00     0.023 C
HETATM   17  C4  UNL     1      66.644  49.321   7.520  1.00  0.00     0.023 C
ENDBRANCH   1  14
TORSDOF 2
ENDMDL