MODEL 2
REMARK VINA RESULT: -7.136114022      1.274      3.483
REMARK  2 active torsions:
REMARK  status: ('A' for Active; 'I' for Inactive)
REMARK    1  A    between atoms: O1_1  and  O2_3
REMARK    2  A    between atoms: O2_3  and  C1_4
ROOT
HETATM    1  C1  UNL     1      71.834  50.793  13.061  1.00  0.00     0.165 C
HETATM    2  C2  UNL     1      70.841  51.736  13.661  1.00  0.00     0.040 C
HETATM    3  C3  UNL     1      69.750  52.159  12.729  1.00  0.00    -0.012 C
HETATM    4  C4  UNL     1      68.513  51.342  12.854  1.00  0.00     0.005 C
HETATM    5  C5  UNL     1      67.837  51.019  11.566  1.00  0.00     0.003 C
HETATM    6  C6  UNL     1      68.454  49.846  10.845  1.00  0.00     0.032 C
HETATM    7  C7  UNL     1      69.643  50.261  10.021  1.00  0.00     0.126 C
HETATM    8  O3  UNL     1      70.033  49.258   9.172  1.00  0.00    -0.385 OA
HETATM    9  C8  UNL     1      70.764  48.256   9.752  1.00  0.00     0.168 C
HETATM   10  C9  UNL     1      72.207  48.666  10.008  1.00  0.00     0.027 C
HETATM   11  C10 UNL     1      72.412  49.111  11.415  1.00  0.00     0.010 C
HETATM   12  C11 UNL     1      71.236  49.947  11.940  1.00  0.00     0.024 C
HETATM   13  C12 UNL     1      70.754  50.839  10.851  1.00  0.00     0.022 C
HETATM   14  C13 UNL     1      70.316  52.199  11.328  1.00  0.00     0.012 C
ENDROOT
BRANCH   1  15
HETATM   15  O2  UNL     1      72.290  49.952  14.074  1.00  0.00    -0.237 OA
BRANCH  15  16
HETATM   16  O1  UNL     1      73.504  50.347  14.395  1.00  0.00    -0.250 OA
ATOM     17  H1  UNL     1      73.685  51.136  13.896  1.00  0.00     0.253 HD
ENDBRANCH  15  16
ENDBRANCH   1  15
TORSDOF 2
ENDMDL