MODEL 4
REMARK VINA RESULT: -5.748288693      1.740      3.770
REMARK  3 active torsions:
REMARK  status: ('A' for Active; 'I' for Inactive)
REMARK    1  A    between atoms: N1_2  and  C2_4
REMARK    2  A    between atoms: C11_13  and  N2_14
REMARK    3  A    between atoms: N2_14  and  C12_16
ROOT
HETATM    1  C2  UNL     1      70.087  51.278  12.230  1.00  0.00     0.011 C
HETATM    2  C3  UNL     1      71.043  50.187  11.884  1.00  0.00     0.055 C
HETATM    3  C4  UNL     1      71.025  49.747  10.459  1.00  0.00     0.006 C
HETATM    4  C5  UNL     1      69.687  49.746   9.781  1.00  0.00     0.008 C
HETATM    5  C6  UNL     1      68.658  50.448  10.589  1.00  0.00     0.024 C
HETATM    6  C7  UNL     1      67.416  50.274  10.810  1.00  0.00    -0.003 A
HETATM    7  C8  UNL     1      65.999  50.406  11.313  1.00  0.00     0.010 A
HETATM    8  C9  UNL     1      66.999  51.056  12.100  1.00  0.00    -0.007 A
HETATM    9  C10 UNL     1      67.804  52.283  11.831  1.00  0.00     0.042 C
HETATM   10  C11 UNL     1      69.087  51.741  11.266  1.00  0.00     0.072 C
ENDROOT
BRANCH  10  11
HETATM   11  N2  UNL     1      69.667  52.646  10.306  1.00  0.00    -0.375 N
ATOM     12  H2  UNL     1      70.634  52.538  10.001  1.00  0.00     0.160 HD
BRANCH  11  13
HETATM   13  C12 UNL     1      68.930  53.595   9.841  1.00  0.00     0.166 C
HETATM   14  S1  UNL     1      68.587  55.135   9.511  1.00  0.00    -0.075 SA
ENDBRANCH  11  13
ENDBRANCH  10  11
BRANCH   1  15
HETATM   15  N1  UNL     1      70.129  51.824  13.378  1.00  0.00    -0.399 N
HETATM   16  C1  UNL     1      71.335  51.718  14.142  1.00  0.00     0.145 C
ATOM     17  H1  UNL     1      69.321  52.327  13.746  1.00  0.00     0.158 HD
ENDBRANCH   1  15
TORSDOF 3
ENDMDL