MODEL 3
REMARK VINA RESULT: -6.068842221      3.569      4.184
REMARK  3 active torsions:
REMARK  status: ('A' for Active; 'I' for Inactive)
REMARK    1  A    between atoms: N2_4  and  N3_6
REMARK       I    between atoms: N3_6  and  C1_8
REMARK    2  A    between atoms: N5_10  and  C2_12
REMARK    3  A    between atoms: C5_15  and  N6_17
ROOT
HETATM    1  N3  UNL     1     -19.332  -3.300 -19.275  1.00  0.00    -0.260 N
ATOM      2  H3  UNL     1     -18.825  -2.990 -18.445  1.00  0.00     0.191 HD
HETATM    3  C1  UNL     1     -20.382  -2.487 -19.744  1.00  0.00     0.206 C
HETATM    4  N4  UNL     1     -20.946  -2.787 -21.011  1.00  0.00    -0.062 NA
HETATM    5  N5  UNL     1     -20.809  -1.514 -19.053  1.00  0.00    -0.337 N
ATOM      6  H5  UNL     1     -20.364  -1.348 -18.150  1.00  0.00     0.164 HD
ENDROOT
BRANCH   5   7
HETATM    7  C2  UNL     1     -21.878  -0.622 -19.443  1.00  0.00     0.223 C
HETATM    8  C3  UNL     1     -22.040   0.386 -18.335  1.00  0.00     0.059 C
HETATM    9  C4  UNL     1     -23.241   1.242 -18.450  1.00  0.00     0.079 C
HETATM   10  C5  UNL     1     -24.357   0.697 -19.256  1.00  0.00     0.257 C
HETATM   11  F1  UNL     1     -25.370   0.187 -18.442  1.00  0.00    -0.210 F
HETATM   12  C6  UNL     1     -23.970  -0.389 -20.218  1.00  0.00     0.243 C
HETATM   13  O3  UNL     1     -23.086  -1.275 -19.636  1.00  0.00    -0.361 OA
BRANCH  10  14
HETATM   14  N6  UNL     1     -24.955   1.786 -20.010  1.00  0.00    -0.110 N
HETATM   15  O1  UNL     1     -24.573   2.125 -21.146  1.00  0.00    -0.534 OA
HETATM   16  O2  UNL     1     -26.013   2.514 -19.467  1.00  0.00    -0.534 OA
ENDBRANCH  10  14
ENDBRANCH   5   7
BRANCH   1  17
HETATM   17  N2  UNL     1     -18.939  -4.494 -19.863  1.00  0.00    -0.247 N
HETATM   18  N1  UNL     1     -18.979  -4.614 -21.113  1.00  0.00    -0.331 N
ATOM     19  H12 UNL     1     -19.302  -3.828 -21.677  1.00  0.00     0.178 HD
ATOM     20  H11 UNL     1     -18.691  -5.491 -21.545  1.00  0.00     0.178 HD
ATOM     21  H2  UNL     1     -18.620  -5.271 -19.283  1.00  0.00     0.207 HD
ENDBRANCH   1  17
TORSDOF 3
ENDMDL