MODEL 3
REMARK VINA RESULT: -5.977188640      1.425      1.599
REMARK  4 active torsions:
REMARK  status: ('A' for Active; 'I' for Inactive)
REMARK    1  A    between atoms: N2_3  and  C2_5
REMARK    2  A    between atoms: C3_7  and  O2_8
REMARK    3  A    between atoms: O2_8  and  C4_9
REMARK    4  A    between atoms: C4_9  and  N3_10
ROOT
HETATM    1  C2  UNL     1     -21.961   2.494 -18.642  1.00  0.00     0.280 A
HETATM    2  O1  UNL     1     -21.663   3.584 -19.594  1.00  0.00    -0.327 OA
HETATM    3  C3  UNL     1     -20.602   2.920 -18.751  1.00  0.00     0.313 A
ENDROOT
BRANCH   3   4
HETATM    4  O2  UNL     1     -19.658   2.415 -19.600  1.00  0.00    -0.336 OA
BRANCH   4   5
HETATM    5  C4  UNL     1     -18.879   1.497 -18.920  1.00  0.00     0.315 C
BRANCH   5   6
HETATM    6  N3  UNL     1     -19.051   0.149 -19.422  1.00  0.00    -0.283 N
HETATM    7  C5  UNL     1     -18.375  -0.717 -20.061  1.00  0.00     0.116 A
HETATM    8  C6  UNL     1     -19.412  -1.742 -20.078  1.00  0.00     0.210 A
HETATM    9 BR1  UNL     1     -19.063  -3.329 -19.049  1.00  0.00    -0.065 Br
HETATM   10  N4  UNL     1     -20.119  -0.719 -19.358  1.00  0.00    -0.116 NA
ENDBRANCH   5   6
ENDBRANCH   4   5
ENDBRANCH   3   4
BRANCH   1  11
HETATM   11  N2  UNL     1     -22.490   1.323 -19.298  1.00  0.00    -0.358 N
HETATM   12  C1  UNL     1     -23.469   0.635 -18.835  1.00  0.00     0.187 C
HETATM   13  N1  UNL     1     -23.889  -0.503 -19.594  1.00  0.00    -0.097 NA
ATOM     14  H2  UNL     1     -22.063   1.026 -20.175  1.00  0.00     0.162 HD
ENDBRANCH   1  11
TORSDOF 4
ENDMDL