MODEL 4
REMARK VINA RESULT: -5.686380390      3.645      4.688
REMARK  5 active torsions:
REMARK  status: ('A' for Active; 'I' for Inactive)
REMARK    1  A    between atoms: N1_2  and  S1_4
REMARK    2  A    between atoms: S1_4  and  N2_7
REMARK    3  A    between atoms: N2_7  and  C3_9
REMARK    4  A    between atoms: C4_10  and  O3_11
REMARK    5  A    between atoms: C5_13  and  O4_14
ROOT
HETATM    1  C3  UNL     1     -23.020   1.750 -19.702  1.00  0.00     0.162 C
HETATM    2  C4  UNL     1     -23.803   2.122 -18.438  1.00  0.00     0.176 C
HETATM    3  C5  UNL     1     -25.027   1.520 -19.124  1.00  0.00     0.185 C
HETATM    4  C6  UNL     1     -24.048   0.660 -19.911  1.00  0.00     0.227 C
HETATM    5  F1  UNL     1     -23.720  -0.446 -19.174  1.00  0.00    -0.244 F
ENDROOT
BRANCH   1   6
HETATM    6  N2  UNL     1     -21.729   1.205 -19.470  1.00  0.00    -0.296 N
ATOM      7  H2  UNL     1     -21.491   0.232 -19.659  1.00  0.00     0.173 HD
BRANCH   6   8
HETATM    8  S1  UNL     1     -20.601   2.349 -18.837  1.00  0.00     0.298 S
HETATM    9  O1  UNL     1     -20.960   3.744 -19.199  1.00  0.00    -0.188 OA
HETATM   10  O2  UNL     1     -20.558   2.262 -17.331  1.00  0.00    -0.188 OA
BRANCH   8  11
HETATM   11  N1  UNL     1     -19.050   1.889 -19.417  1.00  0.00    -0.202 NA
HETATM   12  C1  UNL     1     -17.979   2.662 -18.880  1.00  0.00     0.130 C
HETATM   13  C2  UNL     1     -18.786   0.485 -19.278  1.00  0.00     0.130 C
ENDBRANCH   8  11
ENDBRANCH   6   8
ENDBRANCH   1   6
BRANCH   2  14
HETATM   14  O3  UNL     1     -23.382   1.328 -17.384  1.00  0.00    -0.391 OA
ATOM     15  H3  UNL     1     -23.127   1.880 -16.654  1.00  0.00     0.210 HD
ENDBRANCH   2  14
BRANCH   3  16
HETATM   16  O4  UNL     1     -25.672   2.396 -19.981  1.00  0.00    -0.390 OA
ATOM     17  H4  UNL     1     -25.150   2.648 -20.733  1.00  0.00     0.210 HD
ENDBRANCH   3  16
TORSDOF 5
ENDMDL