MODEL 5
REMARK VINA RESULT: -6.184258959      2.355      4.633
REMARK  5 active torsions:
REMARK  status: ('A' for Active; 'I' for Inactive)
REMARK    1  A    between atoms: N2_3  and  O1_4
REMARK    2  A    between atoms: C2_6  and  C3_7
REMARK    3  A    between atoms: C3_7  and  O2_8
REMARK    4  A    between atoms: C5_13  and  C6_14
REMARK    5  A    between atoms: C6_14  and  N3_15
ROOT
HETATM    1  N1  UNL     1     -18.660   2.521 -19.898  1.00  0.00    -0.170 NA
HETATM    2  C1  UNL     1     -19.194   2.585 -18.873  1.00  0.00     0.210 C
HETATM    3  N2  UNL     1     -19.859   2.663 -17.625  1.00  0.00    -0.165 N
HETATM    4  C2  UNL     1     -21.020   2.163 -17.502  1.00  0.00     0.209 C
ENDROOT
BRANCH   3   5
HETATM    5  O1  UNL     1     -19.256   3.276 -16.545  1.00  0.00    -0.274 OA
ATOM      6  H1  UNL     1     -19.098   2.794 -15.741  1.00  0.00     0.246 HD
ENDBRANCH   3   5
BRANCH   4   7
HETATM    7  C3  UNL     1     -21.678   1.504 -18.649  1.00  0.00     0.322 A
HETATM    8  O3  UNL     1     -22.263   2.425 -19.487  1.00  0.00    -0.305 OA
HETATM    9  C4  UNL     1     -23.620   2.271 -19.456  1.00  0.00     0.254 A
HETATM   10 CL1  UNL     1     -24.254   2.200 -21.087  1.00  0.00    -0.092 Cl
HETATM   11  C5  UNL     1     -23.873   1.066 -18.630  1.00  0.00     0.191 A
HETATM   12  O4  UNL     1     -22.641   0.656 -18.167  1.00  0.00    -0.317 OA
BRANCH   7  13
HETATM   13  O2  UNL     1     -20.759   0.716 -19.372  1.00  0.00    -0.339 OA
ATOM     14  H2  UNL     1     -21.130   0.439 -20.202  1.00  0.00     0.216 HD
ENDBRANCH   7  13
BRANCH  11  15
HETATM   15  C6  UNL     1     -24.513  -0.073 -19.357  1.00  0.00     0.174 C
BRANCH  15  16
HETATM   16  N3  UNL     1     -23.648  -0.689 -20.309  1.00  0.00    -0.340 N
HETATM   17  N4  UNL     1     -22.782  -1.537 -20.030  1.00  0.00    -0.349 N
ATOM     18  H42 UNL     1     -22.699  -1.799 -19.047  1.00  0.00     0.176 HD
ATOM     19  H41 UNL     1     -22.163  -1.978 -20.710  1.00  0.00     0.176 HD
ATOM     20  H3  UNL     1     -23.745  -0.414 -21.286  1.00  0.00     0.179 HD
ENDBRANCH  15  16
ENDBRANCH  11  15
ENDBRANCH   4   7
TORSDOF 5
ENDMDL