MODEL 2
REMARK VINA RESULT: -7.167478886      2.563      4.879
REMARK  6 active torsions:
REMARK  status: ('A' for Active; 'I' for Inactive)
REMARK    1  A    between atoms: C3_3  and  N1_4
REMARK    2  A    between atoms: N1_4  and  C4_5
REMARK    3  A    between atoms: N1_4  and  C5_7
REMARK    4  A    between atoms: C7_9  and  O2_10
REMARK    5  A    between atoms: C9_14  and  O3_15
REMARK    6  A    between atoms: C10_17  and  O4_18
ROOT
HETATM    1  C1  UNL     1     -24.547   1.624 -19.895  1.00  0.00     0.014 C
HETATM    2  C2  UNL     1     -23.420   1.995 -19.669  1.00  0.00    -0.098 C
HETATM    3  C3  UNL     1     -22.040   2.439 -19.417  1.00  0.00     0.218 C
ENDROOT
BRANCH   3   4
HETATM    4  N1  UNL     1     -21.262   1.430 -18.740  1.00  0.00    -0.341 N
BRANCH   4   5
HETATM    5  C4  UNL     1     -21.042   1.563 -17.347  1.00  0.00     0.352 C
HETATM    6  O1  UNL     1     -20.413   2.555 -16.896  1.00  0.00    -0.283 OA
ENDBRANCH   4   5
BRANCH   4   7
HETATM    7  C5  UNL     1     -20.694   0.292 -19.397  1.00  0.00     0.121 C
HETATM    8  C6  UNL     1     -21.328  -0.946 -18.810  1.00  0.00     0.062 C
HETATM    9  C7  UNL     1     -20.851  -2.212 -19.502  1.00  0.00     0.156 C
HETATM   10  C8  UNL     1     -19.341  -2.269 -19.245  1.00  0.00     0.230 C
HETATM   11  F1  UNL     1     -18.793  -3.449 -19.636  1.00  0.00    -0.244 F
HETATM   12  C9  UNL     1     -18.760  -1.072 -19.966  1.00  0.00     0.185 C
HETATM   13  C10 UNL     1     -19.200   0.185 -19.238  1.00  0.00     0.172 C
BRANCH   9  14
HETATM   14  O2  UNL     1     -21.080  -2.057 -20.855  1.00  0.00    -0.393 OA
ATOM     15  H2  UNL     1     -21.555  -2.823 -21.154  1.00  0.00     0.210 HD
ENDBRANCH   9  14
BRANCH  12  16
HETATM   16  O3  UNL     1     -17.369  -1.131 -20.026  1.00  0.00    -0.390 OA
ATOM     17  H3  UNL     1     -17.024  -0.592 -20.728  1.00  0.00     0.210 HD
ENDBRANCH  12  16
BRANCH  13  18
HETATM   18  O4  UNL     1     -18.532   1.242 -19.855  1.00  0.00    -0.391 OA
ATOM     19  H4  UNL     1     -18.043   0.956 -20.618  1.00  0.00     0.210 HD
ENDBRANCH  13  18
ENDBRANCH   4   7
ENDBRANCH   3   4
TORSDOF 6
ENDMDL