MODEL 5
REMARK VINA RESULT: -3.297091762     10.674     11.704
REMARK  3 active torsions:
REMARK  status: ('A' for Active; 'I' for Inactive)
REMARK       I    between atoms: N1_2  and  C2_4
REMARK       I    between atoms: C2_4  and  N6_18
REMARK       I    between atoms: N2_5  and  C3_7
REMARK       I    between atoms: C3_7  and  N5_12
REMARK    1  A    between atoms: N5_12  and  C5_14
REMARK    2  A    between atoms: C5_14  and  C6_15
REMARK    3  A    between atoms: N6_18  and  N7_20
ROOT
HETATM    1  C1  UNL     1     -14.541  -4.336 -25.917  1.00  0.00     0.165 C
HETATM    2  N1  UNL     1     -13.600  -4.807 -24.908  1.00  0.00    -0.229 N
ATOM      3  H1  UNL     1     -12.882  -4.183 -24.539  1.00  0.00     0.177 HD
HETATM    4  C2  UNL     1     -13.697  -6.138 -24.448  1.00  0.00     0.711 C
HETATM    5  N2  UNL     1     -13.776  -6.360 -23.196  1.00  0.00    -0.021 N
ATOM      6  H2  UNL     1     -13.763  -5.540 -22.590  1.00  0.00     0.203 HD
HETATM    7  C3  UNL     1     -13.879  -7.607 -22.558  1.00  0.00     0.702 C
HETATM    8  N3  UNL     1     -14.875  -8.385 -22.802  1.00  0.00    -0.126 N
ATOM      9  H3  UNL     1     -15.584  -8.075 -23.466  1.00  0.00     0.197 HD
HETATM   10  C4  UNL     1     -15.027  -9.631 -22.201  1.00  0.00     0.196 C
HETATM   11  N4  UNL     1     -15.173 -10.679 -21.702  1.00  0.00    -0.171 NA
HETATM   12  N5  UNL     1     -12.906  -8.078 -21.618  1.00  0.00    -0.214 N
ATOM     13  H5  UNL     1     -12.477  -8.997 -21.730  1.00  0.00     0.178 HD
HETATM   14  N6  UNL     1     -13.703  -7.188 -25.381  1.00  0.00    -0.071 N
ATOM     15  H6  UNL     1     -14.583  -7.509 -25.783  1.00  0.00     0.212 HD
ENDROOT
BRANCH  12  16
HETATM   16  C5  UNL     1     -12.547  -7.226 -20.512  1.00  0.00     0.235 C
BRANCH  16  17
HETATM   17  C6  UNL     1     -13.698  -7.195 -19.582  1.00  0.00    -0.051 C
HETATM   18  C7  UNL     1     -14.635  -7.190 -18.824  1.00  0.00     0.107 C
HETATM   19  F1  UNL     1     -15.696  -7.185 -17.994  1.00  0.00    -0.144 F
ENDBRANCH  16  17
ENDBRANCH  12  16
BRANCH  14  20
HETATM   20  N7  UNL     1     -12.509  -7.784 -25.754  1.00  0.00    -0.024 N
HETATM   21  O1  UNL     1     -11.417  -7.427 -25.261  1.00  0.00    -0.516 OA
HETATM   22  O2  UNL     1     -12.520  -8.786 -26.686  1.00  0.00    -0.516 OA
ENDBRANCH  14  20
TORSDOF 3
ENDMDL