MODEL 3
REMARK VINA RESULT: -5.695704786      1.748      2.676
REMARK  7 active torsions:
REMARK  status: ('A' for Active; 'I' for Inactive)
REMARK    1  A    between atoms: N1_2  and  C2_3
REMARK    2  A    between atoms: N1_2  and  C3_5
REMARK    3  A    between atoms: C3_5  and  C4_6
REMARK    4  A    between atoms: C6_9  and  C7_10
REMARK    5  A    between atoms: C7_10  and  O1_11
REMARK    6  A    between atoms: C8_13  and  O2_14
REMARK    7  A    between atoms: C9_16  and  O3_17
ROOT
HETATM    1  C4  UNL     1     -20.206  -0.188 -18.935  1.00  0.00     0.044 C
HETATM    2  N2  UNL     1     -20.764   0.757 -18.284  1.00  0.00    -0.379 N
HETATM    3  C5  UNL     1     -22.076   0.628 -17.695  1.00  0.00     0.150 C
HETATM    4  C6  UNL     1     -19.976   1.907 -18.173  1.00  0.00     0.138 C
HETATM    5  C8  UNL     1     -18.831   1.716 -19.112  1.00  0.00     0.177 C
HETATM    6  C9  UNL     1     -18.856   0.248 -19.394  1.00  0.00     0.196 C
ENDROOT
BRANCH   1   7
HETATM    7  C3  UNL     1     -20.678  -1.559 -19.251  1.00  0.00     0.328 C
BRANCH   7   8
HETATM    8  N1  UNL     1     -19.968  -2.252 -20.283  1.00  0.00     0.102 N
HETATM    9  C1  UNL     1     -19.208  -3.304 -19.519  1.00  0.00     0.311 C
BRANCH   8  10
HETATM   10  C2  UNL     1     -20.829  -3.102 -21.123  1.00  0.00     0.386 C
HETATM   11 CL1  UNL     1     -20.424  -4.804 -21.014  1.00  0.00    -0.098 Cl
ENDBRANCH   8  10
ENDBRANCH   7   8
ENDBRANCH   1   7
BRANCH   6  12
HETATM   12  O3  UNL     1     -17.899  -0.355 -18.535  1.00  0.00    -0.387 OA
ATOM     13  H3  UNL     1     -18.233  -1.210 -18.291  1.00  0.00     0.210 HD
ENDBRANCH   6  12
BRANCH   4  14
HETATM   14  C7  UNL     1     -20.697   3.221 -18.319  1.00  0.00     0.192 C
BRANCH  14  15
HETATM   15  O1  UNL     1     -21.391   3.343 -19.497  1.00  0.00    -0.399 OA
ATOM     16  H1  UNL     1     -22.198   3.838 -19.416  1.00  0.00     0.209 HD
ENDBRANCH  14  15
ENDBRANCH   4  14
BRANCH   5  17
HETATM   17  O2  UNL     1     -18.966   2.456 -20.287  1.00  0.00    -0.390 OA
ATOM     18  H2  UNL     1     -19.774   2.269 -20.749  1.00  0.00     0.210 HD
ENDBRANCH   5  17
TORSDOF 7
ENDMDL