MODEL 1
REMARK VINA RESULT: -9.002454084      0.000      0.000
REMARK  4 active torsions:
REMARK  status: ('A' for Active; 'I' for Inactive)
REMARK    1  A    between atoms: N3_4  and  N4_6
REMARK    2  A    between atoms: C2_8  and  C3_9
REMARK    3  A    between atoms: N5_15  and  N6_16
REMARK    4  A    between atoms: C8_18  and  O1_20
ROOT
HETATM    1  C3  UNL     1     -21.020   0.581 -18.818  1.00  0.00     0.073 A
HETATM    2  C4  UNL     1     -21.079   1.942 -18.661  1.00  0.00     0.036 A
HETATM    3  C5  UNL     1     -19.949   2.770 -18.730  1.00  0.00     0.046 A
HETATM    4  C6  UNL     1     -18.709   2.226 -18.961  1.00  0.00     0.133 A
HETATM    5  F1  UNL     1     -17.600   2.999 -19.033  1.00  0.00    -0.205 F
HETATM    6  C7  UNL     1     -18.672   0.860 -19.115  1.00  0.00     0.159 A
HETATM    7  N5  UNL     1     -19.768   0.085 -19.046  1.00  0.00    -0.261 N
ENDROOT
BRANCH   1   8
HETATM    8  C2  UNL     1     -22.151  -0.326 -18.758  1.00  0.00     0.138 C
HETATM    9  N4  UNL     1     -23.239  -0.296 -19.369  1.00  0.00    -0.308 N
ATOM     10  H4  UNL     1     -23.856  -1.071 -19.127  1.00  0.00     0.186 HD
BRANCH   9  11
HETATM   11  N3  UNL     1     -23.777   0.550 -20.291  1.00  0.00    -0.276 N
HETATM   12  C1  UNL     1     -24.558   1.526 -20.026  1.00  0.00     0.215 C
HETATM   13  N1  UNL     1     -24.915   1.781 -18.685  1.00  0.00    -0.065 NA
HETATM   14  N2  UNL     1     -25.064   2.349 -21.054  1.00  0.00    -0.065 NA
ATOM     15  H3  UNL     1     -23.538   0.392 -21.270  1.00  0.00     0.189 HD
ENDBRANCH   9  11
ENDBRANCH   1   8
BRANCH   7  16
HETATM   16  N6  UNL     1     -19.672  -1.318 -19.212  1.00  0.00    -0.261 N
HETATM   17  C8  UNL     1     -18.764  -1.836 -19.976  1.00  0.00     0.244 C
HETATM   18  N7  UNL     1     -17.839  -1.026 -20.672  1.00  0.00    -0.055 NA
ATOM     19  H6  UNL     1     -20.325  -1.929 -18.722  1.00  0.00     0.190 HD
BRANCH  17  20
HETATM   20  O1  UNL     1     -18.739  -3.215 -20.081  1.00  0.00    -0.334 OA
ATOM     21  H1  UNL     1     -18.781  -3.584 -20.955  1.00  0.00     0.220 HD
ENDBRANCH  17  20
ENDBRANCH   7  16
TORSDOF 4
ENDMDL