MODEL 5
REMARK VINA RESULT: -3.874116461      2.277      3.108
REMARK  6 active torsions:
REMARK  status: ('A' for Active; 'I' for Inactive)
REMARK    1  A    between atoms: N1_2  and  C4_5
REMARK    2  A    between atoms: C4_5  and  C5_6
REMARK    3  A    between atoms: C6_7  and  O1_8
REMARK    4  A    between atoms: C9_13  and  C10_14
REMARK    5  A    between atoms: C10_14  and  O2_15
REMARK    6  A    between atoms: C11_17  and  O3_18
ROOT
HETATM    1  C5  UNL     1      17.626 -20.932 -26.371  1.00  0.00     0.072 C
HETATM    2  C6  UNL     1      17.648 -20.803 -27.937  1.00  0.00     0.160 C
HETATM    3  C7  UNL     1      18.509 -19.645 -28.322  1.00  0.00     0.199 C
HETATM    4  F1  UNL     1      18.548 -19.586 -29.692  1.00  0.00    -0.247 F
HETATM    5  C8  UNL     1      19.928 -19.795 -27.813  1.00  0.00     0.049 C
HETATM    6  C9  UNL     1      19.904 -20.005 -26.315  1.00  0.00     0.041 C
HETATM    7  C11 UNL     1      19.066 -21.259 -26.069  1.00  0.00     0.132 C
ENDROOT
BRANCH   1   8
HETATM    8  C4  UNL     1      16.652 -21.974 -26.028  1.00  0.00     0.245 C
BRANCH   8   9
HETATM    9  N1  UNL     1      15.285 -21.878 -26.257  1.00  0.00    -0.078 N
HETATM   10  C1  UNL     1      14.735 -20.750 -26.888  1.00  0.00     0.271 C
HETATM   11  C2  UNL     1      14.556 -22.097 -25.016  1.00  0.00     0.271 C
HETATM   12  C3  UNL     1      14.885 -23.047 -27.108  1.00  0.00     0.271 C
ENDBRANCH   8   9
ENDBRANCH   1   8
BRANCH   2  13
HETATM   13  O1  UNL     1      18.024 -21.995 -28.503  1.00  0.00    -0.392 OA
ATOM     14  H1  UNL     1      18.004 -21.928 -29.451  1.00  0.00     0.210 HD
ENDBRANCH   2  13
BRANCH   7  15
HETATM   15  O3  UNL     1      19.333 -21.809 -24.854  1.00  0.00    -0.395 OA
ATOM     16  H3  UNL     1      18.623 -21.822 -24.222  1.00  0.00     0.210 HD
ENDBRANCH   7  15
BRANCH   6  17
HETATM   17  C10 UNL     1      21.334 -20.207 -25.840  1.00  0.00     0.171 C
BRANCH  17  18
HETATM   18  O2  UNL     1      21.995 -19.023 -25.643  1.00  0.00    -0.400 OA
ATOM     19  H2  UNL     1      22.255 -18.897 -24.738  1.00  0.00     0.209 HD
ENDBRANCH  17  18
ENDBRANCH   6  17
TORSDOF 6
ENDMDL