MODEL 2
REMARK VINA RESULT: -6.103257128      1.924      3.197
REMARK  3 active torsions:
REMARK  status: ('A' for Active; 'I' for Inactive)
REMARK    1  A    between atoms: O1_2  and  C2_3
REMARK    2  A    between atoms: C3_5  and  C4_6
REMARK    3  A    between atoms: C4_6  and  N1_7
ROOT
HETATM    1  C2  UNL     1      17.091 -20.676 -28.320  1.00  0.00     0.296 C
HETATM    2  O2  UNL     1      18.027 -21.274 -27.483  1.00  0.00    -0.334 OA
HETATM    3  C3  UNL     1      17.780 -20.878 -26.187  1.00  0.00     0.255 C
HETATM    4  N4  UNL     1      17.133 -21.930 -25.439  1.00  0.00    -0.110 NA
HETATM    5  N5  UNL     1      15.837 -22.167 -25.805  1.00  0.00    -0.330 N
HETATM    6  C6  UNL     1      14.838 -21.495 -25.054  1.00  0.00     0.166 C
HETATM    7  C7  UNL     1      15.589 -22.338 -27.187  1.00  0.00     0.180 C
HETATM    8  C8  UNL     1      15.685 -21.099 -28.021  1.00  0.00     0.244 C
HETATM    9  F1  UNL     1      14.955 -20.105 -27.389  1.00  0.00    -0.242 F
ENDROOT
BRANCH   3  10
HETATM   10  C4  UNL     1      19.073 -20.541 -25.440  1.00  0.00     0.173 C
BRANCH  10  11
HETATM   11  N1  UNL     1      19.866 -19.607 -26.211  1.00  0.00    -0.363 N
HETATM   12  C5  UNL     1      21.161 -19.570 -26.138  1.00  0.00     0.197 C
HETATM   13  N2  UNL     1      21.785 -20.491 -25.260  1.00  0.00    -0.067 NA
HETATM   14  N3  UNL     1      21.903 -18.633 -26.917  1.00  0.00    -0.067 NA
ATOM     15  H1  UNL     1      19.390 -18.954 -26.834  1.00  0.00     0.161 HD
ENDBRANCH  10  11
ENDBRANCH   3  10
BRANCH   1  16
HETATM   16  O1  UNL     1      17.342 -20.871 -29.655  1.00  0.00    -0.363 OA
HETATM   17  C1  UNL     1      17.703 -19.729 -30.345  1.00  0.00     0.204 C
ENDBRANCH   1  16
TORSDOF 3
ENDMDL