MODEL 2
REMARK VINA RESULT: -5.995029471      2.163      2.589
REMARK  4 active torsions:
REMARK  status: ('A' for Active; 'I' for Inactive)
REMARK    1  A    between atoms: C3_3  and  C4_4
REMARK    2  A    between atoms: N1_5  and  N2_7
REMARK    3  A    between atoms: C6_13  and  C7_14
REMARK    4  A    between atoms: C7_14  and  O2_15
ROOT
HETATM    1  C1  UNL     1      18.094 -20.754 -28.434  1.00  0.00     0.022 C
HETATM    2  C2  UNL     1      16.922 -20.849 -27.833  1.00  0.00    -0.001 C
HETATM    3  C3  UNL     1      16.791 -20.909 -26.377  1.00  0.00     0.197 C
HETATM    4  O1  UNL     1      15.960 -21.910 -25.913  1.00  0.00    -0.348 OA
HETATM    5  C6  UNL     1      15.118 -22.446 -26.849  1.00  0.00     0.266 C
HETATM    6  N5  UNL     1      14.680 -21.540 -27.852  1.00  0.00    -0.266 N
HETATM    7  N6  UNL     1      13.506 -21.273 -28.068  1.00  0.00    -0.342 N
ATOM      8  H61 UNL     1      13.191 -20.623 -28.787  1.00  0.00     0.176 HD
ATOM      9  H62 UNL     1      12.795 -21.725 -27.494  1.00  0.00     0.176 HD
HETATM   10  C8  UNL     1      15.685 -20.901 -28.662  1.00  0.00     0.320 C
HETATM   11  F1  UNL     1      15.958 -21.633 -29.801  1.00  0.00    -0.220 F
ENDROOT
BRANCH   3  12
HETATM   12  C4  UNL     1      18.143 -21.019 -25.787  1.00  0.00     0.116 C
HETATM   13  N1  UNL     1      18.978 -20.058 -25.866  1.00  0.00    -0.311 N
ATOM     14  H1  UNL     1      18.723 -19.192 -26.341  1.00  0.00     0.185 HD
BRANCH  13  15
HETATM   15  N2  UNL     1      20.240 -20.201 -25.299  1.00  0.00    -0.277 N
HETATM   16  C5  UNL     1      21.264 -19.600 -25.791  1.00  0.00     0.215 C
HETATM   17  N3  UNL     1      21.087 -18.785 -26.924  1.00  0.00    -0.065 NA
HETATM   18  N4  UNL     1      22.516 -19.804 -25.146  1.00  0.00    -0.065 NA
ATOM     19  H2  UNL     1      20.354 -20.795 -24.477  1.00  0.00     0.189 HD
ENDBRANCH  13  15
ENDBRANCH   3  12
BRANCH   5  20
HETATM   20  C7  UNL     1      13.885 -23.016 -26.155  1.00  0.00     0.219 C
BRANCH  20  21
HETATM   21  O2  UNL     1      14.129 -22.981 -24.773  1.00  0.00    -0.397 OA
ATOM     22  H2  UNL     1      13.288 -22.898 -24.339  1.00  0.00     0.209 HD
ENDBRANCH  20  21
ENDBRANCH   5  20
TORSDOF 4
ENDMDL