MODEL 4
REMARK VINA RESULT: -5.402601136      1.192      1.272
REMARK  5 active torsions:
REMARK  status: ('A' for Active; 'I' for Inactive)
REMARK    1  A    between atoms: N2_4  and  N3_6
REMARK    2  A    between atoms: N3_6  and  C1_8
REMARK    3  A    between atoms: C4_11  and  N4_12
REMARK    4  A    between atoms: C6_16  and  N6_17
REMARK    5  A    between atoms: N7_20  and  O1_21
ROOT
HETATM    1  C1  UNL     1      19.736 -21.096 -25.861  1.00  0.00     0.137 C
HETATM    2  C2  UNL     1      19.085 -21.471 -24.554  1.00  0.00     0.032 C
HETATM    3  C3  UNL     1      17.667 -21.836 -24.913  1.00  0.00     0.031 C
HETATM    4  C4  UNL     1      17.372 -20.883 -26.046  1.00  0.00     0.127 C
HETATM    5  C8  UNL     1      18.634 -20.838 -26.852  1.00  0.00     0.217 C
HETATM    6  F1  UNL     1      18.681 -21.806 -27.831  1.00  0.00    -0.245 F
ENDROOT
BRANCH   4   7
HETATM    7  N4  UNL     1      16.203 -21.217 -26.792  1.00  0.00    -0.329 N
HETATM    8  C5  UNL     1      15.566 -20.293 -27.533  1.00  0.00     0.202 A
HETATM    9  N5  UNL     1      14.449 -20.595 -28.250  1.00  0.00    -0.186 N
HETATM   10  C6  UNL     1      13.970 -21.846 -28.220  1.00  0.00     0.704 A
ATOM     11  H5  UNL     1      13.983 -19.877 -28.803  1.00  0.00     0.185 HD
HETATM   12  N7  UNL     1      14.585 -22.788 -27.491  1.00  0.00    -0.048 N
HETATM   13  C7  UNL     1      15.698 -22.464 -26.782  1.00  0.00     0.236 A
BRANCH  10  14
HETATM   14  N6  UNL     1      12.905 -22.094 -28.918  1.00  0.00    -0.232 N
ATOM     15  H62 UNL     1      11.965 -21.977 -28.539  1.00  0.00     0.174 HD
ATOM     16  H61 UNL     1      13.037 -22.415 -29.876  1.00  0.00     0.174 HD
ENDBRANCH  10  14
BRANCH  12  17
HETATM   17  O1  UNL     1      14.062 -24.054 -27.487  1.00  0.00    -0.269 OA
ATOM     18  H1  UNL     1      13.213 -24.191 -27.086  1.00  0.00     0.246 HD
ENDBRANCH  12  17
ENDBRANCH   4   7
BRANCH   1  19
HETATM   19  N3  UNL     1      20.524 -19.887 -25.604  1.00  0.00    -0.315 N
ATOM     20  H3  UNL     1      21.123 -19.797 -24.784  1.00  0.00     0.182 HD
BRANCH  19  21
HETATM   21  N2  UNL     1      20.409 -18.866 -26.547  1.00  0.00    -0.253 N
HETATM   22  N1  UNL     1      21.439 -18.532 -27.197  1.00  0.00    -0.331 N
ATOM     23  H12 UNL     1      22.326 -19.006 -27.025  1.00  0.00     0.178 HD
ATOM     24  H11 UNL     1      21.354 -17.785 -27.887  1.00  0.00     0.178 HD
ATOM     25  H2  UNL     1      19.515 -18.400 -26.707  1.00  0.00     0.207 HD
ENDBRANCH  19  21
ENDBRANCH   1  19
TORSDOF 5
ENDMDL