MODEL 5
REMARK VINA RESULT: -3.801462368      1.211      1.433
REMARK  3 active torsions:
REMARK  status: ('A' for Active; 'I' for Inactive)
REMARK    1  A    between atoms: N1_2  and  C3_5
REMARK    2  A    between atoms: C5_8  and  N2_9
REMARK    3  A    between atoms: C5_8  and  C7_16
REMARK       I    between atoms: N2_9  and  C6_11
ROOT
HETATM    1  C3  UNL     1      18.076 -21.576 -26.410  1.00  0.00     0.256 C
HETATM    2  C4  UNL     1      16.910 -20.732 -26.058  1.00  0.00     0.208 C
HETATM    3  O1  UNL     1      16.100 -20.600 -27.168  1.00  0.00    -0.349 OA
HETATM    4  C5  UNL     1      16.466 -21.582 -28.079  1.00  0.00     0.229 C
HETATM    5  C8  UNL     1      17.973 -21.672 -27.921  1.00  0.00     0.112 C
ENDROOT
BRANCH   4   6
HETATM    6  N2  UNL     1      15.835 -22.848 -27.813  1.00  0.00    -0.324 N
HETATM    7  C6  UNL     1      14.603 -22.887 -27.138  1.00  0.00     0.184 C
HETATM    8  N3  UNL     1      13.547 -23.425 -27.670  1.00  0.00    -0.374 N
HETATM    9  N4  UNL     1      14.478 -22.338 -25.845  1.00  0.00    -0.064 NA
ATOM     10  H32 UNL     1      13.637 -23.823 -28.605  1.00  0.00     0.158 HD
ATOM     11  H31 UNL     1      12.652 -23.453 -27.180  1.00  0.00     0.158 HD
ATOM     12  H2  UNL     1      16.280 -23.715 -28.115  1.00  0.00     0.165 HD
ENDBRANCH   4   6
BRANCH   4  13
HETATM   13  C7  UNL     1      16.180 -21.132 -29.461  1.00  0.00     0.231 C
HETATM   14  O2  UNL     1      15.128 -21.406 -30.077  1.00  0.00    -0.644 OA
HETATM   15  O3  UNL     1      17.124 -20.360 -30.134  1.00  0.00    -0.644 OA
ENDBRANCH   4  13
BRANCH   1  16
HETATM   16  N1  UNL     1      19.348 -21.094 -25.973  1.00  0.00     0.082 N
HETATM   17  C1  UNL     1      19.326 -20.444 -24.688  1.00  0.00     0.317 C
HETATM   18  C2  UNL     1      19.963 -20.174 -26.916  1.00  0.00     0.317 C
HETATM   19  F1  UNL     1      20.179 -22.165 -25.884  1.00  0.00    -0.018 F
ENDBRANCH   1  16
TORSDOF 3
ENDMDL