MODEL 5
REMARK VINA RESULT: -4.712739097      1.377      1.806
REMARK  6 active torsions:
REMARK  status: ('A' for Active; 'I' for Inactive)
REMARK    1  A    between atoms: N1_2  and  C3_5
REMARK    2  A    between atoms: C3_5  and  C4_6
REMARK    3  A    between atoms: C4_6  and  O1_7
REMARK    4  A    between atoms: C4_6  and  C5_9
REMARK    5  A    between atoms: C5_9  and  O2_10
REMARK    6  A    between atoms: C6_13  and  O4_14
ROOT
HETATM    1  C4  UNL     1      17.236 -21.516 -25.827  1.00  0.00     0.212 C
ENDROOT
BRANCH   1   2
HETATM    2  C3  UNL     1      16.158 -20.772 -26.528  1.00  0.00     0.287 C
BRANCH   2   3
HETATM    3  N1  UNL     1      15.445 -21.445 -27.539  1.00  0.00    -0.015 N
HETATM    4  C1  UNL     1      14.531 -20.571 -28.286  1.00  0.00     0.287 C
HETATM    5  C2  UNL     1      16.404 -21.890 -28.568  1.00  0.00     0.287 C
HETATM    6 BR1  UNL     1      14.521 -22.984 -27.022  1.00  0.00     0.163 Br
ENDBRANCH   2   3
ENDBRANCH   1   2
BRANCH   1   7
HETATM    7  O1  UNL     1      16.942 -21.934 -24.558  1.00  0.00    -0.388 OA
ATOM      8  H1  UNL     1      17.170 -22.833 -24.356  1.00  0.00     0.210 HD
ENDBRANCH   1   7
BRANCH   1   9
HETATM    9  C5  UNL     1      18.559 -20.779 -25.799  1.00  0.00     0.243 A
HETATM   10  O3  UNL     1      19.129 -20.437 -24.599  1.00  0.00    -0.313 OA
HETATM   11  C6  UNL     1      19.735 -21.551 -25.274  1.00  0.00     0.326 A
BRANCH   9  12
HETATM   12  O2  UNL     1      18.880 -19.977 -26.914  1.00  0.00    -0.359 OA
ATOM     13  H2  UNL     1      19.748 -20.074 -27.287  1.00  0.00     0.213 HD
ENDBRANCH   9  12
BRANCH  11  14
HETATM   14  O4  UNL     1      21.014 -21.259 -25.692  1.00  0.00    -0.366 OA
ATOM     15  H4  UNL     1      21.185 -20.989 -26.586  1.00  0.00     0.212 HD
ENDBRANCH  11  14
ENDBRANCH   1   9
TORSDOF 6
ENDMDL