MODEL 1
REMARK VINA RESULT: -4.953453262      0.000      0.000
REMARK  6 active torsions:
REMARK  status: ('A' for Active; 'I' for Inactive)
REMARK    1  A    between atoms: N1_2  and  C4_5
REMARK    2  A    between atoms: C4_5  and  C5_6
REMARK    3  A    between atoms: C7_10  and  N2_11
REMARK    4  A    between atoms: N2_11  and  O2_13
REMARK    5  A    between atoms: C8_15  and  O3_16
REMARK    6  A    between atoms: C9_18  and  O4_19
ROOT
HETATM    1  C5  UNL     1      17.333 -21.879 -27.387  1.00  0.00     0.182 C
HETATM    2  O1  UNL     1      16.583 -22.293 -26.334  1.00  0.00    -0.345 OA
HETATM    3  C6  UNL     1      15.366 -21.731 -26.158  1.00  0.00     0.334 C
HETATM    4  F1  UNL     1      15.382 -20.481 -25.564  1.00  0.00    -0.217 F
HETATM    5  C7  UNL     1      14.518 -21.626 -27.395  1.00  0.00     0.197 C
HETATM    6  C8  UNL     1      15.277 -21.051 -28.568  1.00  0.00     0.179 C
HETATM    7  C9  UNL     1      16.574 -21.764 -28.689  1.00  0.00     0.179 C
ENDROOT
BRANCH   1   8
HETATM    8  C4  UNL     1      18.112 -20.620 -27.145  1.00  0.00     0.270 C
BRANCH   8   9
HETATM    9  N1  UNL     1      19.205 -20.749 -26.253  1.00  0.00    -0.076 N
HETATM   10  C1  UNL     1      20.260 -19.758 -26.501  1.00  0.00     0.271 C
HETATM   11  C2  UNL     1      19.832 -22.029 -26.209  1.00  0.00     0.271 C
HETATM   12  C3  UNL     1      18.729 -20.458 -24.890  1.00  0.00     0.271 C
ENDBRANCH   8   9
ENDBRANCH   1   8
BRANCH   7  13
HETATM   13  O4  UNL     1      17.367 -21.122 -29.629  1.00  0.00    -0.390 OA
ATOM     14  H4  UNL     1      17.370 -21.625 -30.435  1.00  0.00     0.210 HD
ENDBRANCH   7  13
BRANCH   6  15
HETATM   15  O3  UNL     1      15.394 -19.684 -28.452  1.00  0.00    -0.391 OA
ATOM     16  H3  UNL     1      16.295 -19.436 -28.282  1.00  0.00     0.210 HD
ENDBRANCH   6  15
BRANCH   5  17
HETATM   17  N2  UNL     1      13.942 -22.896 -27.668  1.00  0.00    -0.293 N
ATOM     18  H2  UNL     1      12.980 -22.917 -28.007  1.00  0.00     0.188 HD
BRANCH  17  19
HETATM   19  O2  UNL     1      14.506 -23.940 -27.529  1.00  0.00    -0.294 OA
ATOM     20  H2  UNL     1      15.188 -24.266 -28.105  1.00  0.00     0.244 HD
ENDBRANCH  17  19
ENDBRANCH   5  17
TORSDOF 6
ENDMDL