MODEL 1
REMARK VINA RESULT: -5.887236088      0.000      0.000
REMARK  4 active torsions:
REMARK  status: ('A' for Active; 'I' for Inactive)
REMARK    1  A    between atoms: N1_1  and  N2_4
REMARK       I    between atoms: C1_6  and  N4_8
REMARK    2  A    between atoms: N4_8  and  C2_10
REMARK    3  A    between atoms: C2_10  and  C3_11
REMARK    4  A    between atoms: N5_13  and  C5_14
ROOT
HETATM    1  C3  UNL     1      17.807 -21.515 -26.305  1.00  0.00     0.067 C
HETATM    2  C4  UNL     1      16.593 -20.664 -26.140  1.00  0.00     0.282 C
HETATM    3  N5  UNL     1      15.834 -20.886 -27.364  1.00  0.00     0.100 N
HETATM    4  C8  UNL     1      16.679 -21.556 -28.297  1.00  0.00     0.310 C
HETATM    5  C9  UNL     1      18.113 -21.313 -27.782  1.00  0.00     0.205 C
HETATM    6  F1  UNL     1      18.361 -19.980 -28.061  1.00  0.00    -0.247 F
ENDROOT
BRANCH   1   7
HETATM    7  C2  UNL     1      18.956 -21.196 -25.420  1.00  0.00     0.131 C
BRANCH   7   8
HETATM    8  N4  UNL     1      20.236 -21.349 -26.040  1.00  0.00    -0.363 N
HETATM    9  C1  UNL     1      21.100 -20.229 -26.092  1.00  0.00     0.202 C
HETATM   10  N2  UNL     1      21.044 -19.454 -27.109  1.00  0.00    -0.280 N
HETATM   11  N3  UNL     1      22.015 -19.943 -25.051  1.00  0.00    -0.062 NA
ATOM     12  H2  UNL     1      20.386 -19.656 -27.862  1.00  0.00     0.189 HD
ATOM     13  H4  UNL     1      20.519 -22.245 -26.436  1.00  0.00     0.162 HD
BRANCH  10  14
HETATM   14  N1  UNL     1      21.870 -18.342 -27.198  1.00  0.00    -0.343 N
ATOM     15  H12 UNL     1      22.874 -18.468 -27.081  1.00  0.00     0.176 HD
ATOM     16  H11 UNL     1      21.478 -17.417 -27.376  1.00  0.00     0.176 HD
ENDBRANCH  10  14
ENDBRANCH   7   8
ENDBRANCH   1   7
BRANCH   3  17
HETATM   17  C5  UNL     1      14.620 -21.540 -27.008  1.00  0.00     0.270 C
HETATM   18  C6  UNL     1      13.819 -21.803 -28.294  1.00  0.00     0.205 C
HETATM   19  O1  UNL     1      13.435 -23.023 -27.770  1.00  0.00    -0.387 OA
HETATM   20  C7  UNL     1      14.575 -23.022 -26.965  1.00  0.00     0.205 C
ENDBRANCH   3  17
TORSDOF 4
ENDMDL