MODEL 5
REMARK VINA RESULT: -5.255009680      1.401      1.993
REMARK  4 active torsions:
REMARK  status: ('A' for Active; 'I' for Inactive)
REMARK    1  A    between atoms: N3_4  and  C2_6
REMARK    2  A    between atoms: C4_8  and  N4_9
REMARK    3  A    between atoms: C7_13  and  C8_14
REMARK    4  A    between atoms: C8_14  and  O1_15
ROOT
HETATM    1  N4  UNL     1      17.399 -21.347 -26.711  1.00  0.00    -0.264 N
HETATM    2  C5  UNL     1      16.510 -21.526 -25.640  1.00  0.00     0.128 C
HETATM    3  C6  UNL     1      15.057 -21.482 -25.941  1.00  0.00     0.218 C
HETATM    4  F1  UNL     1      14.450 -22.597 -25.350  1.00  0.00    -0.243 F
HETATM    5  C7  UNL     1      14.682 -21.469 -27.372  1.00  0.00     0.074 C
HETATM    6  C9  UNL     1      15.813 -21.983 -28.207  1.00  0.00     0.211 C
HETATM    7  O2  UNL     1      16.915 -21.176 -27.926  1.00  0.00    -0.278 OA
ENDROOT
BRANCH   1   8
HETATM    8  C4  UNL     1      18.484 -20.415 -26.492  1.00  0.00     0.138 A
HETATM    9  C2  UNL     1      19.876 -20.931 -26.563  1.00  0.00     0.111 A
HETATM   10  C3  UNL     1      19.369 -20.075 -27.723  1.00  0.00     0.057 A
BRANCH   9  11
HETATM   11  N3  UNL     1      20.908 -20.494 -25.734  1.00  0.00    -0.360 N
HETATM   12  C1  UNL     1      21.815 -19.662 -25.728  1.00  0.00     0.197 C
HETATM   13  N1  UNL     1      22.688 -19.567 -24.582  1.00  0.00    -0.067 NA
HETATM   14  N2  UNL     1      22.077 -18.767 -26.780  1.00  0.00    -0.067 NA
ATOM     15  H3  UNL     1      20.913 -21.028 -24.866  1.00  0.00     0.162 HD
ENDBRANCH   9  11
ENDBRANCH   1   8
BRANCH   5  16
HETATM   16  C8  UNL     1      13.455 -22.325 -27.677  1.00  0.00     0.174 C
BRANCH  16  17
HETATM   17  O1  UNL     1      13.833 -23.661 -27.778  1.00  0.00    -0.400 OA
ATOM     18  H1  UNL     1      13.061 -24.213 -27.750  1.00  0.00     0.209 HD
ENDBRANCH  16  17
ENDBRANCH   5  16
TORSDOF 4
ENDMDL