MODEL 5
REMARK VINA RESULT: -6.948372006      3.119      4.326
REMARK  6 active torsions:
REMARK  status: ('A' for Active; 'I' for Inactive)
REMARK    1  A    between atoms: C2_2  and  C3_3
REMARK    2  A    between atoms: C5_6  and  C6_7
REMARK    3  A    between atoms: C6_7  and  C7_8
REMARK    4  A    between atoms: C8_9  and  C9_10
REMARK    5  A    between atoms: N2_11  and  N3_13
REMARK    6  A    between atoms: N3_13  and  C10_15
ROOT
HETATM    1  C3  UNL     1      67.595  53.257  10.770  1.00  0.00     0.018 C
HETATM    2  C4  UNL     1      67.541  54.559  10.099  1.00  0.00     0.094 C
HETATM    3  N1  UNL     1      67.517  55.582   9.561  1.00  0.00    -0.192 NA
HETATM    4  C5  UNL     1      68.645  52.494  10.591  1.00  0.00    -0.008 C
ENDROOT
BRANCH   1   5
HETATM    5  C2  UNL     1      66.424  52.945  11.593  1.00  0.00     0.045 C
HETATM    6  C1  UNL     1      65.674  54.233  11.990  1.00  0.00     0.011 C
ENDBRANCH   1   5
BRANCH   4   7
HETATM    7  C6  UNL     1      68.806  51.195  11.200  1.00  0.00     0.038 C
BRANCH   7   8
HETATM    8  C7  UNL     1      68.551  49.990  10.325  1.00  0.00     0.031 C
HETATM    9  C8  UNL     1      67.654  49.060  11.052  1.00  0.00    -0.040 C
HETATM   10  C11 UNL     1      68.006  47.808  11.384  1.00  0.00    -0.018 C
HETATM   11  C12 UNL     1      69.381  47.316  10.996  1.00  0.00     0.028 C
HETATM   12  C13 UNL     1      69.543  47.872   9.577  1.00  0.00     0.013 C
HETATM   13  C14 UNL     1      69.750  49.389   9.720  1.00  0.00    -0.040 C
HETATM   14  C15 UNL     1      71.050  49.535  10.427  1.00  0.00     0.015 C
HETATM   15  C16 UNL     1      69.984  49.863   8.282  1.00  0.00     0.015 C
BRANCH   9  16
HETATM   16  C9  UNL     1      66.286  49.406  11.434  1.00  0.00     0.114 C
HETATM   17  N2  UNL     1      65.616  48.872  12.389  1.00  0.00    -0.309 N
ATOM     18  H2  UNL     1      66.072  48.140  12.935  1.00  0.00     0.186 HD
BRANCH  17  19
HETATM   19  N3  UNL     1      64.312  49.218  12.735  1.00  0.00    -0.279 N
ATOM     20  H3  UNL     1      63.606  48.485  12.803  1.00  0.00     0.189 HD
BRANCH  19  21
HETATM   21  C10 UNL     1      63.939  50.557  12.994  1.00  0.00     0.199 C
HETATM   22  N4  UNL     1      64.414  51.248  14.127  1.00  0.00    -0.068 NA
HETATM   23  S1  UNL     1      62.937  51.307  11.956  1.00  0.00    -0.043 SA
ENDBRANCH  19  21
ENDBRANCH  17  19
ENDBRANCH   9  16
ENDBRANCH   7   8
ENDBRANCH   4   7
TORSDOF 6
ENDMDL