MODEL 5
REMARK VINA RESULT: -6.441337942      2.705      3.744
REMARK  5 active torsions:
REMARK  status: ('A' for Active; 'I' for Inactive)
REMARK       I    between atoms: C2_2  and  N1_4
REMARK    1  A    between atoms: N1_4  and  C3_6
REMARK    2  A    between atoms: C3_6  and  C4_7
REMARK    3  A    between atoms: C4_7  and  S1_8
REMARK    4  A    between atoms: S1_8  and  C5_9
REMARK    5  A    between atoms: C13_19  and  C14_20
ROOT
HETATM    1  C5  UNL     1      69.960  49.429   9.203  1.00  0.00     0.056 C
HETATM    2  C6  UNL     1      69.768  48.555  10.460  1.00  0.00     0.045 C
HETATM    3  C7  UNL     1      69.415  47.198   9.988  1.00  0.00     0.020 C
HETATM    4  C8  UNL     1      69.592  46.117  11.033  1.00  0.00     0.037 C
HETATM    5  C9  UNL     1      67.897  47.230   9.703  1.00  0.00     0.037 C
HETATM    6  N2  UNL     1      70.033  46.938   8.764  1.00  0.00    -0.405 N
ATOM      7  H2  UNL     1      69.599  46.343   8.059  1.00  0.00     0.154 HD
HETATM    8  C10 UNL     1      71.347  47.571   8.546  1.00  0.00     0.024 C
HETATM    9  C11 UNL     1      71.757  46.930   7.236  1.00  0.00     0.038 C
HETATM   10  C12 UNL     1      72.387  47.002   9.508  1.00  0.00     0.038 C
HETATM   11  C13 UNL     1      71.291  49.042   8.615  1.00  0.00     0.034 C
ENDROOT
BRANCH   1  12
HETATM   12  S1  UNL     1      69.764  51.080   9.823  1.00  0.00    -0.162 SA
BRANCH  12  13
HETATM   13  C4  UNL     1      68.667  51.075  11.234  1.00  0.00     0.094 C
BRANCH  13  14
HETATM   14  C3  UNL     1      67.344  51.772  10.905  1.00  0.00     0.132 C
BRANCH  14  15
HETATM   15  N1  UNL     1      67.575  52.944  10.092  1.00  0.00    -0.361 N
HETATM   16  C2  UNL     1      67.298  54.244  10.578  1.00  0.00     0.213 C
HETATM   17  C1  UNL     1      67.533  55.441   9.749  1.00  0.00     0.117 C
HETATM   18  O1  UNL     1      66.840  54.367  11.740  1.00  0.00    -0.274 OA
ATOM     19  H1  UNL     1      67.947  52.832   9.149  1.00  0.00     0.162 HD
ENDBRANCH  14  15
ENDBRANCH  13  14
ENDBRANCH  12  13
ENDBRANCH   1  12
BRANCH  11  20
HETATM   20  C14 UNL     1      71.644  49.865   7.434  1.00  0.00    -0.044 C
HETATM   21  C15 UNL     1      72.758  49.315   6.599  1.00  0.00     0.015 C
HETATM   22  C16 UNL     1      70.434  50.027   6.540  1.00  0.00     0.015 C
HETATM   23  C17 UNL     1      72.058  51.287   7.776  1.00  0.00     0.015 C
ENDBRANCH  11  20
TORSDOF 5
ENDMDL