MODEL 4
REMARK VINA RESULT: -7.054084357      1.746      2.989
REMARK  7 active torsions:
REMARK  status: ('A' for Active; 'I' for Inactive)
REMARK    1  A    between atoms: C2_2  and  C3_3
REMARK    2  A    between atoms: C8_8  and  O1_9
REMARK    3  A    between atoms: C9_11  and  C10_12
REMARK    4  A    between atoms: C11_13  and  C12_14
REMARK    5  A    between atoms: C12_14  and  O2_15
REMARK    6  A    between atoms: C12_14  and  C13_17
REMARK    7  A    between atoms: C14_18  and  C15_19
ROOT
HETATM    1  C10 UNL     1      67.360  50.501  11.028  1.00  0.00     0.012 C
HETATM    2  C11 UNL     1      68.583  50.327  11.481  1.00  0.00     0.007 C
ENDROOT
BRANCH   1   3
HETATM    3  C9  UNL     1      66.402  51.494  11.545  1.00  0.00     0.108 C
HETATM    4  C3  UNL     1      67.018  52.855  11.570  1.00  0.00     0.026 C
HETATM    5  C4  UNL     1      66.084  53.869  12.196  1.00  0.00     0.010 C
HETATM    6  C5  UNL     1      64.685  53.747  11.613  1.00  0.00     0.032 C
HETATM    7  C6  UNL     1      64.345  52.271  11.594  1.00  0.00     0.125 C
HETATM    8  C7  UNL     1      64.524  51.766  13.019  1.00  0.00     0.067 C
HETATM    9  O3  UNL     1      65.227  51.547  10.806  1.00  0.00    -0.368 OA
HETATM   10  C8  UNL     1      65.921  51.162  12.940  1.00  0.00     0.159 C
BRANCH   4  11
HETATM   11  C2  UNL     1      67.407  53.369  10.214  1.00  0.00     0.003 C
HETATM   12  C1  UNL     1      67.581  54.870  10.308  1.00  0.00     0.005 C
ENDBRANCH   4  11
BRANCH  10  13
HETATM   13  O1  UNL     1      65.783  49.800  13.143  1.00  0.00    -0.392 OA
ATOM     14  H1  UNL     1      65.191  49.689  13.877  1.00  0.00     0.210 HD
ENDBRANCH  10  13
ENDBRANCH   1   3
BRANCH   2  15
HETATM   15  C12 UNL     1      69.492  49.313  10.918  1.00  0.00     0.163 C
BRANCH  15  16
HETATM   16  O2  UNL     1      68.861  48.608   9.868  1.00  0.00    -0.388 OA
ATOM     17  H2  UNL     1      69.400  47.880   9.582  1.00  0.00     0.210 HD
ENDBRANCH  15  16
BRANCH  15  18
HETATM   18  C13 UNL     1      70.688  49.955  10.320  1.00  0.00     0.005 C
HETATM   19  C14 UNL     1      70.750  50.118   9.015  1.00  0.00    -0.023 C
BRANCH  19  20
HETATM   20  C15 UNL     1      71.936  50.763   8.352  1.00  0.00     0.011 C
HETATM   21  C16 UNL     1      73.195  50.065   8.749  1.00  0.00     0.035 C
HETATM   22  C17 UNL     1      73.560  48.930   7.863  1.00  0.00    -0.030 C
HETATM   23  C18 UNL     1      72.938  48.601   6.743  1.00  0.00    -0.031 C
HETATM   24  C19 UNL     1      71.780  49.379   6.278  1.00  0.00     0.027 C
HETATM   25  C20 UNL     1      71.703  50.751   6.857  1.00  0.00     0.012 C
ENDBRANCH  19  20
ENDBRANCH  15  18
ENDBRANCH   2  15
TORSDOF 7
ENDMDL