MODEL 3
REMARK VINA RESULT: -6.589924703      3.124      5.786
REMARK  7 active torsions:
REMARK  status: ('A' for Active; 'I' for Inactive)
REMARK    1  A    between atoms: C9_9  and  O1_10
REMARK    2  A    between atoms: C13_15  and  C14_16
REMARK    3  A    between atoms: C14_16  and  O2_17
REMARK    4  A    between atoms: C14_16  and  C15_19
REMARK    5  A    between atoms: C15_19  and  C16_20
REMARK    6  A    between atoms: C16_20  and  C17_21
REMARK    7  A    between atoms: C17_21  and  C19_23
ROOT
HETATM    1  C1  UNL     1      65.110  47.292   8.822  1.00  0.00     0.014 C
HETATM    2  C2  UNL     1      65.400  47.963   9.892  1.00  0.00    -0.085 C
HETATM    3  C3  UNL     1      64.864  47.434  11.219  1.00  0.00     0.034 C
HETATM    4  C4  UNL     1      65.996  46.972  12.073  1.00  0.00     0.005 C
HETATM    5  C5  UNL     1      67.298  47.702  11.743  1.00  0.00     0.006 C
HETATM    6  C6  UNL     1      66.913  49.097  11.329  1.00  0.00     0.005 C
HETATM    7  C7  UNL     1      66.191  49.209  10.031  1.00  0.00     0.021 C
HETATM    8  C8  UNL     1      67.009  49.612   8.874  1.00  0.00     0.042 C
HETATM    9  C9  UNL     1      68.456  49.402   9.100  1.00  0.00     0.127 C
HETATM   10  C10 UNL     1      68.994  50.094  10.332  1.00  0.00    -0.012 C
HETATM   11  C11 UNL     1      69.454  51.452   9.880  1.00  0.00     0.018 C
HETATM   12  C12 UNL     1      70.262  49.312  10.637  1.00  0.00     0.018 C
HETATM   13  C13 UNL     1      68.082  50.092  11.506  1.00  0.00     0.057 C
ENDROOT
BRANCH  13  14
HETATM   14  C14 UNL     1      67.504  51.351  11.960  1.00  0.00     0.048 C
BRANCH  14  15
HETATM   15  O2  UNL     1      68.403  52.184  12.673  1.00  0.00    -0.365 OA
ATOM     16  H2  UNL     1      67.991  52.913  13.120  1.00  0.00     0.217 HD
ENDBRANCH  14  15
BRANCH  14  17
HETATM   17  C15 UNL     1      66.112  51.540  12.363  1.00  0.00     0.029 C
BRANCH  17  18
HETATM   18  C16 UNL     1      65.182  52.434  11.649  1.00  0.00    -0.013 C
BRANCH  18  19
HETATM   19  C17 UNL     1      64.945  53.824  12.055  1.00  0.00     0.065 C
HETATM   20  C18 UNL     1      66.107  54.721  11.646  1.00  0.00     0.021 C
BRANCH  19  21
HETATM   21  C19 UNL     1      63.768  54.406  11.270  1.00  0.00     0.239 C
HETATM   22  O3  UNL     1      63.926  55.348  10.552  1.00  0.00    -0.306 OA
ENDBRANCH  19  21
ENDBRANCH  18  19
ENDBRANCH  17  18
ENDBRANCH  14  17
ENDBRANCH  13  14
BRANCH   9  23
HETATM   23  O1  UNL     1      69.191  49.770   7.956  1.00  0.00    -0.395 OA
ATOM     24  H1  UNL     1      68.760  49.457   7.169  1.00  0.00     0.210 HD
ENDBRANCH   9  23
TORSDOF 7
ENDMDL