MODEL 4
REMARK VINA RESULT: -6.209795222      1.869      6.277
REMARK  8 active torsions:
REMARK  status: ('A' for Active; 'I' for Inactive)
REMARK    1  A    between atoms: C2_2  and  C3_3
REMARK    2  A    between atoms: C2_2  and  C4_6
REMARK    3  A    between atoms: C3_3  and  O1_4
REMARK    4  A    between atoms: C4_6  and  C5_7
REMARK    5  A    between atoms: C5_7  and  C8_10
REMARK    6  A    between atoms: C11_13  and  C12_14
REMARK    7  A    between atoms: C12_14  and  O2_15
REMARK    8  A    between atoms: C12_14  and  C13_17
ROOT
HETATM    1  C8  UNL     1      66.845  50.450  12.115  1.00  0.00     0.063 C
HETATM    2  C9  UNL     1      66.953  49.094  11.452  1.00  0.00     0.013 C
HETATM    3  C10 UNL     1      68.345  48.546  11.461  1.00  0.00     0.009 C
HETATM    4  C11 UNL     1      69.441  49.437  11.061  1.00  0.00     0.026 C
HETATM    5  C17 UNL     1      69.009  50.896  10.875  1.00  0.00     0.058 C
HETATM    6  C18 UNL     1      68.511  51.175   9.480  1.00  0.00     0.018 C
HETATM    7  C19 UNL     1      68.037  51.265  11.940  1.00  0.00     0.136 C
HETATM    8  O3  UNL     1      68.285  52.233  12.620  1.00  0.00    -0.297 OA
ENDROOT
BRANCH   1   9
HETATM    9  C5  UNL     1      65.545  51.129  11.875  1.00  0.00    -0.037 C
HETATM   10  C6  UNL     1      64.557  50.436  11.016  1.00  0.00     0.015 C
HETATM   11  C7  UNL     1      64.862  51.312  13.264  1.00  0.00     0.015 C
BRANCH   9  12
HETATM   12  C4  UNL     1      65.794  52.522  11.386  1.00  0.00     0.015 C
BRANCH  12  13
HETATM   13  C2  UNL     1      65.059  53.638  12.012  1.00  0.00     0.006 C
HETATM   14  C1  UNL     1      63.785  54.103  11.430  1.00  0.00     0.012 C
BRANCH  13  15
HETATM   15  C3  UNL     1      66.020  54.849  11.922  1.00  0.00     0.168 C
BRANCH  15  16
HETATM   16  O1  UNL     1      67.135  54.537  11.188  1.00  0.00    -0.400 OA
ATOM     17  H1  UNL     1      67.921  54.868  11.607  1.00  0.00     0.209 HD
ENDBRANCH  15  16
ENDBRANCH  13  15
ENDBRANCH  12  13
ENDBRANCH   9  12
ENDBRANCH   1   9
BRANCH   4  18
HETATM   18  C12 UNL     1      70.216  49.067   9.843  1.00  0.00     0.131 C
BRANCH  18  19
HETATM   19  O2  UNL     1      71.558  49.453  10.073  1.00  0.00    -0.394 OA
ATOM     20  H2  UNL     1      71.900  48.878  10.747  1.00  0.00     0.210 HD
ENDBRANCH  18  19
BRANCH  18  21
HETATM   21  C13 UNL     1      70.214  47.622   9.483  1.00  0.00    -0.018 A
HETATM   22  C14 UNL     1      70.990  46.625  10.293  1.00  0.00     0.018 C
HETATM   23  C15 UNL     1      70.334  47.389   7.940  1.00  0.00     0.012 A
HETATM   24  C16 UNL     1      69.047  47.148   8.626  1.00  0.00     0.012 A
ENDBRANCH  18  21
ENDBRANCH   4  18
TORSDOF 8
ENDMDL