MODEL 5
REMARK VINA RESULT: -6.990740100      3.050      6.128
REMARK  6 active torsions:
REMARK  status: ('A' for Active; 'I' for Inactive)
REMARK    1  A    between atoms: C4_4  and  C5_5
REMARK    2  A    between atoms: C5_5  and  C7_7
REMARK    3  A    between atoms: C10_12  and  C11_13
REMARK    4  A    between atoms: C11_13  and  C12_14
REMARK    5  A    between atoms: C12_14  and  C13_15
REMARK    6  A    between atoms: C13_15  and  O3_16
ROOT
HETATM    1  C1  UNL     1      69.121  52.400  10.381  1.00  0.00     0.014 C
HETATM    2  C2  UNL     1      68.082  51.869  11.307  1.00  0.00     0.005 C
HETATM    3  C3  UNL     1      67.060  52.885  11.680  1.00  0.00    -0.018 C
HETATM    4  C4  UNL     1      65.783  52.613  11.964  1.00  0.00    -0.065 C
HETATM    5  C8  UNL     1      65.231  51.238  11.873  1.00  0.00     0.024 C
HETATM    6  C9  UNL     1      64.402  50.791  13.046  1.00  0.00     0.041 C
HETATM    7  C10 UNL     1      63.969  49.347  12.686  1.00  0.00     0.123 C
HETATM    8  O4  UNL     1      65.087  48.515  12.668  1.00  0.00    -0.375 OA
HETATM    9  C14 UNL     1      65.942  48.827  11.617  1.00  0.00     0.058 C
HETATM   10  C15 UNL     1      65.356  48.541  10.268  1.00  0.00     0.046 C
HETATM   11  C16 UNL     1      67.187  47.966  11.806  1.00  0.00     0.046 C
HETATM   12  C17 UNL     1      66.376  50.259  11.790  1.00  0.00     0.028 C
HETATM   13  C18 UNL     1      67.298  50.705  10.677  1.00  0.00     0.016 C
ENDROOT
BRANCH   4  14
HETATM   14  C5  UNL     1      64.935  53.800  12.317  1.00  0.00     0.112 C
HETATM   15  C6  UNL     1      65.792  55.068  12.428  1.00  0.00     0.026 C
BRANCH  14  16
HETATM   16  C7  UNL     1      63.930  54.108  11.245  1.00  0.00     0.180 C
HETATM   17  O1  UNL     1      62.984  53.333  10.977  1.00  0.00    -0.647 OA
HETATM   18  O2  UNL     1      64.027  55.297  10.499  1.00  0.00    -0.647 OA
ENDBRANCH  14  16
ENDBRANCH   4  14
BRANCH   7  19
HETATM   19  C11 UNL     1      63.065  48.870  13.791  1.00  0.00     0.034 C
BRANCH  19  20
HETATM   20  C12 UNL     1      63.927  48.074  14.779  1.00  0.00     0.028 C
BRANCH  20  21
HETATM   21  C13 UNL     1      63.518  48.496  16.192  1.00  0.00     0.164 C
BRANCH  21  22
HETATM   22  O3  UNL     1      63.906  49.822  16.376  1.00  0.00    -0.401 OA
ATOM     23  H3  UNL     1      63.129  50.331  16.573  1.00  0.00     0.209 HD
ENDBRANCH  21  22
ENDBRANCH  20  21
ENDBRANCH  19  20
ENDBRANCH   7  19
TORSDOF 6
ENDMDL