MODEL 4
REMARK VINA RESULT: -6.798740232      2.402      3.585
REMARK  6 active torsions:
REMARK  status: ('A' for Active; 'I' for Inactive)
REMARK    1  A    between atoms: C2_2  and  C3_3
REMARK    2  A    between atoms: C3_3  and  C4_4
REMARK    3  A    between atoms: C3_3  and  N3_23
REMARK    4  A    between atoms: C4_4  and  O1_5
REMARK    5  A    between atoms: C4_4  and  C5_7
REMARK    6  A    between atoms: C9_11  and  C10_12
ROOT
HETATM    1  C10 UNL     1      67.491  50.275  11.310  1.00  0.00     0.012 A
HETATM    2  C11 UNL     1      66.579  49.672  12.182  1.00  0.00     0.101 A
HETATM    3  N1  UNL     1      65.972  50.646  12.886  1.00  0.00    -0.373 N
ATOM      4  H1  UNL     1      65.257  50.503  13.600  1.00  0.00     0.164 HD
HETATM    5  C12 UNL     1      66.456  51.830  12.499  1.00  0.00     0.111 A
HETATM    6  C13 UNL     1      67.402  51.619  11.517  1.00  0.00     0.072 A
HETATM    7  C14 UNL     1      68.144  52.677  10.885  1.00  0.00     0.102 C
HETATM    8  N2  UNL     1      68.734  53.548  10.383  1.00  0.00    -0.191 NA
ENDROOT
BRANCH   1   9
HETATM    9  C9  UNL     1      68.366  49.567  10.379  1.00  0.00    -0.017 A
HETATM   10  C7  UNL     1      68.016  49.139   9.129  1.00  0.00    -0.050 A
HETATM   11  C6  UNL     1      68.944  48.499   8.325  1.00  0.00     0.022 A
HETATM   12  C8  UNL     1      66.629  49.382   8.613  1.00  0.00     0.049 C
HETATM   13  C5  UNL     1      70.246  48.265   8.733  1.00  0.00     0.005 A
HETATM   14  C16 UNL     1      70.570  48.709  10.020  1.00  0.00    -0.048 A
HETATM   15  C15 UNL     1      69.650  49.334  10.795  1.00  0.00     0.020 A
HETATM   16  C17 UNL     1      71.914  48.359  10.549  1.00  0.00     0.049 C
BRANCH  13  17
HETATM   17  C4  UNL     1      71.336  47.841   7.855  1.00  0.00     0.098 C
BRANCH  17  18
HETATM   18  C3  UNL     1      71.968  48.755   6.899  1.00  0.00     0.040 C
BRANCH  18  19
HETATM   19  C2  UNL     1      71.434  50.144   6.823  1.00  0.00     0.055 C
HETATM   20  C1  UNL     1      72.288  51.101   7.627  1.00  0.00     0.011 C
ENDBRANCH  18  19
BRANCH  18  21
HETATM   21  N3  UNL     1      73.347  48.681   6.669  1.00  0.00    -0.391 N
HETATM   22  C18 UNL     1      73.775  48.125   5.410  1.00  0.00     0.149 C
HETATM   23  C19 UNL     1      74.201  48.421   7.767  1.00  0.00     0.149 C
ENDBRANCH  18  21
ENDBRANCH  17  18
BRANCH  17  24
HETATM   24  O1  UNL     1      71.435  46.474   7.648  1.00  0.00    -0.358 OA
ATOM     25  H1  UNL     1      71.449  45.892   8.399  1.00  0.00     0.217 HD
ENDBRANCH  17  24
ENDBRANCH  13  17
ENDBRANCH   1   9
TORSDOF 6
ENDMDL