MODEL 2
REMARK VINA RESULT: -6.870884983      3.386      7.417
REMARK  7 active torsions:
REMARK  status: ('A' for Active; 'I' for Inactive)
REMARK    1  A    between atoms: N1_2  and  C3_4
REMARK    2  A    between atoms: C3_4  and  C4_5
REMARK    3  A    between atoms: C4_5  and  C5_6
REMARK    4  A    between atoms: C5_6  and  C6_7
REMARK    5  A    between atoms: C6_7  and  O1_9
REMARK    6  A    between atoms: C6_7  and  C8_11
REMARK    7  A    between atoms: C19_22  and  O2_23
ROOT
HETATM    1  C8  UNL     1      71.342  49.140   8.582  1.00  0.00     0.049 C
HETATM    2  C9  UNL     1      71.611  48.915  10.053  1.00  0.00     0.010 C
HETATM    3  C10 UNL     1      70.349  48.375  10.684  1.00  0.00     0.005 C
HETATM    4  C11 UNL     1      69.416  49.577  10.702  1.00  0.00    -0.007 C
HETATM    5  C12 UNL     1      68.179  49.308  11.505  1.00  0.00     0.014 C
HETATM    6  C13 UNL     1      67.245  50.492  11.339  1.00  0.00    -0.047 C
HETATM    7  C14 UNL     1      66.803  50.998  12.720  1.00  0.00     0.015 C
HETATM    8  C15 UNL     1      66.014  50.129  10.548  1.00  0.00     0.015 C
HETATM    9  C16 UNL     1      67.910  51.667  10.658  1.00  0.00     0.009 C
HETATM   10  C17 UNL     1      68.489  51.318   9.314  1.00  0.00     0.008 C
HETATM   11  C18 UNL     1      69.008  49.894   9.291  1.00  0.00     0.019 C
HETATM   12  C19 UNL     1      70.034  49.731   8.245  1.00  0.00     0.129 C
ENDROOT
BRANCH   1  13
HETATM   13  C6  UNL     1      72.463  50.023   7.998  1.00  0.00     0.060 C
HETATM   14  C7  UNL     1      72.060  51.446   7.813  1.00  0.00     0.046 C
BRANCH  13  15
HETATM   15  C5  UNL     1      73.048  49.423   6.779  1.00  0.00     0.039 C
BRANCH  15  16
HETATM   16  C4  UNL     1      72.912  47.969   6.538  1.00  0.00     0.033 C
BRANCH  16  17
HETATM   17  C3  UNL     1      72.120  47.476   5.395  1.00  0.00     0.271 C
BRANCH  17  18
HETATM   18  N1  UNL     1      73.021  47.144   4.257  1.00  0.00     0.080 N
HETATM   19  C1  UNL     1      72.293  46.298   3.331  1.00  0.00     0.309 C
HETATM   20  C2  UNL     1      74.094  46.302   4.811  1.00  0.00     0.309 C
ENDBRANCH  17  18
ENDBRANCH  16  17
ENDBRANCH  15  16
ENDBRANCH  13  15
BRANCH  13  21
HETATM   21  O1  UNL     1      73.527  50.062   8.952  1.00  0.00    -0.390 OA
ATOM     22  H1  UNL     1      73.113  50.255   9.785  1.00  0.00     0.210 HD
ENDBRANCH  13  21
ENDBRANCH   1  13
BRANCH  12  23
HETATM   23  O2  UNL     1      69.430  48.902   7.252  1.00  0.00    -0.395 OA
ATOM     24  H2  UNL     1      68.710  48.440   7.665  1.00  0.00     0.210 HD
ENDBRANCH  12  23
TORSDOF 7
ENDMDL