MODEL 3
REMARK VINA RESULT: -6.989863522      0.942      1.283
REMARK  7 active torsions:
REMARK  status: ('A' for Active; 'I' for Inactive)
REMARK    1  A    between atoms: C2_2  and  C3_3
REMARK    2  A    between atoms: C9_10  and  O2_12
REMARK    3  A    between atoms: C11_14  and  C12_15
REMARK    4  A    between atoms: C13_16  and  C15_18
REMARK    5  A    between atoms: C15_18  and  C16_19
REMARK    6  A    between atoms: C17_20  and  C18_21
REMARK    7  A    between atoms: C18_21  and  O3_24
ROOT
HETATM    1  C3  UNL     1      72.963  48.886   6.767  1.00  0.00     0.084 C
HETATM    2  C4  UNL     1      71.572  49.269   6.585  1.00  0.00     0.140 C
HETATM    3  O1  UNL     1      70.925  49.076   5.582  1.00  0.00    -0.297 OA
HETATM    4  C5  UNL     1      70.893  49.956   7.726  1.00  0.00     0.066 C
HETATM    5  C6  UNL     1      71.758  51.140   8.179  1.00  0.00     0.013 C
HETATM    6  C7  UNL     1      73.196  50.731   8.275  1.00  0.00     0.009 C
HETATM    7  C8  UNL     1      73.315  49.218   8.218  1.00  0.00     0.035 C
HETATM    8  C9  UNL     1      72.329  48.644   9.202  1.00  0.00     0.066 C
HETATM    9  C10 UNL     1      72.407  47.154   9.324  1.00  0.00     0.047 C
HETATM   10  C11 UNL     1      70.893  48.981   8.878  1.00  0.00     0.054 C
ENDROOT
BRANCH  10  11
HETATM   11  C12 UNL     1      70.141  49.472  10.045  1.00  0.00    -0.016 C
HETATM   12  C13 UNL     1      68.905  49.087  10.342  1.00  0.00    -0.084 C
HETATM   13  C14 UNL     1      68.164  48.108   9.503  1.00  0.00     0.043 C
BRANCH  12  14
HETATM   14  C15 UNL     1      68.213  49.639  11.549  1.00  0.00     0.060 C
BRANCH  14  15
HETATM   15  C16 UNL     1      68.426  51.084  11.720  1.00  0.00    -0.024 C
HETATM   16  C17 UNL     1      67.544  52.023  11.912  1.00  0.00     0.006 C
BRANCH  16  17
HETATM   17  C18 UNL     1      66.076  51.801  11.999  1.00  0.00     0.068 C
HETATM   18  C19 UNL     1      65.739  50.919  13.187  1.00  0.00     0.050 C
HETATM   19  C20 UNL     1      65.279  53.079  12.053  1.00  0.00     0.050 C
BRANCH  17  20
HETATM   20  O3  UNL     1      65.648  51.118  10.844  1.00  0.00    -0.387 OA
ATOM     21  H3  UNL     1      66.012  50.240  10.852  1.00  0.00     0.211 HD
ENDBRANCH  17  20
ENDBRANCH  16  17
ENDBRANCH  14  15
ENDBRANCH  12  14
ENDBRANCH  10  11
BRANCH   8  22
HETATM   22  O2  UNL     1      72.666  49.174  10.448  1.00  0.00    -0.389 OA
ATOM     23  H2  UNL     1      71.957  48.941  11.037  1.00  0.00     0.210 HD
ENDBRANCH   8  22
BRANCH   1  24
HETATM   24  C2  UNL     1      73.381  47.562   6.356  1.00  0.00    -0.024 C
HETATM   25  C1  UNL     1      73.934  47.242   5.207  1.00  0.00     0.008 C
ENDBRANCH   1  24
TORSDOF 7
ENDMDL