MODEL 2
REMARK VINA RESULT: -5.783864404      1.574      2.208
REMARK  8 active torsions:
REMARK  status: ('A' for Active; 'I' for Inactive)
REMARK    1  A    between atoms: C4_6  and  N2_7
REMARK    2  A    between atoms: N2_7  and  C5_9
REMARK    3  A    between atoms: C5_9  and  C8_12
REMARK    4  A    between atoms: C8_12  and  C9_13
REMARK    5  A    between atoms: C9_13  and  C10_14
REMARK    6  A    between atoms: C10_14  and  C11_15
REMARK    7  A    between atoms: C11_15  and  N3_16
REMARK       I    between atoms: N3_16  and  C12_17
REMARK    8  A    between atoms: C12_17  and  C13_19
ROOT
HETATM    1  C5  UNL     1      65.982  51.433  11.567  1.00  0.00     0.025 C
HETATM    2  C6  UNL     1      66.180  50.807  12.900  1.00  0.00     0.038 C
HETATM    3  C7  UNL     1      65.075  52.669  11.838  1.00  0.00     0.038 C
ENDROOT
BRANCH   1   4
HETATM    4  N2  UNL     1      65.279  50.684  10.585  1.00  0.00    -0.362 N
ATOM      5  H2  UNL     1      64.283  50.866  10.468  1.00  0.00     0.162 HD
BRANCH   4   6
HETATM    6  C4  UNL     1      65.828  49.775   9.822  1.00  0.00     0.145 A
HETATM    7  N1  UNL     1      65.865  49.866   8.497  1.00  0.00    -0.346 N
HETATM    8  C3  UNL     1      66.437  48.893   7.823  1.00  0.00     0.104 A
ATOM      9  H1  UNL     1      65.460  50.669   8.016  1.00  0.00     0.167 HD
HETATM   10  C2  UNL     1      66.960  47.847   8.535  1.00  0.00    -0.003 A
HETATM   11  C1  UNL     1      67.664  46.614   8.029  1.00  0.00     0.058 C
HETATM   12  S1  UNL     1      66.612  48.300  10.139  1.00  0.00    -0.058 SA
ENDBRANCH   4   6
ENDBRANCH   1   4
BRANCH   1  13
HETATM   13  C8  UNL     1      67.306  51.959  11.056  1.00  0.00     0.030 C
BRANCH  13  14
HETATM   14  C9  UNL     1      68.496  51.517  11.851  1.00  0.00     0.009 C
BRANCH  14  15
HETATM   15  C10 UNL     1      69.519  50.820  10.980  1.00  0.00     0.060 C
BRANCH  15  16
HETATM   16  C11 UNL     1      69.190  51.047   9.504  1.00  0.00     0.159 C
BRANCH  16  17
HETATM   17  N3  UNL     1      69.979  50.336   8.627  1.00  0.00    -0.387 NA
HETATM   18  C12 UNL     1      70.758  49.633   7.759  1.00  0.00     0.298 C
HETATM   19  O1  UNL     1      70.438  48.655   7.063  1.00  0.00    -0.256 OA
BRANCH  18  20
HETATM   20  C13 UNL     1      72.214  50.049   7.581  1.00  0.00     0.044 C
HETATM   21  C14 UNL     1      72.973  49.983   8.870  1.00  0.00     0.026 C
HETATM   22  C15 UNL     1      72.815  49.090   6.592  1.00  0.00     0.026 C
HETATM   23  C16 UNL     1      72.166  51.480   7.054  1.00  0.00     0.026 C
ENDBRANCH  18  20
ENDBRANCH  16  17
ENDBRANCH  15  16
ENDBRANCH  14  15
ENDBRANCH  13  14
ENDBRANCH   1  13
TORSDOF 8
ENDMDL