MODEL 5
REMARK VINA RESULT: -8.363354628      2.473      4.186
REMARK  13 active torsions:
REMARK  status: ('A' for Active; 'I' for Inactive)
REMARK    1  A    between atoms: N1_2  and  C3_4
REMARK    2  A    between atoms: C6_7  and  C7_8
REMARK       I    between atoms: C7_8  and  N2_10
REMARK    3  A    between atoms: N2_10  and  C8_12
REMARK    4  A    between atoms: C8_12  and  C9_13
REMARK    5  A    between atoms: C8_12  and  C13_23
REMARK    6  A    between atoms: C9_13  and  C10_14
REMARK       I    between atoms: C13_23  and  N5_25
REMARK    7  A    between atoms: N5_25  and  C14_27
REMARK    8  A    between atoms: C14_27  and  N6_28
REMARK    9  A    between atoms: C14_27  and  C19_47
REMARK   10  A    between atoms: N6_28  and  C15_30
REMARK   11  A    between atoms: C16_33  and  N8_34
REMARK   12  A    between atoms: C17_37  and  N9_38
REMARK   13  A    between atoms: C18_41  and  N10_42
ROOT
HETATM    1  C13 UNL     1      -5.988  -2.124   4.751  1.00  0.00     0.242 C
HETATM    2  O2  UNL     1      -6.057  -2.861   3.739  1.00  0.00    -0.271 OA
HETATM    3  N5  UNL     1      -4.956  -2.239   5.671  1.00  0.00    -0.329 N
ATOM      4  H5  UNL     1      -5.090  -1.484   6.343  1.00  0.00     0.165 HD
ENDROOT
BRANCH   1   5
HETATM    5  C8  UNL     1      -7.034  -1.054   5.037  1.00  0.00     0.181 C
BRANCH   5   6
HETATM    6  N2  UNL     1      -7.126  -0.942   6.473  1.00  0.00    -0.343 N
HETATM    7  C7  UNL     1      -6.492  -0.010   7.273  1.00  0.00     0.252 C
HETATM    8  O1  UNL     1      -5.812   0.958   6.911  1.00  0.00    -0.268 OA
ATOM      9  H2  UNL     1      -7.720  -1.622   6.947  1.00  0.00     0.163 HD
BRANCH   7  10
HETATM   10  C6  UNL     1      -6.558  -0.116   8.721  1.00  0.00     0.032 A
HETATM   11  C5  UNL     1      -5.284  -0.268   9.316  1.00  0.00     0.019 A
HETATM   12  C4  UNL     1      -5.194  -0.370  10.652  1.00  0.00     0.030 A
HETATM   13  C3  UNL     1      -6.330  -0.327  11.432  1.00  0.00     0.029 A
HETATM   14  C21 UNL     1      -7.576  -0.178  10.878  1.00  0.00     0.030 A
HETATM   15  C20 UNL     1      -7.659  -0.071   9.468  1.00  0.00     0.019 A
BRANCH  13  16
HETATM   16  N1  UNL     1      -6.173  -0.492  12.857  1.00  0.00    -0.390 N
HETATM   17  C1  UNL     1      -7.380  -0.649  13.644  1.00  0.00     0.149 C
HETATM   18  C2  UNL     1      -4.861  -0.508  13.438  1.00  0.00     0.149 C
ENDBRANCH  13  16
ENDBRANCH   7  10
ENDBRANCH   5   6
BRANCH   5  19
HETATM   19  C9  UNL     1      -8.305  -1.447   4.338  1.00  0.00     0.082 C
BRANCH  19  20
HETATM   20  C10 UNL     1      -9.432  -0.516   4.741  1.00  0.00     0.004 A
HETATM   21  C11 UNL     1      -9.458   0.810   4.271  1.00  0.00     0.105 A
HETATM   22  N3  UNL     1     -10.468   1.536   4.623  1.00  0.00    -0.346 N
HETATM   23  C12 UNL     1     -11.418   1.009   5.389  1.00  0.00     0.142 A
ATOM     24  H3  UNL     1     -10.536   2.506   4.314  1.00  0.00     0.167 HD
HETATM   25  N4  UNL     1     -12.508   1.596   5.828  1.00  0.00    -0.380 N
HETATM   26  S1  UNL     1     -10.836  -0.608   5.630  1.00  0.00    -0.058 SA
ATOM     27  H42 UNL     1     -12.850   2.546   5.686  1.00  0.00     0.158 HD
ATOM     28  H41 UNL     1     -13.237   1.191   6.416  1.00  0.00     0.158 HD
ENDBRANCH  19  20
ENDBRANCH   5  19
ENDBRANCH   1   5
BRANCH   3  29
HETATM   29  C14 UNL     1      -3.825  -2.923   6.081  1.00  0.00     0.304 C
BRANCH  29  30
HETATM   30  N6  UNL     1      -3.210  -2.456   7.286  1.00  0.00    -0.195 N
ATOM     31  H6  UNL     1      -3.211  -3.059   8.109  1.00  0.00     0.180 HD
BRANCH  30  32
HETATM   32  C15 UNL     1      -2.648  -1.284   7.363  1.00  0.00     0.683 A
HETATM   33  N7  UNL     1      -2.896  -0.379   6.402  1.00  0.00    -0.168 N
HETATM   34  C16 UNL     1      -2.305   0.854   6.386  1.00  0.00     0.225 A
ATOM     35  H7  UNL     1      -3.549  -0.620   5.657  1.00  0.00     0.186 HD
HETATM   36  C17 UNL     1      -1.419   1.197   7.379  1.00  0.00     0.197 A
HETATM   37  C18 UNL     1      -1.157   0.262   8.383  1.00  0.00     0.152 A
HETATM   38  N11 UNL     1      -1.790  -0.930   8.319  1.00  0.00    -0.174 N
ATOM     39  H11 UNL     1      -1.597  -1.608   9.056  1.00  0.00     0.186 HD
BRANCH  34  40
HETATM   40  N8  UNL     1      -2.603   1.770   5.355  1.00  0.00    -0.095 N
HETATM   41  O3  UNL     1      -1.978   1.683   4.265  1.00  0.00    -0.530 OA
HETATM   42  O4  UNL     1      -3.530   2.764   5.427  1.00  0.00    -0.530 OA
ENDBRANCH  34  40
BRANCH  36  43
HETATM   43  N9  UNL     1      -0.735   2.436   7.438  1.00  0.00    -0.108 N
HETATM   44  O5  UNL     1       0.344   2.577   6.865  1.00  0.00    -0.531 OA
HETATM   45  O6  UNL     1      -1.307   3.467   8.107  1.00  0.00    -0.531 OA
ENDBRANCH  36  43
BRANCH  37  46
HETATM   46  N10 UNL     1      -0.336   0.542   9.317  1.00  0.00    -0.383 N
ATOM     47 2H10 UNL     1      -0.490   1.320   9.959  1.00  0.00     0.157 HD
ATOM     48 1H10 UNL     1       0.504  -0.022   9.444  1.00  0.00     0.157 HD
ENDBRANCH  37  46
ENDBRANCH  30  32
ENDBRANCH  29  30
BRANCH  29  49
HETATM   49  C19 UNL     1      -4.057  -4.405   6.136  1.00  0.00     0.218 C
HETATM   50  O7  UNL     1      -3.742  -5.096   5.131  1.00  0.00    -0.645 OA
HETATM   51  O8  UNL     1      -4.598  -5.050   7.227  1.00  0.00    -0.645 OA
ENDBRANCH  29  49
ENDBRANCH   3  29
TORSDOF 13
ENDMDL