MODEL 2
REMARK VINA RESULT: -7.532001772      1.527      1.914
REMARK  13 active torsions:
REMARK  status: ('A' for Active; 'I' for Inactive)
REMARK    1  A    between atoms: C4_9  and  N3_10
REMARK    2  A    between atoms: N3_10  and  C5_11
REMARK    3  A    between atoms: N3_10  and  C13_22
REMARK    4  A    between atoms: C8_14  and  O2_15
REMARK    5  A    between atoms: O2_15  and  C9_16
REMARK    6  A    between atoms: C9_16  and  C10_17
REMARK    7  A    between atoms: C13_22  and  C14_23
REMARK    8  A    between atoms: C13_22  and  C15_26
REMARK    9  A    between atoms: C15_26  and  O7_27
REMARK   10  A    between atoms: N4_29  and  O8_31
REMARK   11  A    between atoms: C17_37  and  O11_38
REMARK   12  A    between atoms: O11_38  and  C18_39
REMARK   13  A    between atoms: C19_42  and  C20_43
ROOT
HETATM    1  N3  UNL     1      -4.963  -0.944   5.774  1.00  0.00    -0.321 N
ENDROOT
BRANCH   1   2
HETATM    2  C4  UNL     1      -5.504   0.019   4.887  1.00  0.00     0.092 A
HETATM    3  C1  UNL     1      -4.603   0.861   4.085  1.00  0.00     0.124 A
HETATM    4  N1  UNL     1      -3.332   0.860   4.034  1.00  0.00    -0.393 N
HETATM    5  C2  UNL     1      -5.486   1.727   3.312  1.00  0.00     0.281 A
ATOM      6  H12 UNL     1      -2.707   1.443   3.478  1.00  0.00     0.156 HD
ATOM      7  H11 UNL     1      -2.714   0.254   4.575  1.00  0.00     0.156 HD
HETATM    8  O1  UNL     1      -5.007   2.571   2.520  1.00  0.00    -0.265 OA
HETATM    9  N2  UNL     1      -6.821   1.390   3.664  1.00  0.00    -0.268 N
HETATM   10  C3  UNL     1      -6.763   0.353   4.612  1.00  0.00     0.064 A
HETATM   11  C19 UNL     1      -8.032   2.031   3.213  1.00  0.00     0.165 C
HETATM   12  C16 UNL     1      -7.941  -0.371   5.191  1.00  0.00     0.208 C
HETATM   13  S1  UNL     1      -9.438   0.462   4.883  1.00  0.00     0.205 S
HETATM   14  O9  UNL     1      -9.991   1.121   6.144  1.00  0.00    -0.220 OA
HETATM   15  O10 UNL     1     -10.475  -0.538   4.434  1.00  0.00    -0.220 OA
HETATM   16  C17 UNL     1      -9.194   1.687   3.680  1.00  0.00     0.209 C
BRANCH  16  17
HETATM   17  O11 UNL     1     -10.393   2.309   3.220  1.00  0.00    -0.249 OA
BRANCH  17  18
HETATM   18  C18 UNL     1     -11.205   1.552   2.342  1.00  0.00     0.378 C
HETATM   19  N5  UNL     1     -12.593   1.546   2.567  1.00  0.00    -0.032 NA
HETATM   20  O12 UNL     1     -10.638   0.929   1.414  1.00  0.00    -0.242 OA
ENDBRANCH  17  18
ENDBRANCH  16  17
BRANCH  11  21
HETATM   21  C20 UNL     1      -8.026   3.149   2.265  1.00  0.00     0.231 C
HETATM   22  O13 UNL     1      -8.015   2.873   1.014  1.00  0.00    -0.643 OA
HETATM   23  O14 UNL     1      -8.030   4.485   2.522  1.00  0.00    -0.643 OA
ENDBRANCH  11  21
ENDBRANCH   1   2
BRANCH   1  24
HETATM   24  C5  UNL     1      -4.971  -0.745   7.177  1.00  0.00     0.036 A
HETATM   25  C6  UNL     1      -3.965  -0.129   7.873  1.00  0.00     0.032 A
HETATM   26  C7  UNL     1      -3.999   0.055   9.259  1.00  0.00     0.039 A
HETATM   27  C8  UNL     1      -5.057  -0.382   9.990  1.00  0.00     0.069 A
HETATM   28  C11 UNL     1      -6.087  -1.015   9.284  1.00  0.00     0.039 A
HETATM   29  C12 UNL     1      -6.054  -1.192   7.940  1.00  0.00     0.032 A
BRANCH  27  30
HETATM   30  O2  UNL     1      -5.168  -0.237  11.363  1.00  0.00    -0.341 OA
BRANCH  30  31
HETATM   31  C9  UNL     1      -6.341  -0.313  12.089  1.00  0.00     0.288 C
BRANCH  31  32
HETATM   32  C10 UNL     1      -6.211  -0.680  13.499  1.00  0.00     0.198 C
HETATM   33  O3  UNL     1      -7.217  -0.842  14.246  1.00  0.00    -0.646 OA
HETATM   34  O4  UNL     1      -4.955  -0.858  14.056  1.00  0.00    -0.646 OA
ENDBRANCH  31  32
ENDBRANCH  30  31
ENDBRANCH  27  30
ENDBRANCH   1  24
BRANCH   1  35
HETATM   35  C13 UNL     1      -4.427  -2.171   5.205  1.00  0.00     0.267 C
BRANCH  35  36
HETATM   36  C14 UNL     1      -4.036  -3.113   6.270  1.00  0.00     0.205 C
HETATM   37  O5  UNL     1      -4.727  -3.978   6.813  1.00  0.00    -0.646 OA
HETATM   38  O6  UNL     1      -2.700  -3.048   6.763  1.00  0.00    -0.646 OA
ENDBRANCH  35  36
BRANCH  35  39
HETATM   39  C15 UNL     1      -5.436  -2.822   4.320  1.00  0.00     0.170 C
HETATM   40  N4  UNL     1      -6.474  -3.348   4.825  1.00  0.00    -0.249 N
ATOM     41  H4  UNL     1      -6.573  -3.300   5.839  1.00  0.00     0.196 HD
BRANCH  39  42
HETATM   42  O7  UNL     1      -5.225  -2.840   2.969  1.00  0.00    -0.346 OA
ATOM     43  H7  UNL     1      -4.801  -2.097   2.556  1.00  0.00     0.219 HD
ENDBRANCH  39  42
BRANCH  40  44
HETATM   44  O8  UNL     1      -7.464  -3.969   4.136  1.00  0.00    -0.288 OA
ATOM     45  H8  UNL     1      -8.257  -4.335   4.510  1.00  0.00     0.244 HD
ENDBRANCH  40  44
ENDBRANCH  35  39
ENDBRANCH   1  35
TORSDOF 13
ENDMDL