MODEL 3
REMARK VINA RESULT: -8.136714036      2.836      4.082
REMARK  18 active torsions:
REMARK  status: ('A' for Active; 'I' for Inactive)
REMARK    1  A    between atoms: C2_2  and  O2_4
REMARK    2  A    between atoms: O2_4  and  C3_5
REMARK    3  A    between atoms: C3_5  and  C4_6
REMARK    4  A    between atoms: C4_6  and  O3_7
REMARK    5  A    between atoms: C5_9  and  O4_10
REMARK    6  A    between atoms: O4_10  and  C6_11
REMARK    7  A    between atoms: C6_11  and  C7_13
REMARK    8  A    between atoms: C8_14  and  C9_15
REMARK    9  A    between atoms: C15_22  and  O7_23
REMARK   10  A    between atoms: C15_22  and  C16_25
REMARK   11  A    between atoms: C16_25  and  O8_26
REMARK   12  A    between atoms: C17_28  and  O9_29
REMARK   13  A    between atoms: C17_28  and  C18_31
REMARK   14  A    between atoms: C18_31  and  O10_32
REMARK   15  A    between atoms: C18_31  and  N1_34
REMARK   16  A    between atoms: N1_34  and  N2_35
REMARK       I    between atoms: N2_35  and  C19_37
REMARK   17  A    between atoms: C19_37  and  C20_39
REMARK   18  A    between atoms: C23_42  and  N3_43
ROOT
HETATM    1  C3  UNL     1      -4.545  -2.439   6.732  1.00  0.00     0.186 C
HETATM    2  C5  UNL     1      -3.940  -2.523   8.150  1.00  0.00     0.314 C
HETATM    3  O6  UNL     1      -3.242  -3.791   8.256  1.00  0.00    -0.316 OA
HETATM    4  C15 UNL     1      -4.229  -4.620   7.586  1.00  0.00     0.230 C
HETATM    5  C17 UNL     1      -4.480  -3.839   6.338  1.00  0.00     0.235 C
ENDROOT
BRANCH   5   6
HETATM    6  O9  UNL     1      -3.405  -4.096   5.491  1.00  0.00    -0.373 OA
ATOM      7  H9  UNL     1      -3.315  -5.022   5.299  1.00  0.00     0.211 HD
ENDBRANCH   5   6
BRANCH   5   8
HETATM    8  C18 UNL     1      -5.649  -4.290   5.432  1.00  0.00     0.258 C
BRANCH   8   9
HETATM    9  O10 UNL     1      -5.790  -5.590   5.617  1.00  0.00    -0.335 OA
ATOM     10  H10 UNL     1      -6.724  -5.762   5.632  1.00  0.00     0.220 HD
ENDBRANCH   8   9
BRANCH   8  11
HETATM   11  N1  UNL     1      -6.234  -3.370   4.743  1.00  0.00    -0.298 NA
BRANCH  11  12
HETATM   12  N2  UNL     1      -6.862  -2.398   4.045  1.00  0.00    -0.196 N
HETATM   13  C19 UNL     1      -7.501  -2.513   2.858  1.00  0.00     0.280 C
HETATM   14  O11 UNL     1      -7.621  -3.534   2.124  1.00  0.00    -0.265 OA
ATOM     15  H2  UNL     1      -6.853  -1.468   4.463  1.00  0.00     0.205 HD
BRANCH  13  16
HETATM   16  C20 UNL     1      -8.118  -1.248   2.337  1.00  0.00     0.034 A
HETATM   17  C21 UNL     1      -8.776  -0.431   3.127  1.00  0.00     0.019 A
HETATM   18  C22 UNL     1      -8.984   0.909   2.736  1.00  0.00     0.030 A
HETATM   19  C23 UNL     1      -8.464   1.313   1.474  1.00  0.00     0.029 A
HETATM   20  C26 UNL     1      -7.772   0.302   0.752  1.00  0.00     0.030 A
HETATM   21  C27 UNL     1      -7.599  -0.915   1.128  1.00  0.00     0.019 A
BRANCH  19  22
HETATM   22  N3  UNL     1      -8.452   2.682   1.136  1.00  0.00    -0.390 N
HETATM   23  C24 UNL     1      -7.445   3.095   0.220  1.00  0.00     0.149 C
HETATM   24  C25 UNL     1      -9.419   3.529   1.691  1.00  0.00     0.149 C
ENDBRANCH  19  22
ENDBRANCH  13  16
ENDBRANCH  11  12
ENDBRANCH   8  11
ENDBRANCH   5   8
BRANCH   1  25
HETATM   25  O2  UNL     1      -5.816  -2.009   6.909  1.00  0.00    -0.299 OA
BRANCH  25  26
HETATM   26  C2  UNL     1      -6.329  -0.636   6.925  1.00  0.00     0.255 C
HETATM   27  C1  UNL     1      -6.937  -0.050   8.121  1.00  0.00     0.126 C
HETATM   28  O1  UNL     1      -6.183  -0.113   5.845  1.00  0.00    -0.266 OA
ENDBRANCH  25  26
ENDBRANCH   1  25
BRANCH   1  29
HETATM   29  C4  UNL     1      -3.637  -1.720   5.916  1.00  0.00     0.212 C
BRANCH  29  30
HETATM   30  O3  UNL     1      -4.059  -1.445   4.643  1.00  0.00    -0.398 OA
ATOM     31  H3  UNL     1      -3.386  -1.177   4.028  1.00  0.00     0.209 HD
ENDBRANCH  29  30
ENDBRANCH   1  29
BRANCH   4  32
HETATM   32  O7  UNL     1      -3.323  -5.768   7.260  1.00  0.00    -0.361 OA
ATOM     33  H7  UNL     1      -3.621  -5.908   6.369  1.00  0.00     0.213 HD
ENDBRANCH   4  32
BRANCH   4  34
HETATM   34  C16 UNL     1      -5.219  -5.283   8.393  1.00  0.00     0.236 C
BRANCH  34  35
HETATM   35  O8  UNL     1      -5.245  -6.707   8.348  1.00  0.00    -0.395 OA
ATOM     36  H8  UNL     1      -6.063  -7.116   8.093  1.00  0.00     0.209 HD
ENDBRANCH  34  35
ENDBRANCH   4  34
BRANCH   2  37
HETATM   37  O4  UNL     1      -2.987  -1.461   8.364  1.00  0.00    -0.283 OA
BRANCH  37  38
HETATM   38  C6  UNL     1      -3.400  -0.495   9.133  1.00  0.00     0.285 C
HETATM   39  O5  UNL     1      -3.541   0.697   8.742  1.00  0.00    -0.260 OA
BRANCH  38  40
HETATM   40  C7  UNL     1      -3.759  -0.607  10.540  1.00  0.00     0.083 C
HETATM   41  C8  UNL     1      -5.102  -0.283  10.661  1.00  0.00     0.017 C
BRANCH  41  42
HETATM   42  C9  UNL     1      -5.673  -0.225  12.040  1.00  0.00    -0.036 A
HETATM   43  C10 UNL     1      -7.020  -0.300  12.231  1.00  0.00     0.011 A
HETATM   44  C11 UNL     1      -7.446  -0.704  13.505  1.00  0.00     0.001 A
HETATM   45  C12 UNL     1      -6.585  -0.984  14.491  1.00  0.00     0.000 A
HETATM   46  C13 UNL     1      -5.295  -0.861  14.262  1.00  0.00     0.001 A
HETATM   47  C14 UNL     1      -4.728  -0.497  13.048  1.00  0.00     0.011 A
ENDBRANCH  41  42
ENDBRANCH  38  40
ENDBRANCH  37  38
ENDBRANCH   2  37
TORSDOF 18
ENDMDL