MODEL 4
REMARK VINA RESULT: -6.702659672      1.386      1.682
REMARK  17 active torsions:
REMARK  status: ('A' for Active; 'I' for Inactive)
REMARK    1  A    between atoms: C4_4  and  O1_6
REMARK    2  A    between atoms: C6_8  and  O2_9
REMARK    3  A    between atoms: O2_9  and  C7_10
REMARK    4  A    between atoms: C8_12  and  O4_13
REMARK    5  A    between atoms: C10_15  and  O5_16
REMARK    6  A    between atoms: C11_18  and  O6_19
REMARK    7  A    between atoms: C12_21  and  O7_22
REMARK    8  A    between atoms: C13_24  and  C14_25
REMARK    9  A    between atoms: C14_25  and  O8_26
REMARK   10  A    between atoms: C14_25  and  C15_28
REMARK   11  A    between atoms: C15_28  and  O9_29
REMARK   12  A    between atoms: C15_28  and  C16_31
REMARK   13  A    between atoms: C16_31  and  O10_33
REMARK   14  A    between atoms: O10_33  and  C18_34
REMARK   15  A    between atoms: C18_34  and  C19_35
REMARK   16  A    between atoms: C21_37  and  O11_38
REMARK   17  A    between atoms: C25_44  and  N1_45
ROOT
HETATM    1  C1  UNL     1      -0.198   1.324   5.295  1.00  0.00     0.015 C
HETATM    2  C2  UNL     1      -1.098   1.212   6.247  1.00  0.00    -0.077 C
HETATM    3  C3  UNL     1      -1.044   1.664   7.668  1.00  0.00     0.074 C
HETATM    4  C4  UNL     1      -1.803   0.630   8.437  1.00  0.00     0.085 C
HETATM    5  C5  UNL     1      -2.614   1.208   9.571  1.00  0.00     0.049 C
HETATM    6  C6  UNL     1      -2.714  -0.067   7.421  1.00  0.00     0.169 C
HETATM    7  C13 UNL     1      -2.438   0.570   6.085  1.00  0.00     0.077 C
ENDROOT
BRANCH   7   8
HETATM    8  C14 UNL     1      -3.390   1.638   5.677  1.00  0.00     0.160 C
BRANCH   8   9
HETATM    9  O8  UNL     1      -4.310   2.009   6.647  1.00  0.00    -0.392 OA
ATOM     10  H8  UNL     1      -4.787   2.811   6.466  1.00  0.00     0.210 HD
ENDBRANCH   8   9
BRANCH   8  11
HETATM   11  C15 UNL     1      -4.074   1.450   4.375  1.00  0.00     0.176 C
BRANCH  11  12
HETATM   12  O9  UNL     1      -4.649   2.631   3.945  1.00  0.00    -0.390 OA
ATOM     13  H9  UNL     1      -4.407   2.819   3.046  1.00  0.00     0.210 HD
ENDBRANCH  11  12
BRANCH  11  14
HETATM   14  C16 UNL     1      -3.130   0.951   3.278  1.00  0.00     0.148 C
HETATM   15  C17 UNL     1      -2.961   2.161   2.355  1.00  0.00     0.042 C
BRANCH  14  16
HETATM   16  O10 UNL     1      -3.609  -0.144   2.645  1.00  0.00    -0.381 OA
BRANCH  16  17
HETATM   17  C18 UNL     1      -4.369  -0.062   1.549  1.00  0.00     0.200 C
BRANCH  17  18
HETATM   18  C19 UNL     1      -5.869  -0.178   1.676  1.00  0.00     0.148 C
HETATM   19  C20 UNL     1      -6.286  -1.315   2.548  1.00  0.00     0.066 C
HETATM   20  C21 UNL     1      -7.502  -1.161   3.369  1.00  0.00     0.126 C
HETATM   21  C22 UNL     1      -8.647  -0.391   2.832  1.00  0.00     0.042 C
HETATM   22  C23 UNL     1      -8.520  -0.058   1.386  1.00  0.00     0.043 C
HETATM   23  C25 UNL     1      -8.496   1.067   3.138  1.00  0.00     0.113 C
HETATM   24  C24 UNL     1      -7.753   1.156   1.791  1.00  0.00     0.145 C
HETATM   25  O12 UNL     1      -6.431   0.982   2.087  1.00  0.00    -0.376 OA
BRANCH  20  26
HETATM   26  O11 UNL     1      -7.133  -0.688   4.647  1.00  0.00    -0.395 OA
ATOM     27  H11 UNL     1      -7.073  -1.427   5.242  1.00  0.00     0.210 HD
ENDBRANCH  20  26
BRANCH  23  28
HETATM   28  N1  UNL     1      -9.583   1.912   3.173  1.00  0.00    -0.414 N
HETATM   29  C26 UNL     1      -9.429   3.246   2.678  1.00  0.00     0.143 C
HETATM   30  C27 UNL     1     -10.765   1.680   3.840  1.00  0.00     0.143 C
ENDBRANCH  23  28
ENDBRANCH  17  18
ENDBRANCH  16  17
ENDBRANCH  14  16
ENDBRANCH  11  14
ENDBRANCH   8  11
ENDBRANCH   7   8
BRANCH   6  31
HETATM   31  O2  UNL     1      -2.250  -1.380   7.324  1.00  0.00    -0.349 OA
BRANCH  31  32
HETATM   32  C7  UNL     1      -3.138  -2.305   7.870  1.00  0.00     0.294 C
HETATM   33  O3  UNL     1      -2.639  -3.557   7.703  1.00  0.00    -0.326 OA
HETATM   34  C8  UNL     1      -3.519  -4.533   7.335  1.00  0.00     0.293 C
HETATM   35  C10 UNL     1      -4.132  -4.183   5.997  1.00  0.00     0.204 C
HETATM   36  C11 UNL     1      -4.739  -2.811   5.999  1.00  0.00     0.185 C
HETATM   37  C12 UNL     1      -4.483  -2.044   7.265  1.00  0.00     0.204 C
BRANCH  34  38
HETATM   38  O4  UNL     1      -4.442  -4.876   8.292  1.00  0.00    -0.363 OA
HETATM   39  C9  UNL     1      -4.373  -6.176   8.731  1.00  0.00     0.204 C
ENDBRANCH  34  38
BRANCH  35  40
HETATM   40  O5  UNL     1      -5.078  -5.091   5.584  1.00  0.00    -0.388 OA
ATOM     41  H5  UNL     1      -5.692  -5.326   6.269  1.00  0.00     0.210 HD
ENDBRANCH  35  40
BRANCH  36  42
HETATM   42  O6  UNL     1      -4.253  -2.061   4.915  1.00  0.00    -0.390 OA
ATOM     43  H6  UNL     1      -4.083  -1.165   5.183  1.00  0.00     0.210 HD
ENDBRANCH  36  42
BRANCH  37  44
HETATM   44  O7  UNL     1      -5.528  -2.203   8.204  1.00  0.00    -0.388 OA
ATOM     45  H7  UNL     1      -5.513  -3.059   8.614  1.00  0.00     0.210 HD
ENDBRANCH  37  44
ENDBRANCH  31  32
ENDBRANCH   6  31
BRANCH   4  46
HETATM   46  O1  UNL     1      -0.882  -0.252   8.999  1.00  0.00    -0.387 OA
ATOM     47  H1  UNL     1      -1.328  -1.073   9.169  1.00  0.00     0.210 HD
ENDBRANCH   4  46
TORSDOF 17
ENDMDL