MODEL 4
REMARK VINA RESULT: -6.871890612      3.259      6.385
REMARK  16 active torsions:
REMARK  status: ('A' for Active; 'I' for Inactive)
REMARK    1  A    between atoms: O1_2  and  C2_3
REMARK    2  A    between atoms: C4_5  and  O2_6
REMARK    3  A    between atoms: C6_9  and  O3_10
REMARK    4  A    between atoms: C7_12  and  O4_13
REMARK    5  A    between atoms: O4_13  and  C8_14
REMARK    6  A    between atoms: C8_14  and  C9_15
REMARK    7  A    between atoms: C9_15  and  N1_16
REMARK    8  A    between atoms: C10_19  and  O7_20
REMARK    9  A    between atoms: C12_23  and  N2_24
REMARK   10  A    between atoms: C13_28  and  O8_29
REMARK   11  A    between atoms: O8_29  and  C14_30
REMARK   12  A    between atoms: C14_30  and  O9_31
REMARK   13  A    between atoms: C14_30  and  C15_33
REMARK   14  A    between atoms: C16_34  and  C17_35
REMARK   15  A    between atoms: C17_35  and  N3_36
REMARK   16  A    between atoms: C24_45  and  O10_46
ROOT
HETATM    1  C9  UNL     1      -7.193  -1.435   3.944  1.00  0.00     0.171 C
HETATM    2  C10 UNL     1      -8.622  -1.648   3.490  1.00  0.00     0.159 C
HETATM    3  C11 UNL     1      -8.858  -1.105   2.111  1.00  0.00     0.070 C
HETATM    4  C12 UNL     1      -7.641  -1.018   1.252  1.00  0.00     0.217 C
HETATM    5  C13 UNL     1      -6.560  -0.172   1.834  1.00  0.00     0.187 C
HETATM    6  C24 UNL     1      -6.596  -0.193   3.323  1.00  0.00     0.188 C
ENDROOT
BRANCH   1   7
HETATM    7  C8  UNL     1      -7.213  -1.348   5.448  1.00  0.00     0.211 C
BRANCH   7   8
HETATM    8  O4  UNL     1      -6.225  -2.126   5.983  1.00  0.00    -0.378 OA
BRANCH   8   9
HETATM    9  C7  UNL     1      -5.196  -1.376   6.553  1.00  0.00     0.182 C
HETATM   10  C6  UNL     1      -5.502  -1.217   8.023  1.00  0.00     0.152 C
HETATM   11  C5  UNL     1      -4.688  -2.304   8.664  1.00  0.00     0.075 C
HETATM   12  C4  UNL     1      -3.414  -2.295   7.881  1.00  0.00     0.093 C
HETATM   13  C3  UNL     1      -2.807  -3.674   7.900  1.00  0.00     0.101 C
HETATM   14  C25 UNL     1      -3.909  -2.152   6.451  1.00  0.00     0.190 C
HETATM   15  C2  UNL     1      -3.501  -4.348   6.748  1.00  0.00     0.262 C
HETATM   16  O11 UNL     1      -4.021  -3.397   5.914  1.00  0.00    -0.350 OA
BRANCH  10  17
HETATM   17  O3  UNL     1      -5.144   0.050   8.488  1.00  0.00    -0.393 OA
ATOM     18  H3  UNL     1      -5.903   0.570   8.725  1.00  0.00     0.210 HD
ENDBRANCH  10  17
BRANCH  12  19
HETATM   19  O2  UNL     1      -2.550  -1.300   8.267  1.00  0.00    -0.387 OA
ATOM     20  H2  UNL     1      -2.981  -0.500   8.542  1.00  0.00     0.210 HD
ENDBRANCH  12  19
BRANCH  15  21
HETATM   21  O1  UNL     1      -4.545  -5.161   7.188  1.00  0.00    -0.366 OA
HETATM   22  C1  UNL     1      -4.185  -5.964   8.261  1.00  0.00     0.204 C
ENDBRANCH  15  21
ENDBRANCH   8   9
ENDBRANCH   7   8
ENDBRANCH   1   7
BRANCH   1  23
HETATM   23  N1  UNL     1      -6.442  -2.611   3.594  1.00  0.00    -0.137 N
HETATM   24  O5  UNL     1      -6.969  -3.729   3.737  1.00  0.00    -0.536 OA
HETATM   25  O6  UNL     1      -5.170  -2.583   3.092  1.00  0.00    -0.536 OA
ENDBRANCH   1  23
BRANCH   2  26
HETATM   26  O7  UNL     1      -9.537  -1.106   4.387  1.00  0.00    -0.393 OA
ATOM     27  H7  UNL     1     -10.172  -0.550   3.952  1.00  0.00     0.210 HD
ENDBRANCH   2  26
BRANCH   6  28
HETATM   28  O10 UNL     1      -5.297  -0.083   3.868  1.00  0.00    -0.390 OA
ATOM     29  H10 UNL     1      -4.703  -0.284   3.154  1.00  0.00     0.210 HD
ENDBRANCH   6  28
BRANCH   5  30
HETATM   30  O8  UNL     1      -6.627   1.154   1.410  1.00  0.00    -0.348 OA
BRANCH  30  31
HETATM   31  C14 UNL     1      -5.560   1.533   0.612  1.00  0.00     0.281 C
BRANCH  31  32
HETATM   32  O9  UNL     1      -6.040   1.832  -0.639  1.00  0.00    -0.368 OA
ATOM     33  H9  UNL     1      -6.048   1.034  -1.155  1.00  0.00     0.213 HD
ENDBRANCH  31  32
BRANCH  31  34
HETATM   34  C15 UNL     1      -4.421   0.628   0.665  1.00  0.00     0.030 C
HETATM   35  C16 UNL     1      -3.270   0.857   1.253  1.00  0.00    -0.010 C
BRANCH  35  36
HETATM   36  C17 UNL     1      -2.880   2.070   1.986  1.00  0.00     0.140 C
BRANCH  36  37
HETATM   37  N3  UNL     1      -3.180   2.047   3.399  1.00  0.00    -0.232 NA
HETATM   38  C18 UNL     1      -3.017   3.363   4.000  1.00  0.00     0.117 C
HETATM   39  C19 UNL     1      -3.762   3.340   5.315  1.00  0.00    -0.002 C
HETATM   40  C20 UNL     1      -3.425   4.547   6.160  1.00  0.00     0.011 C
HETATM   41  C21 UNL     1      -3.599   2.043   6.032  1.00  0.00     0.031 C
HETATM   42  C22 UNL     1      -2.501   1.181   5.488  1.00  0.00     0.090 C
HETATM   43  C23 UNL     1      -1.141   1.564   6.063  1.00  0.00     0.033 C
HETATM   44  N4  UNL     1      -2.466   1.085   4.065  1.00  0.00    -0.350 N
ATOM     45  H4  UNL     1      -1.948   0.353   3.579  1.00  0.00     0.174 HD
ENDBRANCH  36  37
ENDBRANCH  35  36
ENDBRANCH  31  34
ENDBRANCH  30  31
ENDBRANCH   5  30
BRANCH   4  46
HETATM   46  N2  UNL     1      -8.097  -0.490  -0.044  1.00  0.00    -0.072 N
ATOM     47  H23 UNL     1      -8.358  -1.216  -0.710  1.00  0.00     0.274 HD
ATOM     48  H22 UNL     1      -9.008  -0.032   0.001  1.00  0.00     0.274 HD
ATOM     49  H21 UNL     1      -7.350   0.119  -0.378  1.00  0.00     0.274 HD
ENDBRANCH   4  46
TORSDOF 16
ENDMDL