MODEL 5
REMARK VINA RESULT: -6.803638485      2.015      5.146
REMARK  17 active torsions:
REMARK  status: ('A' for Active; 'I' for Inactive)
REMARK    1  A    between atoms: C2_2  and  C3_3
REMARK    2  A    between atoms: C3_3  and  C5_5
REMARK    3  A    between atoms: C5_5  and  O2_7
REMARK    4  A    between atoms: O2_7  and  C6_8
REMARK    5  A    between atoms: C7_9  and  O3_10
REMARK    6  A    between atoms: O3_10  and  C8_11
REMARK    7  A    between atoms: C10_14  and  O5_15
REMARK    8  A    between atoms: C11_17  and  O6_18
REMARK    9  A    between atoms: C12_20  and  O7_21
REMARK   10  A    between atoms: C16_26  and  C18_28
REMARK   11  A    between atoms: C20_32  and  O10_33
REMARK   12  A    between atoms: C23_36  and  O11_37
REMARK   13  A    between atoms: C23_36  and  C24_39
REMARK   14  A    between atoms: C24_39  and  O12_40
REMARK   15  A    between atoms: C24_39  and  C25_42
REMARK   16  A    between atoms: C25_42  and  C26_44
REMARK   17  A    between atoms: C26_44  and  O14_45
ROOT
HETATM    1  C6  UNL     1      -5.024  -0.242   5.606  1.00  0.00     0.199 C
HETATM    2  C7  UNL     1      -5.794  -1.536   5.312  1.00  0.00     0.204 C
HETATM    3  C10 UNL     1      -6.854  -1.353   4.268  1.00  0.00     0.149 C
HETATM    4  C11 UNL     1      -6.219  -1.285   2.914  1.00  0.00     0.193 C
HETATM    5  C12 UNL     1      -5.040  -0.376   2.758  1.00  0.00     0.094 C
HETATM    6  C13 UNL     1      -4.890  -0.258   1.247  1.00  0.00     0.041 C
HETATM    7  C14 UNL     1      -5.837   0.703   0.650  1.00  0.00     0.004 C
HETATM    8  C15 UNL     1      -5.537   2.054   1.129  1.00  0.00     0.021 C
HETATM    9  C16 UNL     1      -4.885   2.108   2.557  1.00  0.00     0.054 C
HETATM   10  C17 UNL     1      -3.417   2.086   2.253  1.00  0.00     0.027 C
HETATM   11  C19 UNL     1      -5.417   0.967   3.361  1.00  0.00     0.079 C
HETATM   12  C20 UNL     1      -5.478   0.967   4.822  1.00  0.00     0.100 C
HETATM   13  C22 UNL     1      -6.989   0.960   5.218  1.00  0.00     0.085 C
HETATM   14  C23 UNL     1      -7.730  -0.247   4.662  1.00  0.00     0.129 C
ENDROOT
BRANCH  14  15
HETATM   15  O11 UNL     1      -8.654   0.173   3.677  1.00  0.00    -0.383 OA
ATOM     16  H11 UNL     1      -9.501   0.449   4.007  1.00  0.00     0.210 HD
ENDBRANCH  14  15
BRANCH  14  17
HETATM   17  C24 UNL     1      -8.652  -0.647   5.836  1.00  0.00     0.227 C
BRANCH  17  18
HETATM   18  O12 UNL     1      -8.283   0.269   6.895  1.00  0.00    -0.385 OA
ATOM     19  H12 UNL     1      -9.050   0.819   6.997  1.00  0.00     0.210 HD
ENDBRANCH  17  18
BRANCH  17  20
HETATM   20  C25 UNL     1     -10.074  -0.352   5.634  1.00  0.00     0.181 C
HETATM   21  O13 UNL     1     -10.720  -1.160   4.955  1.00  0.00    -0.293 OA
BRANCH  20  22
HETATM   22  C26 UNL     1     -10.843   0.804   6.135  1.00  0.00     0.245 C
BRANCH  22  23
HETATM   23  O14 UNL     1     -12.083   0.439   6.701  1.00  0.00    -0.393 OA
ATOM     24  H14 UNL     1     -12.179  -0.499   6.814  1.00  0.00     0.209 HD
ENDBRANCH  22  23
ENDBRANCH  20  22
ENDBRANCH  17  20
ENDBRANCH  14  17
BRANCH   3  25
HETATM   25  O5  UNL     1      -7.596  -2.538   4.243  1.00  0.00    -0.381 OA
ATOM     26  H5  UNL     1      -7.900  -2.685   5.130  1.00  0.00     0.211 HD
ENDBRANCH   3  25
BRANCH   2  27
HETATM   27  O3  UNL     1      -4.980  -2.622   5.001  1.00  0.00    -0.310 OA
BRANCH  27  28
HETATM   28  C8  UNL     1      -4.657  -3.665   5.802  1.00  0.00     0.255 C
HETATM   29  C9  UNL     1      -3.803  -3.483   6.991  1.00  0.00     0.126 C
HETATM   30  O4  UNL     1      -5.086  -4.809   5.530  1.00  0.00    -0.266 OA
ENDBRANCH  27  28
ENDBRANCH   2  27
BRANCH   4  31
HETATM   31  O6  UNL     1      -5.827  -2.601   2.574  1.00  0.00    -0.389 OA
ATOM     32  H6  UNL     1      -5.344  -2.545   1.757  1.00  0.00     0.210 HD
ENDBRANCH   4  31
BRANCH  12  33
HETATM   33  O10 UNL     1      -5.070   2.073   5.516  1.00  0.00    -0.382 OA
HETATM   34  C21 UNL     1      -5.843   2.907   6.183  1.00  0.00     0.202 C
ENDBRANCH  12  33
BRANCH   1  35
HETATM   35  O2  UNL     1      -5.462   0.036   6.955  1.00  0.00    -0.310 OA
BRANCH  35  36
HETATM   36  C5  UNL     1      -4.706  -0.038   8.078  1.00  0.00     0.263 C
HETATM   37  O1  UNL     1      -3.617   0.593   8.086  1.00  0.00    -0.265 OA
BRANCH  36  38
HETATM   38  C3  UNL     1      -5.143  -0.841   9.272  1.00  0.00     0.081 C
HETATM   39  C4  UNL     1      -6.519  -0.395   9.662  1.00  0.00     0.020 C
BRANCH  38  40
HETATM   40  C2  UNL     1      -4.162  -0.595  10.395  1.00  0.00     0.010 C
HETATM   41  C1  UNL     1      -4.897  -0.307  11.688  1.00  0.00     0.006 C
ENDBRANCH  38  40
ENDBRANCH  36  38
ENDBRANCH  35  36
ENDBRANCH   1  35
BRANCH   5  42
HETATM   42  O7  UNL     1      -3.832  -0.872   3.166  1.00  0.00    -0.387 OA
ATOM     43  H7  UNL     1      -3.632  -1.764   2.908  1.00  0.00     0.210 HD
ENDBRANCH   5  42
BRANCH   9  44
HETATM   44  C18 UNL     1      -5.301   3.467   2.952  1.00  0.00     0.182 C
HETATM   45  O8  UNL     1      -4.434   4.315   3.256  1.00  0.00    -0.647 OA
HETATM   46  O9  UNL     1      -6.610   3.853   2.996  1.00  0.00    -0.647 OA
ENDBRANCH   9  44
TORSDOF 17
ENDMDL