MODEL 4
REMARK VINA RESULT: -7.176518281      0.934      1.514
REMARK  14 active torsions:
REMARK  status: ('A' for Active; 'I' for Inactive)
REMARK    1  A    between atoms: N1_2  and  C3_4
REMARK    2  A    between atoms: C3_4  and  C4_5
REMARK    3  A    between atoms: C4_5  and  N2_6
REMARK    4  A    between atoms: C6_9  and  O1_10
REMARK    5  A    between atoms: N3_15  and  C10_16
REMARK    6  A    between atoms: C10_16  and  C11_17
REMARK    7  A    between atoms: C14_20  and  C15_21
REMARK    8  A    between atoms: C16_24  and  O3_25
REMARK    9  A    between atoms: C18_28  and  C19_29
REMARK   10  A    between atoms: C19_29  and  O4_30
REMARK   11  A    between atoms: C20_33  and  C21_34
REMARK   12  A    between atoms: C20_33  and  C22_37
REMARK   13  A    between atoms: C22_37  and  N6_38
REMARK   14  A    between atoms: C22_37  and  O7_42
ROOT
HETATM    1  N2  UNL     1      -2.049   1.247   8.615  1.00  0.00    -0.372 N
ATOM      2  H2  UNL     1      -2.155   0.316   9.018  1.00  0.00     0.161 HD
HETATM    3  C5  UNL     1      -2.854   1.495   7.689  1.00  0.00     0.144 A
HETATM    4  C6  UNL     1      -2.874   2.673   7.027  1.00  0.00     0.141 A
HETATM    5  C7  UNL     1      -3.774   2.878   6.012  1.00  0.00     0.117 A
HETATM    6  C8  UNL     1      -4.610   1.836   5.734  1.00  0.00     0.107 A
HETATM    7  C9  UNL     1      -4.595   0.599   6.415  1.00  0.00     0.073 A
HETATM    8  N3  UNL     1      -3.715   0.422   7.405  1.00  0.00    -0.305 N
HETATM    9  C18 UNL     1      -5.362  -0.683   6.228  1.00  0.00     0.161 C
HETATM   10  N5  UNL     1      -6.337  -0.316   5.212  1.00  0.00    -0.363 N
HETATM   11  C20 UNL     1      -6.690  -1.015   4.135  1.00  0.00     0.141 C
HETATM   12  C23 UNL     1      -7.251   0.691   5.646  1.00  0.00     0.125 C
HETATM   13  C24 UNL     1      -7.556   1.768   4.697  1.00  0.00     0.042 C
HETATM   14  C25 UNL     1      -6.368   2.293   3.924  1.00  0.00     0.151 C
HETATM   15  N7  UNL     1      -5.242   2.510   4.791  1.00  0.00    -0.285 N
HETATM   16  N8  UNL     1      -4.427   3.539   5.046  1.00  0.00    -0.289 N
HETATM   17  C26 UNL     1      -4.294   4.853   4.499  1.00  0.00     0.178 C
ENDROOT
BRANCH   8  18
HETATM   18  C10 UNL     1      -3.690  -0.715   8.209  1.00  0.00     0.110 C
BRANCH  18  19
HETATM   19  C11 UNL     1      -4.437  -0.664   9.514  1.00  0.00    -0.018 A
HETATM   20  C12 UNL     1      -5.813  -0.726   9.460  1.00  0.00     0.014 A
HETATM   21  C13 UNL     1      -6.579  -0.681  10.612  1.00  0.00     0.020 A
HETATM   22  C14 UNL     1      -5.990  -0.572  11.867  1.00  0.00     0.062 A
HETATM   23  C16 UNL     1      -4.628  -0.511  11.933  1.00  0.00     0.081 A
HETATM   24  C17 UNL     1      -3.887  -0.559  10.735  1.00  0.00     0.050 A
BRANCH  22  25
HETATM   25  C15 UNL     1      -6.852  -0.530  13.031  1.00  0.00     0.267 C
HETATM   26  N4  UNL     1      -6.428  -0.657  14.364  1.00  0.00    -0.057 NA
HETATM   27  O2  UNL     1      -8.108  -0.364  12.866  1.00  0.00    -0.271 OA
ENDBRANCH  22  25
BRANCH  23  28
HETATM   28  O3  UNL     1      -3.945  -0.405  13.076  1.00  0.00    -0.360 OA
ATOM     29  H3  UNL     1      -4.343  -0.470  13.936  1.00  0.00     0.217 HD
ENDBRANCH  23  28
ENDBRANCH  18  19
ENDBRANCH   8  18
BRANCH   1  30
HETATM   30  C4  UNL     1      -1.035   2.002   9.200  1.00  0.00     0.151 C
BRANCH  30  31
HETATM   31  C3  UNL     1       0.182   1.150   9.574  1.00  0.00     0.290 C
BRANCH  31  32
HETATM   32  N1  UNL     1       1.350   1.614   8.824  1.00  0.00     0.081 N
HETATM   33  C1  UNL     1       1.325   0.947   7.547  1.00  0.00     0.309 C
HETATM   34  C2  UNL     1       1.165   3.061   8.678  1.00  0.00     0.309 C
ENDBRANCH  31  32
ENDBRANCH  30  31
ENDBRANCH   1  30
BRANCH   4  35
HETATM   35  O1  UNL     1      -2.025   3.725   7.308  1.00  0.00    -0.355 OA
ATOM     36  H1  UNL     1      -1.098   3.724   7.100  1.00  0.00     0.218 HD
ENDBRANCH   4  35
BRANCH   9  37
HETATM   37  C19 UNL     1      -4.548  -1.843   5.802  1.00  0.00     0.195 C
BRANCH  37  38
HETATM   38  O4  UNL     1      -4.999  -3.105   5.984  1.00  0.00    -0.398 OA
ATOM     39  H4  UNL     1      -4.492  -3.849   5.680  1.00  0.00     0.209 HD
ENDBRANCH  37  38
ENDBRANCH   9  37
BRANCH  11  40
HETATM   40  C21 UNL     1      -5.911  -1.381   2.958  1.00  0.00     0.227 C
HETATM   41  O5  UNL     1      -5.869  -0.625   1.954  1.00  0.00    -0.643 OA
HETATM   42  O6  UNL     1      -5.140  -2.503   2.730  1.00  0.00    -0.643 OA
ENDBRANCH  11  40
BRANCH  11  43
HETATM   43  C22 UNL     1      -7.827  -2.017   4.384  1.00  0.00     0.374 C
BRANCH  43  44
HETATM   44  N6  UNL     1      -7.443  -3.392   4.064  1.00  0.00    -0.047 N
ATOM     45  H63 UNL     1      -7.484  -3.560   3.058  1.00  0.00     0.277 HD
ATOM     46  H62 UNL     1      -6.445  -3.538   4.214  1.00  0.00     0.277 HD
ATOM     47  H61 UNL     1      -7.996  -4.081   4.575  1.00  0.00     0.277 HD
ENDBRANCH  43  44
BRANCH  43  48
HETATM   48  O7  UNL     1      -8.934  -1.785   3.542  1.00  0.00    -0.365 OA
ATOM     49  H7  UNL     1      -8.680  -1.709   2.630  1.00  0.00     0.212 HD
ENDBRANCH  43  48
ENDBRANCH  11  43
TORSDOF 14
ENDMDL