MODEL 5
REMARK VINA RESULT: -5.689322898      2.139      5.770
REMARK  17 active torsions:
REMARK  status: ('A' for Active; 'I' for Inactive)
REMARK    1  A    between atoms: C2_2  and  C3_3
REMARK    2  A    between atoms: C3_3  and  C4_4
REMARK    3  A    between atoms: C5_5  and  O1_6
REMARK    4  A    between atoms: O1_6  and  C6_7
REMARK    5  A    between atoms: C7_8  and  O2_9
REMARK    6  A    between atoms: C8_11  and  O3_12
REMARK    7  A    between atoms: C11_17  and  O5_18
REMARK    8  A    between atoms: C12_20  and  O6_21
REMARK    9  A    between atoms: C13_23  and  O7_24
REMARK   10  A    between atoms: O7_24  and  C14_25
REMARK   11  A    between atoms: C14_25  and  O8_26
REMARK   12  A    between atoms: C17_29  and  O9_30
REMARK   13  A    between atoms: C18_32  and  O10_33
REMARK   14  A    between atoms: C23_40  and  O12_41
REMARK   15  A    between atoms: C24_43  and  C25_44
REMARK   16  A    between atoms: C24_43  and  C27_46
REMARK   17  A    between atoms: C27_46  and  O13_47
ROOT
HETATM    1  C6  UNL     1      -5.567  -1.187   5.069  1.00  0.00     0.167 C
HETATM    2  C7  UNL     1      -5.492  -2.616   4.525  1.00  0.00     0.179 C
HETATM    3  C8  UNL     1      -6.821  -2.862   3.919  1.00  0.00     0.178 C
HETATM    4  C9  UNL     1      -7.530  -1.523   3.790  1.00  0.00     0.160 C
HETATM    5  O4  UNL     1      -7.945  -1.383   2.515  1.00  0.00    -0.372 OA
HETATM    6  C10 UNL     1      -8.574  -0.252   2.114  1.00  0.00     0.184 C
HETATM    7  C11 UNL     1      -9.268   0.559   3.123  1.00  0.00     0.180 C
HETATM    8  C12 UNL     1      -8.540   1.613   3.826  1.00  0.00     0.178 C
HETATM    9  C13 UNL     1      -7.107   1.841   3.501  1.00  0.00     0.162 C
HETATM   10  C16 UNL     1      -6.247   0.600   3.375  1.00  0.00     0.058 C
HETATM   11  C17 UNL     1      -6.235   0.349   1.904  1.00  0.00     0.156 C
HETATM   12  C18 UNL     1      -7.591   0.507   1.234  1.00  0.00     0.178 C
HETATM   13  C19 UNL     1      -6.603  -0.457   4.311  1.00  0.00     0.058 C
ENDROOT
BRANCH   1  14
HETATM   14  O1  UNL     1      -4.318  -0.634   5.216  1.00  0.00    -0.343 OA
BRANCH  14  15
HETATM   15  C5  UNL     1      -4.086  -0.059   6.456  1.00  0.00     0.088 C
HETATM   16  C4  UNL     1      -3.877  -1.076   7.562  1.00  0.00    -0.010 C
HETATM   17  C24 UNL     1      -3.947  -0.358   8.859  1.00  0.00     0.060 C
HETATM   18  C23 UNL     1      -3.264   1.021   8.778  1.00  0.00     0.273 C
HETATM   19  O11 UNL     1      -2.424   1.126   7.702  1.00  0.00    -0.343 OA
HETATM   20  C20 UNL     1      -3.196   1.121   6.507  1.00  0.00     0.105 C
HETATM   21  C21 UNL     1      -3.977   2.454   6.618  1.00  0.00     0.053 C
HETATM   22  C22 UNL     1      -2.257   1.336   5.376  1.00  0.00     0.053 C
BRANCH  16  23
HETATM   23  C3  UNL     1      -2.905  -2.139   7.364  1.00  0.00     0.010 C
BRANCH  23  24
HETATM   24  C2  UNL     1      -3.256  -3.531   7.214  1.00  0.00    -0.010 C
HETATM   25  C1  UNL     1      -3.730  -4.288   8.200  1.00  0.00     0.011 C
ENDBRANCH  23  24
ENDBRANCH  16  23
BRANCH  17  26
HETATM   26  C25 UNL     1      -5.386  -0.016   9.292  1.00  0.00     0.017 C
HETATM   27  C26 UNL     1      -6.393  -1.050   9.026  1.00  0.00     0.006 C
ENDBRANCH  17  26
BRANCH  17  28
HETATM   28  C27 UNL     1      -3.351  -1.021  10.055  1.00  0.00     0.183 C
BRANCH  28  29
HETATM   29  O13 UNL     1      -3.859  -0.657  11.275  1.00  0.00    -0.400 OA
ATOM     30  H13 UNL     1      -4.779  -0.842  11.425  1.00  0.00     0.209 HD
ENDBRANCH  28  29
ENDBRANCH  17  28
BRANCH  18  31
HETATM   31  O12 UNL     1      -2.529   1.290   9.948  1.00  0.00    -0.370 OA
ATOM     32  H12 UNL     1      -3.016   0.962  10.695  1.00  0.00     0.212 HD
ENDBRANCH  18  31
ENDBRANCH  14  15
ENDBRANCH   1  14
BRANCH   2  33
HETATM   33  O2  UNL     1      -4.397  -2.842   3.723  1.00  0.00    -0.390 OA
ATOM     34  H2  UNL     1      -4.171  -2.103   3.171  1.00  0.00     0.210 HD
ENDBRANCH   2  33
BRANCH   3  35
HETATM   35  O3  UNL     1      -7.574  -3.782   4.689  1.00  0.00    -0.390 OA
ATOM     36  H3  UNL     1      -7.566  -4.647   4.297  1.00  0.00     0.210 HD
ENDBRANCH   3  35
BRANCH   9  37
HETATM   37  O7  UNL     1      -6.583   2.678   4.482  1.00  0.00    -0.359 OA
BRANCH  37  38
HETATM   38  C14 UNL     1      -5.849   3.735   3.929  1.00  0.00     0.337 C
BRANCH  38  39
HETATM   39  O8  UNL     1      -6.513   4.196   2.822  1.00  0.00    -0.372 OA
HETATM   40  C15 UNL     1      -6.644   5.586   2.873  1.00  0.00     0.204 C
ENDBRANCH  38  39
ENDBRANCH  37  38
ENDBRANCH   9  37
BRANCH  11  41
HETATM   41  O9  UNL     1      -5.639  -0.767   1.439  1.00  0.00    -0.392 OA
ATOM     42  H9  UNL     1      -5.842  -1.063   0.560  1.00  0.00     0.210 HD
ENDBRANCH  11  41
BRANCH   8  43
HETATM   43  O6  UNL     1      -9.147   2.888   3.626  1.00  0.00    -0.390 OA
ATOM     44  H6  UNL     1      -9.093   3.425   4.408  1.00  0.00     0.210 HD
ENDBRANCH   8  43
BRANCH  12  45
HETATM   45  O10 UNL     1      -7.528  -0.143  -0.022  1.00  0.00    -0.390 OA
ATOM     46  H10 UNL     1      -6.641  -0.457  -0.150  1.00  0.00     0.210 HD
ENDBRANCH  12  45
BRANCH   7  47
HETATM   47  O5  UNL     1     -10.411   1.147   2.521  1.00  0.00    -0.390 OA
ATOM     48  H5  UNL     1     -10.581   1.980   2.946  1.00  0.00     0.210 HD
ENDBRANCH   7  47
TORSDOF 17
ENDMDL