MODEL 3
REMARK VINA RESULT: -8.547753237      1.570      2.182
REMARK  17 active torsions:
REMARK  status: ('A' for Active; 'I' for Inactive)
REMARK    1  A    between atoms: O1_2  and  C2_3
REMARK    2  A    between atoms: C2_3  and  C3_4
REMARK    3  A    between atoms: C2_3  and  C16_32
REMARK    4  A    between atoms: C3_4  and  O2_5
REMARK    5  A    between atoms: O2_5  and  C4_6
REMARK    6  A    between atoms: C5_7  and  O3_8
REMARK    7  A    between atoms: C6_10  and  O4_11
REMARK    8  A    between atoms: C7_13  and  N1_14
REMARK    9  A    between atoms: C8_18  and  O5_19
REMARK   10  A    between atoms: C9_21  and  O6_22
REMARK   11  A    between atoms: O6_22  and  C10_23
REMARK   12  A    between atoms: C13_26  and  O7_27
REMARK   13  A    between atoms: C17_34  and  O10_35
REMARK   14  A    between atoms: O10_35  and  C18_36
REMARK   15  A    between atoms: C18_36  and  C19_37
REMARK   16  A    between atoms: C25_43  and  O11_44
REMARK   17  A    between atoms: C26_46  and  O12_47
ROOT
HETATM    1  C4  UNL     1      -7.195  -0.432   4.082  1.00  0.00     0.184 C
HETATM    2  C5  UNL     1      -6.819  -1.751   4.662  1.00  0.00     0.180 C
HETATM    3  C6  UNL     1      -7.559  -2.923   4.111  1.00  0.00     0.182 C
HETATM    4  C7  UNL     1      -7.583  -2.960   2.606  1.00  0.00     0.245 C
HETATM    5  C8  UNL     1      -7.678  -1.581   2.002  1.00  0.00     0.182 C
HETATM    6  C9  UNL     1      -8.240  -0.586   2.955  1.00  0.00     0.187 C
ENDROOT
BRANCH   1   7
HETATM    7  O2  UNL     1      -6.058   0.189   3.614  1.00  0.00    -0.378 OA
BRANCH   7   8
HETATM    8  C3  UNL     1      -4.879  -0.325   4.048  1.00  0.00     0.203 C
BRANCH   8   9
HETATM    9  C2  UNL     1      -4.008   0.504   4.900  1.00  0.00     0.176 C
BRANCH   9  10
HETATM   10  O1  UNL     1      -2.837   0.799   4.159  1.00  0.00    -0.386 OA
HETATM   11  C1  UNL     1      -2.982   1.984   3.456  1.00  0.00     0.202 C
ENDBRANCH   9  10
BRANCH   9  12
HETATM   12  C16 UNL     1      -3.472  -0.193   6.145  1.00  0.00     0.187 C
HETATM   13  O9  UNL     1      -4.518  -0.630   6.938  1.00  0.00    -0.348 OA
HETATM   14  C17 UNL     1      -4.454  -0.048   8.171  1.00  0.00     0.291 C
HETATM   15  C25 UNL     1      -3.100   0.552   8.347  1.00  0.00     0.204 C
HETATM   16  C26 UNL     1      -2.536   0.630   6.948  1.00  0.00     0.183 C
BRANCH  14  17
HETATM   17  O10 UNL     1      -4.828  -0.884   9.210  1.00  0.00    -0.358 OA
BRANCH  17  18
HETATM   18  C18 UNL     1      -5.990  -0.448   9.835  1.00  0.00     0.175 C
BRANCH  18  19
HETATM   19  C19 UNL     1      -5.914  -0.603  11.317  1.00  0.00     0.009 C
HETATM   20  C20 UNL     1      -4.651   0.107  11.796  1.00  0.00     0.007 C
HETATM   21  C21 UNL     1      -4.647   0.182  13.311  1.00  0.00     0.000 C
HETATM   22  C22 UNL     1      -5.566  -0.901  13.852  1.00  0.00     0.000 C
HETATM   23  C23 UNL     1      -7.019  -0.568  13.489  1.00  0.00     0.000 C
HETATM   24  C24 UNL     1      -7.073  -0.028  12.068  1.00  0.00     0.007 C
ENDBRANCH  18  19
ENDBRANCH  17  18
ENDBRANCH  14  17
BRANCH  15  25
HETATM   25  O11 UNL     1      -2.353  -0.274   9.182  1.00  0.00    -0.388 OA
ATOM     26  H11 UNL     1      -2.521  -1.178   8.943  1.00  0.00     0.210 HD
ENDBRANCH  15  25
BRANCH  16  27
HETATM   27  O12 UNL     1      -1.255   0.033   7.018  1.00  0.00    -0.390 OA
ATOM     28  H12 UNL     1      -0.569   0.661   6.827  1.00  0.00     0.210 HD
ENDBRANCH  16  27
ENDBRANCH   9  12
ENDBRANCH   8   9
ENDBRANCH   7   8
ENDBRANCH   1   7
BRANCH   2  29
HETATM   29  O3  UNL     1      -7.020  -1.763   6.063  1.00  0.00    -0.390 OA
ATOM     30  H3  UNL     1      -7.184  -2.645   6.375  1.00  0.00     0.210 HD
ENDBRANCH   2  29
BRANCH   6  31
HETATM   31  O6  UNL     1      -9.399  -0.930   3.575  1.00  0.00    -0.351 OA
BRANCH  31  32
HETATM   32  C10 UNL     1      -9.974  -0.002   4.391  1.00  0.00     0.261 C
HETATM   33  C11 UNL     1     -10.460  -0.581   5.707  1.00  0.00     0.063 C
HETATM   34  C12 UNL     1     -11.650   0.204   6.233  1.00  0.00     0.039 C
HETATM   35  C13 UNL     1     -11.607   1.641   5.717  1.00  0.00     0.147 C
HETATM   36  C14 UNL     1     -11.584   1.674   4.209  1.00  0.00     0.149 C
HETATM   37  C15 UNL     1     -10.868   2.882   3.654  1.00  0.00     0.042 C
HETATM   38  O8  UNL     1     -11.108   0.480   3.739  1.00  0.00    -0.354 OA
BRANCH  35  39
HETATM   39  O7  UNL     1     -12.772   2.254   6.185  1.00  0.00    -0.393 OA
ATOM     40  H7  UNL     1     -13.276   2.485   5.414  1.00  0.00     0.210 HD
ENDBRANCH  35  39
ENDBRANCH  31  32
ENDBRANCH   6  31
BRANCH   3  41
HETATM   41  O4  UNL     1      -6.874  -4.085   4.525  1.00  0.00    -0.391 OA
ATOM     42  H4  UNL     1      -7.504  -4.796   4.537  1.00  0.00     0.210 HD
ENDBRANCH   3  41
BRANCH   5  43
HETATM   43  O5  UNL     1      -8.351  -1.602   0.773  1.00  0.00    -0.391 OA
ATOM     44  H5  UNL     1      -8.085  -0.880   0.216  1.00  0.00     0.210 HD
ENDBRANCH   5  43
BRANCH   4  45
HETATM   45  N1  UNL     1      -8.724  -3.791   2.201  1.00  0.00    -0.070 N
ATOM     46  H13 UNL     1      -9.354  -4.004   2.974  1.00  0.00     0.274 HD
ATOM     47  H12 UNL     1      -9.394  -3.289   1.616  1.00  0.00     0.274 HD
ATOM     48  H11 UNL     1      -8.352  -4.626   1.750  1.00  0.00     0.274 HD
ENDBRANCH   4  45
TORSDOF 17
ENDMDL