MODEL 2
REMARK VINA RESULT: -9.237358662      2.614      4.187
REMARK  17 active torsions:
REMARK  status: ('A' for Active; 'I' for Inactive)
REMARK    1  A    between atoms: C1_4  and  O1_5
REMARK    2  A    between atoms: C1_4  and  C2_7
REMARK    3  A    between atoms: C2_7  and  N2_8
REMARK    4  A    between atoms: C2_7  and  C10_20
REMARK    5  A    between atoms: N2_8  and  C3_9
REMARK    6  A    between atoms: C3_9  and  O2_10
REMARK    7  A    between atoms: C3_9  and  C4_12
REMARK    8  A    between atoms: C7_15  and  O3_16
REMARK    9  A    between atoms: C10_20  and  O4_21
REMARK   10  A    between atoms: C10_20  and  C11_23
REMARK   11  A    between atoms: C11_23  and  O5_24
REMARK   12  A    between atoms: C11_23  and  C12_26
REMARK   13  A    between atoms: C12_26  and  O6_27
REMARK   14  A    between atoms: C12_26  and  C13_29
REMARK   15  A    between atoms: C13_29  and  N3_30
REMARK   16  A    between atoms: C14_31  and  C15_32
REMARK   17  A    between atoms: C15_32  and  N4_33
ROOT
HETATM    1  C12 UNL     1      -7.588  -0.646   4.742  1.00  0.00     0.168 C
ENDROOT
BRANCH   1   2
HETATM    2  C11 UNL     1      -8.894  -0.175   4.113  1.00  0.00     0.184 C
BRANCH   2   3
HETATM    3  C10 UNL     1     -10.047  -0.143   5.079  1.00  0.00     0.218 C
BRANCH   3   4
HETATM    4  C2  UNL     1     -11.035   0.939   4.649  1.00  0.00     0.168 C
BRANCH   4   5
HETATM    5  C1  UNL     1     -12.340   0.715   5.372  1.00  0.00     0.174 C
HETATM    6  N1  UNL     1     -13.382   0.410   4.695  1.00  0.00    -0.378 N
ATOM      7  H12 UNL     1     -14.265   0.259   5.184  1.00  0.00     0.158 HD
ATOM      8  H11 UNL     1     -13.288   0.330   3.683  1.00  0.00     0.158 HD
BRANCH   5   9
HETATM    9  O1  UNL     1     -12.468   0.826   6.762  1.00  0.00    -0.344 OA
ATOM     10  H1  UNL     1     -11.844   0.360   7.306  1.00  0.00     0.219 HD
ENDBRANCH   5   9
ENDBRANCH   4   5
BRANCH   4  11
HETATM   11  N2  UNL     1     -11.053   1.290   3.324  1.00  0.00    -0.377 NA
BRANCH  11  12
HETATM   12  C3  UNL     1     -11.071   1.636   2.015  1.00  0.00     0.225 C
BRANCH  12  13
HETATM   13  O2  UNL     1     -11.919   1.173   1.125  1.00  0.00    -0.335 OA
ATOM     14  H2  UNL     1     -11.701   0.955   0.226  1.00  0.00     0.220 HD
ENDBRANCH  12  13
BRANCH  12  15
HETATM   15  C4  UNL     1     -10.139   2.597   1.388  1.00  0.00     0.029 A
HETATM   16  C5  UNL     1     -10.671   3.614   0.631  1.00  0.00     0.020 A
HETATM   17  C6  UNL     1      -9.858   4.555   0.031  1.00  0.00     0.037 A
HETATM   18  C7  UNL     1      -8.487   4.506   0.169  1.00  0.00     0.065 A
HETATM   19  C8  UNL     1      -7.971   3.466   0.940  1.00  0.00     0.037 A
HETATM   20  C9  UNL     1      -8.787   2.516   1.548  1.00  0.00     0.020 A
BRANCH  18  21
HETATM   21  O3  UNL     1      -7.663   5.467  -0.445  1.00  0.00    -0.361 OA
ATOM     22  H3  UNL     1      -7.600   6.349  -0.098  1.00  0.00     0.217 HD
ENDBRANCH  18  21
ENDBRANCH  12  15
ENDBRANCH  11  12
ENDBRANCH   4  11
ENDBRANCH   3   4
BRANCH   3  23
HETATM   23  O4  UNL     1     -10.776  -1.334   5.054  1.00  0.00    -0.386 OA
ATOM     24  H4  UNL     1     -10.180  -1.997   5.382  1.00  0.00     0.210 HD
ENDBRANCH   3  23
ENDBRANCH   2   3
BRANCH   2  25
HETATM   25  O5  UNL     1      -9.131  -1.094   3.083  1.00  0.00    -0.390 OA
ATOM     26  H5  UNL     1      -9.561  -0.673   2.347  1.00  0.00     0.210 HD
ENDBRANCH   2  25
ENDBRANCH   1   2
BRANCH   1  27
HETATM   27  O6  UNL     1      -7.913  -1.766   5.533  1.00  0.00    -0.391 OA
ATOM     28  H6  UNL     1      -8.295  -1.426   6.333  1.00  0.00     0.210 HD
ENDBRANCH   1  27
BRANCH   1  29
HETATM   29  C13 UNL     1      -7.070   0.507   5.523  1.00  0.00     0.168 C
BRANCH  29  30
HETATM   30  N3  UNL     1      -6.431   0.255   6.768  1.00  0.00    -0.299 N
HETATM   31  C14 UNL     1      -5.076   0.134   6.905  1.00  0.00     0.111 A
HETATM   32  N5  UNL     1      -4.518  -0.076   8.109  1.00  0.00    -0.340 N
HETATM   33  C16 UNL     1      -5.194  -0.186   9.257  1.00  0.00     0.105 A
ATOM     34  H5  UNL     1      -3.502  -0.159   8.150  1.00  0.00     0.167 HD
HETATM   35  C17 UNL     1      -6.576  -0.066   9.154  1.00  0.00     0.114 A
HETATM   36  C26 UNL     1      -4.508  -0.394  10.539  1.00  0.00     0.210 A
HETATM   37  C18 UNL     1      -7.147   0.147   7.923  1.00  0.00     0.265 A
HETATM   38  C19 UNL     1      -7.333  -0.160  10.396  1.00  0.00     0.201 A
HETATM   39  O9  UNL     1      -8.407   0.254   7.832  1.00  0.00    -0.267 OA
HETATM   40  O10 UNL     1      -8.599  -0.049  10.290  1.00  0.00    -0.286 OA
HETATM   41  C20 UNL     1      -6.656  -0.366  11.674  1.00  0.00     0.029 A
HETATM   42  C21 UNL     1      -7.399  -0.440  12.837  1.00  0.00     0.016 A
HETATM   43  C25 UNL     1      -5.291  -0.483  11.778  1.00  0.00     0.030 A
HETATM   44  C22 UNL     1      -6.767  -0.627  14.069  1.00  0.00     0.001 A
HETATM   45  C23 UNL     1      -5.393  -0.747  14.182  1.00  0.00     0.001 A
HETATM   46  C24 UNL     1      -4.680  -0.669  13.010  1.00  0.00     0.016 A
HETATM   47  O11 UNL     1      -3.258  -0.498  10.609  1.00  0.00    -0.285 OA
BRANCH  31  48
HETATM   48  C15 UNL     1      -4.271   0.283   5.679  1.00  0.00     0.277 C
BRANCH  48  49
HETATM   49  N4  UNL     1      -4.055  -0.975   5.042  1.00  0.00    -0.148 N
HETATM   50  O7  UNL     1      -4.089  -1.105   3.819  1.00  0.00    -0.536 OA
HETATM   51  O8  UNL     1      -3.785  -2.137   5.766  1.00  0.00    -0.536 OA
ENDBRANCH  48  49
ENDBRANCH  31  48
ENDBRANCH  29  30
ENDBRANCH   1  29
TORSDOF 17
ENDMDL