MODEL 5
REMARK VINA RESULT: -6.580425017      1.583      1.840
REMARK  7 active torsions:
REMARK  status: ('A' for Active; 'I' for Inactive)
REMARK    1  A    between atoms: C2_2  and  C3_3
REMARK    2  A    between atoms: C3_3  and  C4_4
REMARK    3  A    between atoms: C4_4  and  C5_5
REMARK    4  A    between atoms: C5_5  and  N1_6
REMARK    5  A    between atoms: N1_6  and  C6_8
REMARK    6  A    between atoms: C7_11  and  N3_12
REMARK    7  A    between atoms: C12_19  and  N5_20
ROOT
HETATM    1  C6  UNL     1       0.611  -6.303  31.255  1.00  0.00     0.707 A
HETATM    2  N2  UNL     1       1.094  -5.768  32.399  1.00  0.00    -0.021 N
ATOM      3  H2  UNL     1       2.037  -5.380  32.395  1.00  0.00     0.203 HD
HETATM    4  C7  UNL     1       0.384  -5.726  33.541  1.00  0.00     0.709 A
HETATM    5  N4  UNL     1      -0.863  -6.261  33.472  1.00  0.00    -0.021 N
ATOM      6  H4  UNL     1      -1.442  -6.254  34.312  1.00  0.00     0.203 HD
HETATM    7  C12 UNL     1      -1.369  -6.799  32.352  1.00  0.00     0.706 A
HETATM    8  N6  UNL     1      -0.629  -6.822  31.230  1.00  0.00    -0.022 N
ATOM      9  H6  UNL     1      -1.002  -7.228  30.373  1.00  0.00     0.203 HD
ENDROOT
BRANCH   1  10
HETATM   10  N1  UNL     1       1.350  -6.310  30.192  1.00  0.00    -0.225 N
ATOM     11  H1  UNL     1       1.901  -5.475  29.989  1.00  0.00     0.177 HD
BRANCH  10  12
HETATM   12  C5  UNL     1       1.445  -7.418  29.276  1.00  0.00     0.138 C
BRANCH  12  13
HETATM   13  C4  UNL     1       2.150  -6.959  28.035  1.00  0.00     0.020 C
BRANCH  13  14
HETATM   14  C3  UNL     1       1.354  -5.928  27.266  1.00  0.00     0.001 C
BRANCH  14  15
HETATM   15  C2  UNL     1       1.703  -5.958  25.791  1.00  0.00    -0.004 C
HETATM   16  C1  UNL     1       0.463  -6.011  24.930  1.00  0.00     0.005 C
ENDBRANCH  14  15
ENDBRANCH  13  14
ENDBRANCH  12  13
ENDBRANCH  10  12
ENDBRANCH   1  10
BRANCH   4  17
HETATM   17  N3  UNL     1       0.895  -5.163  34.737  1.00  0.00    -0.217 N
HETATM   18  C8  UNL     1       2.237  -4.635  34.869  1.00  0.00     0.141 A
HETATM   19  C9  UNL     1       2.334  -4.090  36.276  1.00  0.00     0.022 A
HETATM   20  C10 UNL     1       1.067  -4.440  36.983  1.00  0.00     0.022 A
HETATM   21  C11 UNL     1       0.155  -5.044  35.972  1.00  0.00     0.141 A
ENDBRANCH   4  17
BRANCH   7  22
HETATM   22  N5  UNL     1      -2.537  -7.293  32.313  1.00  0.00    -0.229 N
HETATM   23  C13 UNL     1      -2.944  -8.553  32.870  1.00  0.00     0.165 C
ATOM     24  H5  UNL     1      -3.255  -6.743  31.842  1.00  0.00     0.177 HD
ENDBRANCH   7  22
TORSDOF 7
ENDMDL