MODEL 3
REMARK VINA RESULT: -6.261231067      0.943      1.192
REMARK  5 active torsions:
REMARK  status: ('A' for Active; 'I' for Inactive)
REMARK    1  A    between atoms: N1_2  and  C2_4
REMARK    2  A    between atoms: C2_4  and  C3_5
REMARK    3  A    between atoms: C3_5  and  C4_6
REMARK    4  A    between atoms: C4_6  and  N2_7
REMARK       I    between atoms: N3_10  and  C7_11
REMARK       I    between atoms: C7_11  and  N5_17
REMARK    5  A    between atoms: N4_12  and  C8_14
ROOT
HETATM    1  N2  UNL     1      -0.486  -5.597  30.353  1.00  0.00     0.091 N
HETATM    2  C5  UNL     1      -1.664  -6.352  30.673  1.00  0.00     0.292 C
HETATM    3  C6  UNL     1      -1.757  -6.498  32.189  1.00  0.00     0.171 C
HETATM    4  N3  UNL     1      -0.460  -6.864  32.735  1.00  0.00    -0.214 N
HETATM    5  C7  UNL     1      -0.288  -6.905  34.123  1.00  0.00     0.685 C
HETATM    6  N4  UNL     1       0.453  -6.031  34.689  1.00  0.00    -0.222 N
ATOM      7  H4  UNL     1       0.881  -5.342  34.071  1.00  0.00     0.178 HD
HETATM    8  N5  UNL     1      -0.919  -7.894  34.902  1.00  0.00    -0.126 N
ATOM      9  H5  UNL     1      -1.932  -7.855  35.018  1.00  0.00     0.197 HD
HETATM   10  C11 UNL     1      -0.205  -8.940  35.530  1.00  0.00     0.196 C
HETATM   11  N6  UNL     1       0.395  -9.800  36.047  1.00  0.00    -0.171 NA
HETATM   12  C12 UNL     1       0.649  -7.184  31.888  1.00  0.00     0.171 C
HETATM   13  C13 UNL     1       0.726  -6.340  30.653  1.00  0.00     0.292 C
ENDROOT
BRANCH   6  14
HETATM   14  C8  UNL     1       0.757  -5.897  36.073  1.00  0.00     0.091 C
HETATM   15  C9  UNL     1       2.113  -5.202  36.170  1.00  0.00     0.032 C
HETATM   16  C10 UNL     1      -0.237  -4.939  36.737  1.00  0.00     0.032 C
ENDBRANCH   6  14
BRANCH   1  17
HETATM   17  C4  UNL     1      -0.374  -5.271  28.954  1.00  0.00     0.274 C
BRANCH  17  18
HETATM   18  C3  UNL     1      -1.657  -5.227  28.196  1.00  0.00     0.049 C
BRANCH  18  19
HETATM   19  C2  UNL     1      -1.287  -5.205  26.725  1.00  0.00     0.115 C
BRANCH  19  20
HETATM   20  N1  UNL     1       0.078  -5.579  26.564  1.00  0.00    -0.425 N
HETATM   21  C1  UNL     1       0.472  -5.936  25.238  1.00  0.00     0.139 C
ATOM     22  H1  UNL     1       0.732  -5.591  27.346  1.00  0.00     0.152 HD
ENDBRANCH  19  20
ENDBRANCH  18  19
ENDBRANCH  17  18
ENDBRANCH   1  17
TORSDOF 5
ENDMDL