MODEL 1
REMARK VINA RESULT: -5.764691806      0.000      0.000
REMARK  8 active torsions:
REMARK  status: ('A' for Active; 'I' for Inactive)
REMARK    1  A    between atoms: N1_2  and  O1_4
REMARK    2  A    between atoms: O1_4  and  C3_5
REMARK    3  A    between atoms: C3_5  and  C4_6
REMARK    4  A    between atoms: C3_5  and  C5_11
REMARK    5  A    between atoms: C4_6  and  N2_7
REMARK    6  A    between atoms: C5_11  and  N3_12
REMARK    7  A    between atoms: N3_12  and  C6_14
REMARK    8  A    between atoms: C6_14  and  N4_16
ROOT
HETATM    1  C5  UNL     1       0.045  -5.957  33.894  1.00  0.00     0.158 C
ENDROOT
BRANCH   1   2
HETATM    2  C3  UNL     1       0.114  -5.859  35.402  1.00  0.00     0.195 C
BRANCH   2   3
HETATM    3  O1  UNL     1       1.437  -5.578  35.732  1.00  0.00    -0.275 OA
BRANCH   3   4
HETATM    4  N1  UNL     1       1.658  -4.375  36.184  1.00  0.00    -0.302 N
HETATM    5  C1  UNL     1       2.442  -3.491  35.421  1.00  0.00     0.178 C
HETATM    6  C2  UNL     1       0.725  -3.819  37.082  1.00  0.00     0.178 C
ENDBRANCH   3   4
ENDBRANCH   2   3
BRANCH   2   7
HETATM    7  C4  UNL     1      -0.275  -7.249  35.925  1.00  0.00     0.265 C
BRANCH   7   8
HETATM    8  N2  UNL     1      -1.178  -7.133  37.052  1.00  0.00    -0.077 N
ATOM      9  H23 UNL     1      -1.112  -6.218  37.497  1.00  0.00     0.274 HD
ATOM     10  H22 UNL     1      -2.152  -7.088  36.754  1.00  0.00     0.274 HD
ATOM     11  H21 UNL     1      -1.019  -7.890  37.716  1.00  0.00     0.274 HD
ENDBRANCH   7   8
ENDBRANCH   2   7
ENDBRANCH   1   2
BRANCH   1  12
HETATM   12  N3  UNL     1      -0.904  -5.004  33.404  1.00  0.00    -0.365 N
ATOM     13  H3  UNL     1      -1.067  -4.153  33.942  1.00  0.00     0.162 HD
BRANCH  12  14
HETATM   14  C6  UNL     1      -1.632  -5.199  32.193  1.00  0.00     0.169 C
HETATM   15  S1  UNL     1      -2.074  -6.735  31.851  1.00  0.00    -0.041 SA
BRANCH  14  16
HETATM   16  N4  UNL     1      -1.957  -4.117  31.325  1.00  0.00    -0.358 N
HETATM   17  C7  UNL     1      -2.783  -3.068  31.833  1.00  0.00     0.125 C
HETATM   18  C8  UNL     1      -2.514  -1.715  31.256  1.00  0.00     0.020 C
HETATM   19  C9  UNL     1      -1.822  -1.754  29.921  1.00  0.00     0.003 C
HETATM   20  C10 UNL     1      -2.082  -3.049  29.181  1.00  0.00     0.020 C
HETATM   21  C11 UNL     1      -1.426  -4.153  29.977  1.00  0.00     0.125 C
ENDBRANCH  14  16
ENDBRANCH  12  14
ENDBRANCH   1  12
TORSDOF 8
ENDMDL