MODEL 4
REMARK VINA RESULT: -5.379106838      2.739      5.859
REMARK  7 active torsions:
REMARK  status: ('A' for Active; 'I' for Inactive)
REMARK    1  A    between atoms: C2_2  and  C3_3
REMARK    2  A    between atoms: C3_3  and  O1_5
REMARK    3  A    between atoms: C3_3  and  C5_7
REMARK    4  A    between atoms: C5_7  and  N1_9
REMARK    5  A    between atoms: N1_9  and  C7_11
REMARK    6  A    between atoms: C7_11  and  C8_13
REMARK    7  A    between atoms: C8_13  and  N2_14
ROOT
HETATM    1  N1  UNL     1      -1.665  -5.332  32.471  1.00  0.00    -0.376 N
ATOM      2  H1  UNL     1      -2.556  -5.228  32.958  1.00  0.00     0.160 HD
ENDROOT
BRANCH   1   3
HETATM    3  C5  UNL     1      -1.396  -4.475  31.332  1.00  0.00     0.112 C
HETATM    4  C6  UNL     1      -1.072  -5.263  30.073  1.00  0.00     0.035 C
BRANCH   3   5
HETATM    5  C3  UNL     1      -2.604  -3.626  30.990  1.00  0.00     0.074 C
HETATM    6  C4  UNL     1      -3.649  -4.542  30.390  1.00  0.00     0.048 C
BRANCH   5   7
HETATM    7  C2  UNL     1      -2.256  -2.496  30.060  1.00  0.00     0.035 C
HETATM    8  C1  UNL     1      -2.395  -1.198  30.821  1.00  0.00     0.008 C
ENDBRANCH   5   7
BRANCH   5   9
HETATM    9  O1  UNL     1      -3.084  -3.078  32.177  1.00  0.00    -0.388 OA
ATOM     10  H1  UNL     1      -3.928  -3.471  32.363  1.00  0.00     0.210 HD
ENDBRANCH   5   9
ENDBRANCH   3   5
ENDBRANCH   1   3
BRANCH   1  11
HETATM   11  C7  UNL     1      -0.750  -6.305  32.941  1.00  0.00     0.102 C
HETATM   12  S1  UNL     1      -1.126  -7.891  32.864  1.00  0.00    -0.064 SA
BRANCH  11  13
HETATM   13  C8  UNL     1       0.569  -5.927  33.497  1.00  0.00     0.341 C
BRANCH  13  14
HETATM   14  N2  UNL     1       0.455  -4.903  34.546  1.00  0.00     0.099 N
HETATM   15  C9  UNL     1      -0.022  -5.589  35.724  1.00  0.00     0.299 C
HETATM   16  C10 UNL     1       0.375  -5.011  37.026  1.00  0.00     0.198 C
HETATM   17  O2  UNL     1       1.441  -4.154  37.018  1.00  0.00    -0.388 OA
HETATM   18  C11 UNL     1       2.362  -4.670  36.086  1.00  0.00     0.198 C
HETATM   19  C12 UNL     1       1.782  -4.359  34.722  1.00  0.00     0.299 C
ENDBRANCH  13  14
ENDBRANCH  11  13
ENDBRANCH   1  11
TORSDOF 7
ENDMDL