MODEL 1
REMARK VINA RESULT: -5.623075455      0.000      0.000
REMARK  8 active torsions:
REMARK  status: ('A' for Active; 'I' for Inactive)
REMARK    1  A    between atoms: C7_8  and  C8_9
REMARK    2  A    between atoms: C8_9  and  O1_10
REMARK    3  A    between atoms: O1_10  and  C9_11
REMARK    4  A    between atoms: C9_11  and  N2_13
REMARK    5  A    between atoms: N2_13  and  C10_15
REMARK    6  A    between atoms: C10_15  and  C11_16
REMARK    7  A    between atoms: C11_16  and  C12_17
REMARK    8  A    between atoms: C12_17  and  N3_18
ROOT
HETATM    1  C9  UNL     1      -0.154  -5.604  24.917  1.00  0.00     0.210 C
HETATM    2  S1  UNL     1      -0.489  -5.568  23.322  1.00  0.00    -0.033 SA
ENDROOT
BRANCH   1   3
HETATM    3  O1  UNL     1      -0.817  -4.789  25.802  1.00  0.00    -0.327 OA
BRANCH   3   4
HETATM    4  C8  UNL     1      -1.620  -5.289  26.858  1.00  0.00     0.185 C
BRANCH   4   5
HETATM    5  C7  UNL     1      -1.010  -4.793  28.149  1.00  0.00     0.051 A
HETATM    6  C5  UNL     1      -1.731  -5.136  29.395  1.00  0.00     0.165 A
HETATM    7  N1  UNL     1      -1.090  -5.389  30.646  1.00  0.00     0.094 N
HETATM    8  C4  UNL     1      -2.961  -6.016  29.334  1.00  0.00     0.044 C
HETATM    9  C6  UNL     1      -1.772  -3.753  28.877  1.00  0.00     0.051 A
HETATM   10  C1  UNL     1      -1.562  -4.407  31.609  1.00  0.00     0.310 C
HETATM   11  C2  UNL     1      -1.481  -6.727  31.044  1.00  0.00     0.273 C
HETATM   12  C3  UNL     1      -2.938  -6.848  30.596  1.00  0.00     0.033 C
ENDBRANCH   4   5
ENDBRANCH   3   4
ENDBRANCH   1   3
BRANCH   1  13
HETATM   13  N2  UNL     1       0.838  -6.491  25.409  1.00  0.00    -0.361 N
ATOM     14  H2  UNL     1       0.665  -7.495  25.457  1.00  0.00     0.162 HD
BRANCH  13  15
HETATM   15  C10 UNL     1       2.085  -5.942  25.835  1.00  0.00     0.124 C
BRANCH  15  16
HETATM   16  C11 UNL     1       2.371  -5.922  27.287  1.00  0.00     0.047 C
BRANCH  16  17
HETATM   17  C12 UNL     1       2.027  -7.148  28.066  1.00  0.00     0.231 C
BRANCH  17  18
HETATM   18  N3  UNL     1       1.823  -6.875  29.437  1.00  0.00    -0.079 N
ATOM     19  H33 UNL     1       1.570  -7.722  29.946  1.00  0.00     0.274 HD
ATOM     20  H32 UNL     1       2.705  -6.660  29.904  1.00  0.00     0.274 HD
ATOM     21  H31 UNL     1       1.136  -6.137  29.589  1.00  0.00     0.274 HD
ENDBRANCH  17  18
ENDBRANCH  16  17
ENDBRANCH  15  16
ENDBRANCH  13  15
ENDBRANCH   1  13
TORSDOF 8
ENDMDL