MODEL 1
REMARK VINA RESULT: -6.885003383      0.000      0.000
REMARK  5 active torsions:
REMARK  status: ('A' for Active; 'I' for Inactive)
REMARK    1  A    between atoms: O1_1  and  C1_3
REMARK    2  A    between atoms: C1_3  and  C2_4
REMARK    3  A    between atoms: C2_4  and  N1_5
REMARK    4  A    between atoms: C6_9  and  C7_10
REMARK    5  A    between atoms: C7_10  and  N2_11
ROOT
HETATM    1  C7  UNL     1       1.357  -7.533  29.715  1.00  0.00     0.096 C
ENDROOT
BRANCH   1   2
HETATM    2  C6  UNL     1       1.204  -7.517  31.217  1.00  0.00     0.261 C
HETATM    3  N1  UNL     1       0.167  -8.306  31.751  1.00  0.00     0.100 N
HETATM    4  C3  UNL     1      -0.689  -7.497  32.586  1.00  0.00     0.273 C
HETATM    5  C4  UNL     1       0.288  -6.397  33.041  1.00  0.00     0.033 C
HETATM    6  C5  UNL     1       0.968  -6.097  31.722  1.00  0.00     0.043 C
BRANCH   3   7
HETATM    7  C2  UNL     1       0.662  -9.478  32.450  1.00  0.00     0.299 C
BRANCH   7   8
HETATM    8  C1  UNL     1      -0.133 -10.701  32.136  1.00  0.00     0.194 C
BRANCH   8   9
HETATM    9  O1  UNL     1       0.662 -11.505  31.300  1.00  0.00    -0.399 OA
ATOM     10  H1  UNL     1       0.485 -12.408  31.533  1.00  0.00     0.209 HD
ENDBRANCH   8   9
ENDBRANCH   7   8
ENDBRANCH   3   7
ENDBRANCH   1   2
BRANCH   1  11
HETATM   11  N2  UNL     1       1.445  -6.203  29.257  1.00  0.00    -0.370 N
HETATM   12  C8  UNL     1       1.001  -5.758  28.050  1.00  0.00     0.026 C
HETATM   13  C9  UNL     1       1.537  -6.309  26.753  1.00  0.00     0.083 C
HETATM   14  C14 UNL     1      -0.493  -5.582  27.800  1.00  0.00     0.111 C
HETATM   15  C10 UNL     1       0.766  -5.398  25.814  1.00  0.00     0.089 C
HETATM   16  C11 UNL     1       0.383  -6.007  24.498  1.00  0.00     0.027 C
HETATM   17  N3  UNL     1      -0.512  -5.413  26.458  1.00  0.00    -0.383 N
HETATM   18  C12 UNL     1      -0.946  -5.264  24.243  1.00  0.00     0.022 C
HETATM   19  C13 UNL     1      -1.505  -4.960  25.647  1.00  0.00     0.123 C
ATOM     20  H2  UNL     1       1.876  -5.520  29.880  1.00  0.00     0.165 HD
ENDBRANCH   1  11
TORSDOF 5
ENDMDL