MODEL 1
REMARK VINA RESULT: -5.680974320      0.000      0.000
REMARK  7 active torsions:
REMARK  status: ('A' for Active; 'I' for Inactive)
REMARK    1  A    between atoms: C2_2  and  C4_4
REMARK    2  A    between atoms: C4_4  and  N1_5
REMARK    3  A    between atoms: N1_5  and  C5_7
REMARK    4  A    between atoms: C5_7  and  N2_9
REMARK    5  A    between atoms: N2_9  and  C6_11
REMARK    6  A    between atoms: C6_11  and  C7_12
REMARK    7  A    between atoms: C7_12  and  N3_13
ROOT
HETATM    1  N2  UNL     1       0.643  -6.758  31.199  1.00  0.00    -0.366 N
ATOM      2  H2  UNL     1       0.609  -7.775  31.267  1.00  0.00     0.161 HD
ENDROOT
BRANCH   1   3
HETATM    3  C5  UNL     1       0.273  -6.132  29.986  1.00  0.00     0.167 C
HETATM    4  S1  UNL     1      -1.237  -5.550  29.811  1.00  0.00    -0.041 SA
BRANCH   3   5
HETATM    5  N1  UNL     1       1.194  -6.007  28.921  1.00  0.00    -0.367 N
ATOM      6  H1  UNL     1       2.181  -6.211  29.079  1.00  0.00     0.161 HD
BRANCH   5   7
HETATM    7  C4  UNL     1       0.744  -5.593  27.611  1.00  0.00     0.126 C
BRANCH   7   8
HETATM    8  C2  UNL     1       1.607  -6.187  26.512  1.00  0.00    -0.005 C
HETATM    9  C1  UNL     1       2.914  -5.425  26.492  1.00  0.00     0.011 C
HETATM   10  C3  UNL     1       0.919  -5.938  25.172  1.00  0.00     0.011 C
ENDBRANCH   7   8
ENDBRANCH   5   7
ENDBRANCH   3   5
ENDBRANCH   1   3
BRANCH   1  11
HETATM   11  C6  UNL     1       1.060  -5.996  32.327  1.00  0.00     0.152 C
BRANCH  11  12
HETATM   12  C7  UNL     1       0.080  -6.034  33.440  1.00  0.00     0.292 C
BRANCH  12  13
HETATM   13  N3  UNL     1       0.353  -5.260  34.604  1.00  0.00     0.091 N
HETATM   14  C8  UNL     1       0.272  -6.161  35.728  1.00  0.00     0.282 C
HETATM   15  C9  UNL     1      -0.154  -5.475  37.010  1.00  0.00     0.104 C
HETATM   16  S2  UNL     1       0.665  -3.845  37.004  1.00  0.00    -0.166 SA
HETATM   17  C10 UNL     1       2.062  -4.006  35.823  1.00  0.00     0.104 C
HETATM   18  C11 UNL     1       1.529  -4.494  34.486  1.00  0.00     0.282 C
ENDBRANCH  12  13
ENDBRANCH  11  12
ENDBRANCH   1  11
TORSDOF 7
ENDMDL