MODEL 1
REMARK VINA RESULT: -6.371999851      0.000      0.000
REMARK  7 active torsions:
REMARK  status: ('A' for Active; 'I' for Inactive)
REMARK    1  A    between atoms: N1_2  and  C3_4
REMARK    2  A    between atoms: C4_7  and  N3_8
REMARK    3  A    between atoms: N3_8  and  C5_10
REMARK    4  A    between atoms: C5_10  and  C6_11
REMARK    5  A    between atoms: C6_11  and  C7_12
REMARK    6  A    between atoms: C7_12  and  C8_13
REMARK    7  A    between atoms: C8_13  and  N4_14
ROOT
HETATM    1  C3  UNL     1      -0.429  -8.138  33.745  1.00  0.00     0.126 A
HETATM    2  N2  UNL     1      -0.668  -7.260  34.728  1.00  0.00    -0.176 N
ATOM      3  H2  UNL     1      -0.861  -6.290  34.481  1.00  0.00     0.186 HD
HETATM    4  C4  UNL     1      -0.664  -7.612  36.054  1.00  0.00     0.679 A
HETATM    5  N5  UNL     1      -0.414  -8.880  36.412  1.00  0.00    -0.195 N
ATOM      6  H5  UNL     1      -0.412  -9.141  37.398  1.00  0.00     0.184 HD
HETATM    7  C9  UNL     1      -0.166  -9.806  35.468  1.00  0.00     0.036 A
HETATM    8  C10 UNL     1      -0.172  -9.438  34.116  1.00  0.00     0.009 A
HETATM    9  C11 UNL     1       0.115 -10.510  33.162  1.00  0.00     0.044 C
HETATM   10  C12 UNL     1       1.351 -11.295  33.590  1.00  0.00     0.005 C
HETATM   11  C13 UNL     1       1.406 -11.568  35.055  1.00  0.00     0.006 C
HETATM   12  C14 UNL     1       0.118 -11.233  35.781  1.00  0.00     0.058 C
ENDROOT
BRANCH   4  13
HETATM   13  N3  UNL     1      -0.901  -6.718  36.946  1.00  0.00    -0.226 N
ATOM     14  H3  UNL     1      -1.527  -6.978  37.708  1.00  0.00     0.177 HD
BRANCH  13  15
HETATM   15  C5  UNL     1      -0.367  -5.390  36.969  1.00  0.00     0.138 C
BRANCH  15  16
HETATM   16  C6  UNL     1       1.137  -5.371  36.791  1.00  0.00     0.022 C
BRANCH  16  17
HETATM   17  C7  UNL     1       1.521  -4.105  36.018  1.00  0.00     0.029 C
BRANCH  17  18
HETATM   18  C8  UNL     1       1.653  -4.505  34.557  1.00  0.00     0.229 C
BRANCH  18  19
HETATM   19  N4  UNL     1       0.534  -3.883  33.862  1.00  0.00    -0.079 N
ATOM     20  H43 UNL     1      -0.235  -3.624  34.481  1.00  0.00     0.274 HD
ATOM     21  H42 UNL     1       0.740  -2.945  33.520  1.00  0.00     0.274 HD
ATOM     22  H41 UNL     1       0.260  -4.532  33.125  1.00  0.00     0.274 HD
ENDBRANCH  18  19
ENDBRANCH  17  18
ENDBRANCH  16  17
ENDBRANCH  15  16
ENDBRANCH  13  15
ENDBRANCH   4  13
BRANCH   1  23
HETATM   23  N1  UNL     1      -0.449  -7.761  32.381  1.00  0.00    -0.375 N
HETATM   24  C1  UNL     1      -1.548  -7.851  31.478  1.00  0.00     0.150 C
HETATM   25  C2  UNL     1       0.811  -7.217  31.849  1.00  0.00     0.150 C
ENDBRANCH   1  23
TORSDOF 7
ENDMDL