MODEL 1
REMARK VINA RESULT: -6.392506711      0.000      0.000
REMARK  6 active torsions:
REMARK  status: ('A' for Active; 'I' for Inactive)
REMARK    1  A    between atoms: O1_1  and  C1_3
REMARK    2  A    between atoms: C1_3  and  C2_4
REMARK    3  A    between atoms: C1_3  and  C10_14
REMARK    4  A    between atoms: C2_4  and  N1_5
REMARK    5  A    between atoms: N1_5  and  C3_7
REMARK    6  A    between atoms: C10_14  and  N2_15
ROOT
HETATM    1  C1  UNL     1      -1.740  -4.899  32.089  1.00  0.00     0.163 C
ENDROOT
BRANCH   1   2
HETATM    2  O1  UNL     1      -2.031  -6.219  32.503  1.00  0.00    -0.392 OA
ATOM      3  H1  UNL     1      -2.928  -6.400  32.245  1.00  0.00     0.210 HD
ENDBRANCH   1   2
BRANCH   1   4
HETATM    4  C2  UNL     1      -0.526  -4.450  32.867  1.00  0.00     0.147 C
BRANCH   4   5
HETATM    5  N1  UNL     1      -0.534  -5.084  34.134  1.00  0.00    -0.415 N
ATOM      6  H1  UNL     1      -1.371  -5.134  34.715  1.00  0.00     0.153 HD
BRANCH   5   7
HETATM    7  C3  UNL     1       0.726  -5.651  34.542  1.00  0.00     0.076 C
HETATM    8  C4  UNL     1       0.607  -5.943  36.028  1.00  0.00     0.024 C
HETATM    9  C5  UNL     1      -0.229  -4.920  36.721  1.00  0.00     0.002 C
HETATM   10  C6  UNL     1       0.687  -3.804  37.180  1.00  0.00     0.000 C
HETATM   11  C7  UNL     1       1.342  -3.124  35.972  1.00  0.00     0.000 C
HETATM   12  C8  UNL     1       2.398  -3.951  35.343  1.00  0.00     0.002 C
HETATM   13  C9  UNL     1       1.933  -4.853  34.242  1.00  0.00     0.024 C
ENDBRANCH   5   7
ENDBRANCH   4   5
ENDBRANCH   1   4
BRANCH   1  14
HETATM   14  C10 UNL     1      -1.540  -4.808  30.600  1.00  0.00     0.305 C
BRANCH  14  15
HETATM   15  N2  UNL     1      -2.495  -3.831  30.109  1.00  0.00     0.095 N
HETATM   16  C11 UNL     1      -1.887  -2.783  29.337  1.00  0.00     0.298 C
HETATM   17  C12 UNL     1      -1.704  -1.480  30.018  1.00  0.00     0.198 C
HETATM   18  O2  UNL     1      -2.583  -1.168  31.017  1.00  0.00    -0.388 OA
HETATM   19  C13 UNL     1      -3.751  -1.903  30.838  1.00  0.00     0.198 C
HETATM   20  C14 UNL     1      -3.374  -3.341  31.142  1.00  0.00     0.298 C
ENDBRANCH  14  15
ENDBRANCH   1  14
TORSDOF 6
ENDMDL