MODEL 5
REMARK VINA RESULT: -6.216807743      1.196      1.858
REMARK  5 active torsions:
REMARK  status: ('A' for Active; 'I' for Inactive)
REMARK       I    between atoms: C2_2  and  N1_4
REMARK    1  A    between atoms: N1_4  and  C4_6
REMARK    2  A    between atoms: C4_6  and  C5_7
REMARK    3  A    between atoms: C5_7  and  C6_8
REMARK    4  A    between atoms: C6_8  and  S1_9
REMARK    5  A    between atoms: S1_9  and  C7_10
ROOT
HETATM    1  C7  UNL     1      -0.940  -5.977  31.259  1.00  0.00     0.030 C
HETATM    2  C8  UNL     1       0.299  -6.320  30.490  1.00  0.00     0.029 C
HETATM    3  C9  UNL     1      -0.669  -5.289  32.569  1.00  0.00     0.049 C
HETATM    4  C10 UNL     1       0.103  -6.119  33.548  1.00  0.00     0.236 C
HETATM    5  N2  UNL     1      -0.742  -7.009  34.322  1.00  0.00    -0.051 N
ATOM      6  H21 UNL     1      -1.594  -6.534  34.620  1.00  0.00     0.279 HD
ATOM      7  H22 UNL     1      -0.331  -7.200  35.236  1.00  0.00     0.279 HD
HETATM    8  C11 UNL     1      -1.049  -8.232  33.633  1.00  0.00     0.462 C
HETATM    9  N3  UNL     1      -0.829  -8.156  32.208  1.00  0.00    -0.050 N
ATOM     10  H31 UNL     1      -0.877  -9.081  31.781  1.00  0.00     0.279 HD
ATOM     11  H32 UNL     1       0.143  -7.928  31.999  1.00  0.00     0.279 HD
HETATM   12  C12 UNL     1      -1.732  -7.234  31.554  1.00  0.00     0.254 C
ENDROOT
BRANCH   1  13
HETATM   13  S1  UNL     1      -1.928  -4.850  30.250  1.00  0.00    -0.158 SA
BRANCH  13  14
HETATM   14  C6  UNL     1      -1.955  -5.506  28.567  1.00  0.00     0.076 C
BRANCH  14  15
HETATM   15  C5  UNL     1      -1.182  -4.617  27.609  1.00  0.00     0.030 C
BRANCH  15  16
HETATM   16  C4  UNL     1      -1.266  -5.273  26.247  1.00  0.00     0.126 C
BRANCH  16  17
HETATM   17  N1  UNL     1       0.042  -5.621  25.759  1.00  0.00    -0.357 N
HETATM   18  C2  UNL     1       0.247  -5.734  24.372  1.00  0.00     0.215 C
HETATM   19  C1  UNL     1      -0.803  -5.522  23.349  1.00  0.00     0.117 C
HETATM   20  O1  UNL     1       1.417  -6.039  23.958  1.00  0.00    -0.274 OA
HETATM   21  C3  UNL     1       1.100  -5.841  26.697  1.00  0.00     0.152 C
ENDBRANCH  16  17
ENDBRANCH  15  16
ENDBRANCH  14  15
ENDBRANCH  13  14
ENDBRANCH   1  13
TORSDOF 5
ENDMDL