MODEL 4
REMARK VINA RESULT: -6.945803859      1.490      3.034
REMARK  6 active torsions:
REMARK  status: ('A' for Active; 'I' for Inactive)
REMARK    1  A    between atoms: O1_2  and  C2_3
REMARK    2  A    between atoms: C4_5  and  C5_6
REMARK    3  A    between atoms: N3_13  and  N4_14
REMARK    4  A    between atoms: C7_16  and  C8_17
REMARK    5  A    between atoms: C13_24  and  O2_25
REMARK    6  A    between atoms: C15_27  and  O3_28
ROOT
HETATM    1  C5  UNL     1      37.241  24.475  29.108  1.00  0.00     0.155 A
HETATM    2  N1  UNL     1      37.352  23.311  28.389  1.00  0.00    -0.281 N
ATOM      3  H1  UNL     1      36.596  22.879  27.858  1.00  0.00     0.188 HD
HETATM    4  N2  UNL     1      38.567  22.833  28.482  1.00  0.00    -0.273 N
ATOM      5  H2  UNL     1      38.900  21.978  28.038  1.00  0.00     0.189 HD
HETATM    6  C6  UNL     1      39.296  23.637  29.244  1.00  0.00     0.214 A
HETATM    7  S1  UNL     1      40.880  23.494  29.676  1.00  0.00    -0.037 SA
HETATM    8  N3  UNL     1      38.451  24.667  29.631  1.00  0.00    -0.211 N
ENDROOT
BRANCH   1   9
HETATM    9  C4  UNL     1      36.001  25.239  29.186  1.00  0.00     0.017 A
HETATM   10  C3  UNL     1      35.805  26.522  28.779  1.00  0.00     0.055 A
HETATM   11  C2  UNL     1      34.575  27.193  28.856  1.00  0.00     0.105 A
HETATM   12  C15 UNL     1      33.490  26.520  29.376  1.00  0.00     0.135 A
HETATM   13  C13 UNL     1      33.643  25.209  29.804  1.00  0.00     0.105 A
HETATM   14  C12 UNL     1      34.872  24.593  29.708  1.00  0.00     0.055 A
BRANCH  11  15
HETATM   15  O1  UNL     1      34.505  28.488  28.412  1.00  0.00    -0.353 OA
HETATM   16  C1  UNL     1      35.443  29.227  27.715  1.00  0.00     0.210 C
ENDBRANCH  11  15
BRANCH  12  17
HETATM   17  O3  UNL     1      32.304  27.211  29.434  1.00  0.00    -0.351 OA
HETATM   18  C16 UNL     1      31.283  27.222  28.482  1.00  0.00     0.210 C
ENDBRANCH  12  17
BRANCH  13  19
HETATM   19  O2  UNL     1      32.526  24.608  30.307  1.00  0.00    -0.353 OA
HETATM   20  C14 UNL     1      32.334  23.265  30.607  1.00  0.00     0.210 C
ENDBRANCH  13  19
ENDBRANCH   1   9
BRANCH   8  21
HETATM   21  N4  UNL     1      38.868  25.680  30.416  1.00  0.00    -0.300 N
HETATM   22  C7  UNL     1      39.398  26.783  30.381  1.00  0.00     0.119 C
ATOM     23  H4  UNL     1      38.670  25.443  31.388  1.00  0.00     0.186 HD
BRANCH  22  24
HETATM   24  C8  UNL     1      39.873  27.579  29.230  1.00  0.00    -0.011 A
HETATM   25  C9  UNL     1      39.145  27.649  28.074  1.00  0.00     0.063 A
HETATM   26  S2  UNL     1      40.108  28.645  27.063  1.00  0.00    -0.093 SA
HETATM   27  C10 UNL     1      41.391  28.942  28.125  1.00  0.00     0.052 A
HETATM   28 BR1  UNL     1      42.968  29.999  27.813  1.00  0.00    -0.043 Br
HETATM   29  C11 UNL     1      41.040  28.253  29.254  1.00  0.00     0.040 A
ENDBRANCH  22  24
ENDBRANCH   8  21
TORSDOF 6
ENDMDL