MODEL 5
REMARK VINA RESULT: -8.466540985      2.125      2.224
REMARK  8 active torsions:
REMARK  status: ('A' for Active; 'I' for Inactive)
REMARK    1  A    between atoms: O1_3  and  C2_4
REMARK    2  A    between atoms: C3_6  and  C4_7
REMARK    3  A    between atoms: C5_12  and  S2_13
REMARK    4  A    between atoms: S2_13  and  C6_14
REMARK    5  A    between atoms: C6_14  and  C7_15
REMARK       I    between atoms: C7_15  and  N4_17
REMARK    6  A    between atoms: N4_17  and  C8_19
REMARK    7  A    between atoms: C8_19  and  N5_21
REMARK    8  A    between atoms: N5_21  and  C9_23
ROOT
HETATM    1  N1  UNL     1      30.691  27.370  28.940  1.00  0.00    -0.164 NA
HETATM    2  C1  UNL     1      31.516  26.592  29.184  1.00  0.00     0.234 C
HETATM    3  O1  UNL     1      32.510  25.681  29.461  1.00  0.00    -0.231 OA
ENDROOT
BRANCH   3   4
HETATM    4  C2  UNL     1      33.757  25.936  28.847  1.00  0.00     0.152 A
HETATM    5  S1  UNL     1      34.610  27.409  28.723  1.00  0.00    -0.058 SA
HETATM    6  C3  UNL     1      35.975  26.867  27.864  1.00  0.00     0.062 A
HETATM    7  C15 UNL     1      35.722  25.532  27.696  1.00  0.00     0.050 A
HETATM    8  C16 UNL     1      34.580  25.052  28.202  1.00  0.00     0.077 A
HETATM    9 CL1  UNL     1      34.094  23.336  28.073  1.00  0.00    -0.081 Cl
BRANCH   6  10
HETATM   10  C4  UNL     1      37.145  27.642  27.410  1.00  0.00     0.182 A
HETATM   11  N2  UNL     1      37.036  28.836  26.806  1.00  0.00    -0.276 N
HETATM   12  N3  UNL     1      38.259  29.223  26.547  1.00  0.00    -0.272 N
ATOM     13  H2  UNL     1      36.174  29.340  26.592  1.00  0.00     0.189 HD
HETATM   14  C5  UNL     1      39.129  28.303  26.973  1.00  0.00     0.204 A
ATOM     15  H3  UNL     1      38.512  30.098  26.087  1.00  0.00     0.189 HD
HETATM   16  O3  UNL     1      38.403  27.339  27.501  1.00  0.00    -0.267 OA
BRANCH  14  17
HETATM   17  S2  UNL     1      40.887  28.435  26.818  1.00  0.00    -0.075 SA
BRANCH  17  18
HETATM   18  C6  UNL     1      41.597  29.213  28.293  1.00  0.00     0.186 C
BRANCH  18  19
HETATM   19  C7  UNL     1      42.829  29.966  27.978  1.00  0.00     0.233 C
HETATM   20  O2  UNL     1      43.512  30.423  28.924  1.00  0.00    -0.272 OA
HETATM   21  N4  UNL     1      43.267  30.190  26.652  1.00  0.00    -0.303 N
ATOM     22  H4  UNL     1      42.696  29.808  25.897  1.00  0.00     0.171 HD
BRANCH  21  23
HETATM   23  C8  UNL     1      44.436  30.902  26.287  1.00  0.00     0.174 C
HETATM   24  S3  UNL     1      45.449  30.182  25.229  1.00  0.00    -0.041 SA
BRANCH  23  25
HETATM   25  N5  UNL     1      44.697  32.190  26.832  1.00  0.00    -0.362 N
ATOM     26  H5  UNL     1      44.740  32.279  27.848  1.00  0.00     0.162 HD
BRANCH  25  27
HETATM   27  C9  UNL     1      44.903  33.365  26.050  1.00  0.00     0.083 C
HETATM   28  C10 UNL     1      46.336  33.403  25.559  1.00  0.00     0.025 C
HETATM   29  C11 UNL     1      47.297  33.506  26.723  1.00  0.00     0.002 C
HETATM   30  C12 UNL     1      46.992  34.665  27.632  1.00  0.00     0.000 C
HETATM   31  C13 UNL     1      45.523  34.586  28.068  1.00  0.00     0.002 C
HETATM   32  C14 UNL     1      44.703  34.657  26.816  1.00  0.00     0.025 C
ENDBRANCH  25  27
ENDBRANCH  23  25
ENDBRANCH  21  23
ENDBRANCH  18  19
ENDBRANCH  17  18
ENDBRANCH  14  17
ENDBRANCH   6  10
ENDBRANCH   3   4
TORSDOF 8
ENDMDL