MODEL 3
REMARK VINA RESULT: -9.685284864      0.975      1.444
REMARK  7 active torsions:
REMARK  status: ('A' for Active; 'I' for Inactive)
REMARK    1  A    between atoms: O1_2  and  C2_3
REMARK    2  A    between atoms: C3_4  and  O2_5
REMARK    3  A    between atoms: C4_7  and  O3_8
REMARK    4  A    between atoms: C9_14  and  C10_15
REMARK    5  A    between atoms: C19_26  and  O6_27
REMARK    6  A    between atoms: O6_27  and  C20_28
REMARK    7  A    between atoms: C20_28  and  C21_29
ROOT
HETATM    1  C2  UNL     1      39.636  27.832  27.780  1.00  0.00     0.138 A
HETATM    2  C3  UNL     1      39.411  28.986  27.021  1.00  0.00     0.136 A
HETATM    3  C4  UNL     1      38.145  29.471  26.774  1.00  0.00     0.115 A
HETATM    4  C6  UNL     1      37.057  28.786  27.299  1.00  0.00     0.015 A
HETATM    5  C7  UNL     1      35.802  29.276  27.050  1.00  0.00     0.040 A
HETATM    6  C8  UNL     1      34.711  28.608  27.564  1.00  0.00     0.048 A
HETATM    7 CL1  UNL     1      33.160  29.372  27.244  1.00  0.00    -0.083 Cl
HETATM    8  C9  UNL     1      34.827  27.481  28.308  1.00  0.00     0.021 A
HETATM    9  C17 UNL     1      36.141  27.014  28.539  1.00  0.00     0.031 A
HETATM   10  C18 UNL     1      37.254  27.638  28.054  1.00  0.00     0.014 A
HETATM   11  C19 UNL     1      38.542  27.152  28.300  1.00  0.00     0.116 A
ENDROOT
BRANCH  11  12
HETATM   12  O6  UNL     1      38.684  26.012  29.054  1.00  0.00    -0.340 OA
BRANCH  12  13
HETATM   13  C20 UNL     1      38.945  24.723  28.602  1.00  0.00     0.255 C
BRANCH  13  14
HETATM   14  C21 UNL     1      40.386  24.347  28.810  1.00  0.00     0.134 A
HETATM   15  N1  UNL     1      41.037  24.164  29.969  1.00  0.00    -0.273 N
HETATM   16  N2  UNL     1      42.283  23.845  29.747  1.00  0.00    -0.225 N
ATOM     17  H1  UNL     1      40.617  24.261  30.894  1.00  0.00     0.189 HD
HETATM   18  N3  UNL     1      42.460  23.817  28.438  1.00  0.00    -0.005 NA
ATOM     19  H2  UNL     1      42.991  23.652  30.456  1.00  0.00     0.205 HD
HETATM   20  N4  UNL     1      41.306  24.122  27.854  1.00  0.00    -0.269 N
ATOM     21  H4  UNL     1      41.144  24.177  26.849  1.00  0.00     0.185 HD
ENDBRANCH  13  14
ENDBRANCH  12  13
ENDBRANCH  11  12
BRANCH   1  22
HETATM   22  O1  UNL     1      40.925  27.419  27.979  1.00  0.00    -0.351 OA
HETATM   23  C1  UNL     1      41.784  27.760  29.020  1.00  0.00     0.210 C
ENDBRANCH   1  22
BRANCH   2  24
HETATM   24  O2  UNL     1      40.474  29.706  26.477  1.00  0.00    -0.356 OA
ATOM     25  H2  UNL     1      41.266  29.861  26.978  1.00  0.00     0.218 HD
ENDBRANCH   2  24
BRANCH   3  26
HETATM   26  O3  UNL     1      37.963  30.610  26.025  1.00  0.00    -0.352 OA
HETATM   27  C5  UNL     1      37.308  31.763  26.465  1.00  0.00     0.210 C
ENDBRANCH   3  26
BRANCH   8  28
HETATM   28  C10 UNL     1      33.731  26.662  28.838  1.00  0.00     0.091 A
HETATM   29  C11 UNL     1      32.419  26.990  28.863  1.00  0.00     0.093 A
HETATM   30  C12 UNL     1      31.434  26.123  29.396  1.00  0.00     0.182 A
HETATM   31  O4  UNL     1      30.225  26.445  29.411  1.00  0.00    -0.288 OA
HETATM   32  C13 UNL     1      31.825  24.907  29.903  1.00  0.00     0.018 A
HETATM   33  C14 UNL     1      30.906  23.916  30.484  1.00  0.00     0.055 C
HETATM   34  C15 UNL     1      33.173  24.632  29.847  1.00  0.00     0.059 A
HETATM   35  C16 UNL     1      33.649  23.343  30.375  1.00  0.00     0.077 C
HETATM   36  O5  UNL     1      34.034  25.465  29.347  1.00  0.00    -0.314 OA
ENDBRANCH   8  28
TORSDOF 7
ENDMDL