MODEL 5
REMARK VINA RESULT: -7.879204470      1.378      1.927
REMARK  9 active torsions:
REMARK  status: ('A' for Active; 'I' for Inactive)
REMARK    1  A    between atoms: S1_2  and  C2_3
REMARK    2  A    between atoms: C2_3  and  C3_4
REMARK    3  A    between atoms: C3_4  and  S2_5
REMARK    4  A    between atoms: S2_5  and  C4_6
REMARK    5  A    between atoms: C4_6  and  N1_8
REMARK    6  A    between atoms: N3_16  and  N4_18
REMARK    7  A    between atoms: N4_18  and  C9_20
REMARK    8  A    between atoms: C11_27  and  C12_28
REMARK    9  A    between atoms: C12_28  and  C13_29
ROOT
HETATM    1  C9  UNL     1      44.175  28.864  26.781  1.00  0.00     0.145 A
HETATM    2  N5  UNL     1      44.465  28.747  25.486  1.00  0.00    -0.316 N
ATOM      3  H5  UNL     1      44.046  27.981  24.958  1.00  0.00     0.170 HD
HETATM    4  C10 UNL     1      45.290  29.603  24.842  1.00  0.00     0.180 A
HETATM    5 CL1  UNL     1      45.640  29.407  23.127  1.00  0.00    -0.045 Cl
HETATM    6  N6  UNL     1      45.833  30.604  25.547  1.00  0.00    -0.335 N
ATOM      7  H6  UNL     1      46.457  31.260  25.078  1.00  0.00     0.168 HD
HETATM    8  C11 UNL     1      45.572  30.770  26.875  1.00  0.00     0.036 A
HETATM    9  C17 UNL     1      44.737  29.903  27.523  1.00  0.00     0.112 A
HETATM   10  C18 UNL     1      44.468  30.049  28.914  1.00  0.00     0.105 C
HETATM   11  N7  UNL     1      44.244  30.143  30.062  1.00  0.00    -0.191 NA
ENDROOT
BRANCH   1  12
HETATM   12  N4  UNL     1      43.300  27.964  27.499  1.00  0.00    -0.283 N
ATOM     13  H4  UNL     1      43.326  27.949  28.518  1.00  0.00     0.188 HD
BRANCH  12  14
HETATM   14  N3  UNL     1      42.432  27.128  26.834  1.00  0.00    -0.296 N
HETATM   15  C2  UNL     1      41.203  27.341  26.625  1.00  0.00     0.071 C
ATOM     16  H3  UNL     1      42.817  26.254  26.476  1.00  0.00     0.187 HD
BRANCH  15  17
HETATM   17  S1  UNL     1      40.259  26.107  25.735  1.00  0.00    -0.119 SA
HETATM   18  C1  UNL     1      41.382  24.766  25.272  1.00  0.00     0.097 C
ENDBRANCH  15  17
BRANCH  15  19
HETATM   19  C3  UNL     1      40.577  28.590  27.126  1.00  0.00     0.147 C
BRANCH  19  20
HETATM   20  S2  UNL     1      39.799  28.356  28.733  1.00  0.00    -0.094 SA
BRANCH  20  21
HETATM   21  C4  UNL     1      38.630  27.038  28.800  1.00  0.00     0.137 C
HETATM   22  S3  UNL     1      37.095  27.210  28.280  1.00  0.00    -0.053 SA
BRANCH  21  23
HETATM   23  N1  UNL     1      39.017  25.793  29.321  1.00  0.00    -0.363 N
HETATM   24  C5  UNL     1      38.289  24.576  29.053  1.00  0.00     0.152 C
HETATM   25  C6  UNL     1      39.267  23.427  29.351  1.00  0.00     0.252 C
HETATM   26  N2  UNL     1      40.581  23.701  28.812  1.00  0.00    -0.072 N
HETATM   27  C7  UNL     1      41.202  24.866  29.371  1.00  0.00     0.252 C
ATOM     28  H22 UNL     1      41.188  22.887  28.912  1.00  0.00     0.277 HD
ATOM     29  H21 UNL     1      40.547  23.765  27.794  1.00  0.00     0.277 HD
HETATM   30  C8  UNL     1      40.186  25.702  30.159  1.00  0.00     0.152 C
ENDBRANCH  21  23
ENDBRANCH  20  21
ENDBRANCH  19  20
ENDBRANCH  15  19
ENDBRANCH  12  14
ENDBRANCH   1  12
BRANCH   8  31
HETATM   31  C12 UNL     1      46.184  31.884  27.623  1.00  0.00     0.063 C
BRANCH  31  32
HETATM   32  C13 UNL     1      46.374  33.057  26.724  1.00  0.00    -0.009 C
HETATM   33  C14 UNL     1      47.671  33.810  26.919  1.00  0.00     0.005 C
HETATM   34  C15 UNL     1      46.938  34.664  27.948  1.00  0.00     0.001 C
HETATM   35  C16 UNL     1      45.660  34.304  27.235  1.00  0.00     0.005 C
ENDBRANCH  31  32
ENDBRANCH   8  31
TORSDOF 9
ENDMDL