MODEL 5
REMARK VINA RESULT: -7.280294435      7.122      9.585
REMARK  6 active torsions:
REMARK  status: ('A' for Active; 'I' for Inactive)
REMARK    1  A    between atoms: C4_8  and  C5_9
REMARK       I    between atoms: C5_9  and  N2_11
REMARK    2  A    between atoms: N2_11  and  C6_13
REMARK    3  A    between atoms: C7_14  and  C8_15
REMARK    4  A    between atoms: C8_15  and  N3_16
REMARK    5  A    between atoms: C15_24  and  C16_25
REMARK    6  A    between atoms: C17_28  and  N4_29
ROOT
HETATM    1  C6  UNL     1      43.810  28.173  26.555  1.00  0.00     0.088 A
HETATM    2  C7  UNL     1      44.227  29.434  26.863  1.00  0.00     0.050 A
HETATM    3  S2  UNL     1      45.842  29.202  27.348  1.00  0.00    -0.077 SA
HETATM    4  C15 UNL     1      45.953  27.516  27.151  1.00  0.00     0.117 A
HETATM    5  C17 UNL     1      44.707  27.171  26.704  1.00  0.00     0.154 A
ENDROOT
BRANCH   1   6
HETATM    6  N2  UNL     1      42.441  27.896  26.079  1.00  0.00    -0.319 N
HETATM    7  C5  UNL     1      41.497  27.389  26.961  1.00  0.00     0.260 C
HETATM    8  O1  UNL     1      41.898  27.185  28.157  1.00  0.00    -0.267 OA
ATOM      9  H2  UNL     1      42.190  28.076  25.107  1.00  0.00     0.169 HD
BRANCH   7  10
HETATM   10  C4  UNL     1      40.081  27.057  26.660  1.00  0.00     0.085 A
HETATM   11  C2  UNL     1      39.027  27.746  27.187  1.00  0.00     0.014 A
HETATM   12  C1  UNL     1      38.977  28.886  28.177  1.00  0.00     0.059 C
HETATM   13  S1  UNL     1      37.664  26.973  26.459  1.00  0.00    -0.018 SA
HETATM   14  N1  UNL     1      38.471  25.846  25.549  1.00  0.00    -0.316 N
HETATM   15  C3  UNL     1      39.749  26.049  25.790  1.00  0.00     0.126 A
ATOM     16  H1  UNL     1      38.063  25.143  24.933  1.00  0.00     0.175 HD
HETATM   17 CL1  UNL     1      40.952  25.004  24.962  1.00  0.00    -0.063 Cl
ENDBRANCH   7  10
ENDBRANCH   1   6
BRANCH   2  18
HETATM   18  C8  UNL     1      43.383  30.669  26.752  1.00  0.00     0.111 C
BRANCH  18  19
HETATM   19  N3  UNL     1      44.121  31.840  26.541  1.00  0.00    -0.369 N
HETATM   20  C9  UNL     1      44.626  32.138  25.264  1.00  0.00     0.063 C
HETATM   21  C10 UNL     1      45.422  33.425  25.295  1.00  0.00     0.044 C
HETATM   22  C11 UNL     1      46.479  33.328  26.374  1.00  0.00     0.005 C
HETATM   23  C12 UNL     1      45.948  34.100  27.577  1.00  0.00     0.002 C
HETATM   24  C13 UNL     1      44.898  33.268  28.283  1.00  0.00     0.020 C
HETATM   25  C14 UNL     1      43.746  32.971  27.346  1.00  0.00     0.127 C
ENDBRANCH  18  19
ENDBRANCH   2  18
BRANCH   5  26
HETATM   26  N4  UNL     1      44.418  25.769  26.425  1.00  0.00    -0.112 N
HETATM   27  O4  UNL     1      44.347  25.381  25.252  1.00  0.00    -0.532 OA
HETATM   28  O5  UNL     1      44.239  24.940  27.477  1.00  0.00    -0.532 OA
ENDBRANCH   5  26
BRANCH   4  29
HETATM   29  C16 UNL     1      47.125  26.643  27.401  1.00  0.00     0.219 C
HETATM   30  O2  UNL     1      47.878  26.409  26.443  1.00  0.00    -0.643 OA
HETATM   31  O3  UNL     1      47.370  26.115  28.637  1.00  0.00    -0.643 OA
ENDBRANCH   4  29
TORSDOF 6
ENDMDL