MODEL 2
REMARK VINA RESULT: -9.722638582      1.485      2.175
REMARK  9 active torsions:
REMARK  status: ('A' for Active; 'I' for Inactive)
REMARK    1  A    between atoms: C1_2  and  C2_3
REMARK    2  A    between atoms: C1_2  and  O5_26
REMARK    3  A    between atoms: C2_3  and  S1_4
REMARK    4  A    between atoms: S1_4  and  C3_5
REMARK    5  A    between atoms: C4_10  and  C5_11
REMARK    6  A    between atoms: C5_11  and  N3_12
REMARK    7  A    between atoms: C6_13  and  O2_14
REMARK    8  A    between atoms: C9_18  and  O3_19
REMARK    9  A    between atoms: O5_26  and  C14_27
ROOT
HETATM    1  C3  UNL     1      40.598  27.550  26.554  1.00  0.00     0.203 A
HETATM    2  N1  UNL     1      39.868  26.770  25.762  1.00  0.00    -0.272 N
ATOM      3  H1  UNL     1      40.217  25.956  25.254  1.00  0.00     0.189 HD
HETATM    4  N2  UNL     1      38.610  27.214  25.734  1.00  0.00    -0.279 N
ATOM      5  H2  UNL     1      37.829  26.814  25.213  1.00  0.00     0.189 HD
HETATM    6  C4  UNL     1      38.579  28.282  26.522  1.00  0.00     0.159 A
HETATM    7  O4  UNL     1      39.788  28.479  27.016  1.00  0.00    -0.270 OA
ENDROOT
BRANCH   1   8
HETATM    8  S1  UNL     1      42.346  27.476  26.994  1.00  0.00    -0.075 SA
BRANCH   8   9
HETATM    9  C2  UNL     1      43.115  29.111  26.717  1.00  0.00     0.194 C
BRANCH   9  10
HETATM   10  C1  UNL     1      42.826  29.920  27.924  1.00  0.00     0.269 C
HETATM   11  O1  UNL     1      42.236  29.477  28.925  1.00  0.00    -0.264 OA
BRANCH  10  12
HETATM   12  O5  UNL     1      43.255  31.234  27.919  1.00  0.00    -0.315 OA
BRANCH  12  13
HETATM   13  C14 UNL     1      44.150  31.824  28.832  1.00  0.00     0.132 C
HETATM   14  C15 UNL     1      44.056  33.360  28.785  1.00  0.00     0.037 C
HETATM   15  C16 UNL     1      44.535  33.666  27.386  1.00  0.00    -0.005 C
HETATM   16  C17 UNL     1      45.300  34.952  27.298  1.00  0.00     0.005 C
HETATM   17  C21 UNL     1      45.321  32.462  26.926  1.00  0.00     0.026 C
HETATM   18  C18 UNL     1      46.726  34.766  27.728  1.00  0.00     0.003 C
HETATM   19  C19 UNL     1      47.463  33.784  26.857  1.00  0.00     0.037 C
HETATM   20  C20 UNL     1      46.574  32.789  26.181  1.00  0.00     0.174 C
HETATM   21  F1  UNL     1      46.163  33.282  24.933  1.00  0.00    -0.249 F
HETATM   22  C22 UNL     1      45.541  31.662  28.193  1.00  0.00     0.040 C
ENDBRANCH  12  13
ENDBRANCH  10  12
ENDBRANCH   9  10
ENDBRANCH   8   9
ENDBRANCH   1   8
BRANCH   6  23
HETATM   23  C5  UNL     1      37.402  29.142  26.827  1.00  0.00     0.219 C
BRANCH  23  24
HETATM   24  N3  UNL     1      36.434  28.436  27.631  1.00  0.00    -0.300 N
HETATM   25  C6  UNL     1      36.631  27.449  28.486  1.00  0.00     0.151 A
HETATM   26  C7  UNL     1      35.446  26.990  29.012  1.00  0.00     0.004 A
HETATM   27  C8  UNL     1      34.453  27.772  28.418  1.00  0.00     0.004 A
HETATM   28  C13 UNL     1      35.176  25.935  30.001  1.00  0.00     0.044 C
HETATM   29  C9  UNL     1      35.100  28.637  27.590  1.00  0.00     0.151 A
HETATM   30  C10 UNL     1      33.019  27.483  28.771  1.00  0.00     0.044 C
HETATM   31  C11 UNL     1      32.984  25.943  28.879  1.00  0.00     0.005 C
HETATM   32  C12 UNL     1      33.717  25.627  30.164  1.00  0.00     0.005 C
BRANCH  25  33
HETATM   33  O2  UNL     1      37.924  26.967  28.782  1.00  0.00    -0.345 OA
ATOM     34  H2  UNL     1      38.060  26.170  29.280  1.00  0.00     0.219 HD
ENDBRANCH  25  33
BRANCH  29  35
HETATM   35  O3  UNL     1      34.502  29.611  26.787  1.00  0.00    -0.345 OA
ATOM     36  H3  UNL     1      33.722  30.088  27.048  1.00  0.00     0.219 HD
ENDBRANCH  29  35
ENDBRANCH  23  24
ENDBRANCH   6  23
TORSDOF 9
ENDMDL