MODEL 5
REMARK VINA RESULT: -7.607597472      1.202      2.161
REMARK  11 active torsions:
REMARK  status: ('A' for Active; 'I' for Inactive)
REMARK    1  A    between atoms: C2_2  and  O1_3
REMARK    2  A    between atoms: O1_3  and  N1_4
REMARK    3  A    between atoms: N1_4  and  C3_6
REMARK    4  A    between atoms: C3_6  and  O2_7
REMARK    5  A    between atoms: C3_6  and  C4_9
REMARK    6  A    between atoms: C7_13  and  C8_14
REMARK    7  A    between atoms: C11_17  and  O4_18
REMARK    8  A    between atoms: C13_21  and  O5_22
REMARK    9  A    between atoms: C18_30  and  C19_31
REMARK   10  A    between atoms: C19_31  and  O9_33
REMARK   11  A    between atoms: O9_33  and  C20_34
ROOT
HETATM    1  C4  UNL     1      44.538  28.589  27.105  1.00  0.00     0.065 A
HETATM    2  C5  UNL     1      43.914  27.762  26.143  1.00  0.00     0.065 A
HETATM    3  C6  UNL     1      44.560  26.977  25.004  1.00  0.00     0.077 C
HETATM    4  O3  UNL     1      42.699  27.715  26.339  1.00  0.00    -0.312 OA
HETATM    5  C7  UNL     1      42.319  28.494  27.446  1.00  0.00     0.109 A
HETATM    6  C18 UNL     1      43.443  29.012  27.879  1.00  0.00     0.091 A
ENDROOT
BRANCH   5   7
HETATM    7  C8  UNL     1      40.886  28.431  27.736  1.00  0.00     0.075 A
HETATM    8  C9  UNL     1      39.821  29.042  27.157  1.00  0.00     0.037 A
HETATM    9  C10 UNL     1      38.540  28.632  27.507  1.00  0.00     0.034 A
HETATM   10  C11 UNL     1      37.400  29.161  26.941  1.00  0.00     0.081 A
HETATM   11  C16 UNL     1      38.355  27.601  28.456  1.00  0.00     0.117 A
HETATM   12  C12 UNL     1      36.115  28.684  27.305  1.00  0.00     0.076 A
HETATM   13  C13 UNL     1      35.935  27.706  28.209  1.00  0.00     0.095 A
HETATM   14  C15 UNL     1      37.148  27.165  28.805  1.00  0.00     0.102 A
HETATM   15 CL1  UNL     1      36.955  25.945  30.080  1.00  0.00    -0.078 Cl
HETATM   16  O6  UNL     1      39.403  27.051  28.994  1.00  0.00    -0.272 OA
HETATM   17  C17 UNL     1      40.569  27.425  28.672  1.00  0.00     0.301 A
HETATM   18  O7  UNL     1      41.567  26.862  29.247  1.00  0.00    -0.259 OA
BRANCH  10  19
HETATM   19  O4  UNL     1      37.510  30.187  25.984  1.00  0.00    -0.360 OA
ATOM     20  H4  UNL     1      37.232  30.027  25.090  1.00  0.00     0.217 HD
ENDBRANCH  10  19
BRANCH  13  21
HETATM   21  O5  UNL     1      34.858  27.128  28.646  1.00  0.00    -0.354 OA
HETATM   22  C14 UNL     1      33.602  26.953  28.944  1.00  0.00     0.210 C
ENDBRANCH  13  21
ENDBRANCH   5   7
BRANCH   6  23
HETATM   23  C19 UNL     1      43.723  30.004  28.934  1.00  0.00     0.297 C
HETATM   24  O8  UNL     1      44.287  29.833  30.012  1.00  0.00    -0.259 OA
BRANCH  23  25
HETATM   25  O9  UNL     1      43.327  31.310  28.653  1.00  0.00    -0.318 OA
BRANCH  25  26
HETATM   26  C20 UNL     1      43.737  32.271  27.817  1.00  0.00     0.174 C
HETATM   27  C21 UNL     1      44.097  33.501  28.710  1.00  0.00     0.034 C
ENDBRANCH  25  26
ENDBRANCH  23  25
ENDBRANCH   6  23
BRANCH   1  28
HETATM   28  C3  UNL     1      45.906  28.915  27.190  1.00  0.00     0.174 C
BRANCH  28  29
HETATM   29  N1  UNL     1      47.044  28.369  27.888  1.00  0.00    -0.244 N
ATOM     30  H1  UNL     1      47.995  28.736  27.854  1.00  0.00     0.196 HD
BRANCH  29  31
HETATM   31  O1  UNL     1      46.648  27.307  28.584  1.00  0.00    -0.279 OA
BRANCH  31  32
HETATM   32  C2  UNL     1      47.096  26.207  27.822  1.00  0.00     0.197 C
HETATM   33  C1  UNL     1      45.957  25.167  28.038  1.00  0.00     0.036 C
ENDBRANCH  31  32
ENDBRANCH  29  31
ENDBRANCH  28  29
BRANCH  28  34
HETATM   34  O2  UNL     1      46.326  29.995  26.478  1.00  0.00    -0.344 OA
ATOM     35  H2  UNL     1      46.188  30.770  27.009  1.00  0.00     0.219 HD
ENDBRANCH  28  34
ENDBRANCH   1  28
TORSDOF 11
ENDMDL