MODEL 4
REMARK VINA RESULT: -7.758589877      4.496      8.756
REMARK  6 active torsions:
REMARK  status: ('A' for Active; 'I' for Inactive)
REMARK    1  A    between atoms: O1_2  and  C2_3
REMARK    2  A    between atoms: C5_6  and  O2_7
REMARK    3  A    between atoms: C7_9  and  S1_10
REMARK    4  A    between atoms: S1_10  and  C8_11
REMARK    5  A    between atoms: N4_22  and  C14_24
REMARK    6  A    between atoms: C18_30  and  O3_31
ROOT
HETATM    1  C8  UNL     1      41.703  28.390  28.736  1.00  0.00     0.166 A
HETATM    2  N1  UNL     1      42.185  27.564  27.796  1.00  0.00    -0.320 N
ATOM      3  H1  UNL     1      41.884  26.589  27.760  1.00  0.00     0.169 HD
HETATM    4  C9  UNL     1      43.082  28.044  26.890  1.00  0.00     0.149 A
HETATM    5  C10 UNL     1      43.723  27.405  25.831  1.00  0.00     0.077 A
HETATM    6  C11 UNL     1      44.533  28.322  25.214  1.00  0.00     0.026 A
HETATM    7  C12 UNL     1      45.425  28.128  24.032  1.00  0.00     0.070 C
HETATM    8  N2  UNL     1      44.365  29.459  25.894  1.00  0.00    -0.282 N
ATOM      9  H2  UNL     1      44.840  30.334  25.670  1.00  0.00     0.188 HD
HETATM   10  N3  UNL     1      43.511  29.315  26.889  1.00  0.00    -0.070 N
HETATM   11  C13 UNL     1      43.030  30.170  27.839  1.00  0.00     0.703 A
HETATM   12  N4  UNL     1      43.374  31.354  27.905  1.00  0.00    -0.216 N
ATOM     13  H4  UNL     1      42.886  31.791  28.687  1.00  0.00     0.178 HD
HETATM   14  N5  UNL     1      42.126  29.648  28.737  1.00  0.00    -0.168 N
ATOM     15  H5  UNL     1      41.755  30.271  29.453  1.00  0.00     0.186 HD
ENDROOT
BRANCH   1  16
HETATM   16  S1  UNL     1      40.512  27.793  29.959  1.00  0.00    -0.048 SA
BRANCH  16  17
HETATM   17  C7  UNL     1      39.313  26.718  29.199  1.00  0.00     0.077 A
HETATM   18  C5  UNL     1      39.467  25.351  29.366  1.00  0.00     0.097 A
HETATM   19  C3  UNL     1      38.532  24.537  28.771  1.00  0.00     0.008 A
HETATM   20  C2  UNL     1      37.477  25.049  28.036  1.00  0.00     0.101 A
HETATM   21  C4  UNL     1      38.667  23.051  28.931  1.00  0.00     0.054 C
HETATM   22  C20 UNL     1      37.356  26.428  27.890  1.00  0.00     0.102 A
HETATM   23  C18 UNL     1      38.278  27.272  28.474  1.00  0.00     0.112 A
HETATM   24 CL1  UNL     1      36.019  27.098  26.956  1.00  0.00    -0.078 Cl
BRANCH  18  25
HETATM   25  O2  UNL     1      40.541  24.833  30.115  1.00  0.00    -0.354 OA
HETATM   26  C6  UNL     1      41.695  24.373  29.446  1.00  0.00     0.210 C
ENDBRANCH  18  25
BRANCH  20  27
HETATM   27  O1  UNL     1      36.527  24.223  27.432  1.00  0.00    -0.353 OA
HETATM   28  C1  UNL     1      35.297  23.892  28.061  1.00  0.00     0.210 C
ENDBRANCH  20  27
BRANCH  23  29
HETATM   29  O3  UNL     1      38.134  28.652  28.314  1.00  0.00    -0.353 OA
HETATM   30  C19 UNL     1      38.609  29.171  27.063  1.00  0.00     0.210 C
ENDBRANCH  23  29
ENDBRANCH  16  17
ENDBRANCH   1  16
BRANCH  12  31
HETATM   31  C14 UNL     1      44.182  32.303  27.304  1.00  0.00     0.036 C
HETATM   32  C15 UNL     1      43.780  32.632  25.859  1.00  0.00     0.038 C
HETATM   33  C16 UNL     1      45.655  32.020  27.308  1.00  0.00     0.038 C
HETATM   34  C17 UNL     1      44.026  33.664  28.052  1.00  0.00     0.038 C
ENDBRANCH  12  31
TORSDOF 6
ENDMDL