MODEL 2
REMARK VINA RESULT: -7.769756423      1.121      1.369
REMARK  9 active torsions:
REMARK  status: ('A' for Active; 'I' for Inactive)
REMARK    1  A    between atoms: O1_2  and  C2_3
REMARK    2  A    between atoms: C2_3  and  C3_4
REMARK    3  A    between atoms: C3_4  and  O2_5
REMARK    4  A    between atoms: O2_5  and  C4_6
REMARK    5  A    between atoms: C6_8  and  O3_9
REMARK    6  A    between atoms: C11_17  and  O5_18
REMARK    7  A    between atoms: O5_18  and  C12_19
REMARK    8  A    between atoms: C14_22  and  O7_23
REMARK    9  A    between atoms: C19_29  and  O9_30
ROOT
HETATM    1  C4  UNL     1      31.786  23.748  30.430  1.00  0.00     0.105 A
HETATM    2  C5  UNL     1      31.017  24.796  29.983  1.00  0.00     0.079 A
HETATM    3  C6  UNL     1      31.584  25.924  29.400  1.00  0.00     0.103 A
HETATM    4  C7  UNL     1      32.953  26.022  29.253  1.00  0.00     0.126 A
HETATM    5  O4  UNL     1      33.458  27.098  28.699  1.00  0.00    -0.306 OA
HETATM    6  C8  UNL     1      34.751  27.239  28.537  1.00  0.00     0.094 A
HETATM    7  C9  UNL     1      35.274  28.385  27.945  1.00  0.00     0.060 A
HETATM    8  C10 UNL     1      36.627  28.515  27.783  1.00  0.00     0.050 A
HETATM    9 BR1  UNL     1      37.416  30.062  26.978  1.00  0.00    -0.048 Br
HETATM   10  C11 UNL     1      37.458  27.502  28.211  1.00  0.00     0.131 A
HETATM   11  C14 UNL     1      36.989  26.333  28.810  1.00  0.00     0.120 A
HETATM   12  C16 UNL     1      35.611  26.220  28.965  1.00  0.00     0.085 A
HETATM   13  C17 UNL     1      35.123  25.080  29.548  1.00  0.00     0.203 A
HETATM   14  O8  UNL     1      35.796  24.120  29.960  1.00  0.00    -0.286 OA
HETATM   15  C18 UNL     1      33.735  24.977  29.699  1.00  0.00     0.088 A
HETATM   16  C19 UNL     1      33.179  23.880  30.266  1.00  0.00     0.116 A
ENDROOT
BRANCH   1  17
HETATM   17  O2  UNL     1      31.330  22.605  31.008  1.00  0.00    -0.346 OA
BRANCH  17  18
HETATM   18  C3  UNL     1      30.065  22.102  31.226  1.00  0.00     0.201 C
BRANCH  18  19
HETATM   19  C2  UNL     1      29.951  21.321  32.506  1.00  0.00     0.193 C
BRANCH  19  20
HETATM   20  O1  UNL     1      28.717  21.461  33.092  1.00  0.00    -0.394 OA
HETATM   21  C1  UNL     1      27.804  20.519  32.695  1.00  0.00     0.201 C
ENDBRANCH  19  20
ENDBRANCH  18  19
ENDBRANCH  17  18
ENDBRANCH   1  17
BRANCH  16  22
HETATM   22  O9  UNL     1      34.028  22.859  30.695  1.00  0.00    -0.357 OA
ATOM     23  H9  UNL     1      34.809  22.653  30.195  1.00  0.00     0.217 HD
ENDBRANCH  16  22
BRANCH   3  24
HETATM   24  O3  UNL     1      30.711  26.914  28.987  1.00  0.00    -0.358 OA
ATOM     25  H3  UNL     1      31.000  27.812  29.101  1.00  0.00     0.217 HD
ENDBRANCH   3  24
BRANCH  11  26
HETATM   26  O7  UNL     1      37.883  25.366  29.211  1.00  0.00    -0.352 OA
HETATM   27  C15 UNL     1      38.773  25.451  30.298  1.00  0.00     0.210 C
ENDBRANCH  11  26
BRANCH  10  28
HETATM   28  O5  UNL     1      38.817  27.650  28.038  1.00  0.00    -0.275 OA
BRANCH  28  29
HETATM   29  C12 UNL     1      39.426  26.908  27.010  1.00  0.00     0.260 C
HETATM   30  C13 UNL     1      38.797  26.795  25.658  1.00  0.00     0.126 C
HETATM   31  O6  UNL     1      40.528  26.326  27.238  1.00  0.00    -0.265 OA
ENDBRANCH  28  29
ENDBRANCH  10  28
TORSDOF 9
ENDMDL