MODEL 3
REMARK VINA RESULT: -7.576339978      1.673      2.291
REMARK  9 active torsions:
REMARK  status: ('A' for Active; 'I' for Inactive)
REMARK    1  A    between atoms: O1_2  and  C2_3
REMARK    2  A    between atoms: C6_8  and  O2_9
REMARK    3  A    between atoms: C8_11  and  O3_12
REMARK    4  A    between atoms: C13_18  and  O5_19
REMARK    5  A    between atoms: C14_21  and  C15_22
REMARK    6  A    between atoms: C16_24  and  C17_25
REMARK    7  A    between atoms: C17_25  and  O7_26
REMARK    8  A    between atoms: O7_26  and  C18_27
REMARK    9  A    between atoms: C23_33  and  O9_34
ROOT
HETATM    1  C2  UNL     1      43.165  27.804  26.812  1.00  0.00     0.143 A
HETATM    2  C3  UNL     1      42.422  26.922  26.079  1.00  0.00     0.162 A
HETATM    3  F1  UNL     1      43.015  26.308  25.014  1.00  0.00    -0.202 F
HETATM    4  C4  UNL     1      41.097  26.668  26.422  1.00  0.00     0.022 A
HETATM    5  C5  UNL     1      40.453  27.265  27.483  1.00  0.00    -0.001 A
HETATM    6  C6  UNL     1      41.252  28.166  28.219  1.00  0.00     0.112 A
HETATM    7  C8  UNL     1      42.553  28.424  27.894  1.00  0.00     0.138 A
HETATM    8  C10 UNL     1      39.130  26.829  27.620  1.00  0.00     0.066 A
HETATM    9  C11 UNL     1      37.858  27.489  27.405  1.00  0.00    -0.001 A
HETATM   10  C12 UNL     1      36.781  26.527  27.412  1.00  0.00     0.070 A
HETATM   11  O4  UNL     1      35.714  27.187  27.222  1.00  0.00    -0.291 OA
HETATM   12  C13 UNL     1      35.912  28.454  27.088  1.00  0.00     0.197 A
HETATM   13  C14 UNL     1      37.296  28.693  27.197  1.00  0.00     0.069 A
HETATM   14  C16 UNL     1      36.989  25.078  27.604  1.00  0.00     0.072 C
HETATM   15  C20 UNL     1      38.318  24.554  27.123  1.00  0.00     0.002 C
HETATM   16  C21 UNL     1      39.137  23.939  28.234  1.00  0.00     0.011 C
HETATM   17  C22 UNL     1      39.011  25.739  26.523  1.00  0.00     0.037 A
HETATM   18  C23 UNL     1      40.203  25.657  25.762  1.00  0.00     0.160 A
ENDROOT
BRANCH  14  19
HETATM   19  C17 UNL     1      36.585  24.593  28.967  1.00  0.00     0.190 C
BRANCH  19  20
HETATM   20  O7  UNL     1      35.622  25.498  29.472  1.00  0.00    -0.321 OA
BRANCH  20  21
HETATM   21  C18 UNL     1      34.363  25.142  29.891  1.00  0.00     0.254 C
HETATM   22  C19 UNL     1      33.225  26.081  29.847  1.00  0.00     0.126 C
HETATM   23  O8  UNL     1      34.175  23.984  30.324  1.00  0.00    -0.266 OA
ENDBRANCH  20  21
ENDBRANCH  19  20
ENDBRANCH  14  19
BRANCH  13  24
HETATM   24  C15 UNL     1      37.836  30.028  27.047  1.00  0.00     0.275 C
HETATM   25  O6  UNL     1      37.773  30.819  26.114  1.00  0.00    -0.301 OA
ENDBRANCH  13  24
BRANCH  12  26
HETATM   26  O5  UNL     1      34.908  29.392  26.872  1.00  0.00    -0.340 OA
ATOM     27  H5  UNL     1      35.024  30.208  26.399  1.00  0.00     0.220 HD
ENDBRANCH  12  26
BRANCH  18  28
HETATM   28  O9  UNL     1      40.900  24.442  25.789  1.00  0.00    -0.390 OA
ATOM     29  H9  UNL     1      40.273  23.772  25.546  1.00  0.00     0.210 HD
ENDBRANCH  18  28
BRANCH   6  30
HETATM   30  O2  UNL     1      40.751  28.843  29.329  1.00  0.00    -0.352 OA
HETATM   31  C7  UNL     1      40.365  28.211  30.518  1.00  0.00     0.210 C
ENDBRANCH   6  30
BRANCH   7  32
HETATM   32  O3  UNL     1      43.302  29.303  28.623  1.00  0.00    -0.351 OA
HETATM   33  C9  UNL     1      43.482  30.666  28.303  1.00  0.00     0.210 C
ENDBRANCH   7  32
BRANCH   1  34
HETATM   34  O1  UNL     1      44.486  28.090  26.510  1.00  0.00    -0.350 OA
HETATM   35  C1  UNL     1      45.466  27.189  26.991  1.00  0.00     0.210 C
ENDBRANCH   1  34
TORSDOF 9
ENDMDL