MODEL 2
REMARK VINA RESULT: -5.945486658      2.528      4.649
REMARK  7 active torsions:
REMARK  status: ('A' for Active; 'I' for Inactive)
REMARK    1  A    between atoms: C2_2  and  C3_3
REMARK    2  A    between atoms: C4_4  and  C5_5
REMARK    3  A    between atoms: C6_6  and  O1_7
REMARK    4  A    between atoms: N1_12  and  C9_13
REMARK    5  A    between atoms: C9_13  and  C10_14
REMARK    6  A    between atoms: C12_18  and  C13_19
REMARK    7  A    between atoms: C13_19  and  O3_20
ROOT
HETATM    1  C5  UNL     1      17.464   4.978  12.395  1.00  0.00     0.102 C
HETATM    2  C6  UNL     1      17.522   3.747  11.578  1.00  0.00     0.143 C
HETATM    3  C7  UNL     1      17.734   2.476  12.329  1.00  0.00     0.136 C
HETATM    4  C8  UNL     1      16.670   2.156  13.292  1.00  0.00     0.222 C
HETATM    5  O2  UNL     1      16.090   1.040  13.216  1.00  0.00    -0.273 OA
HETATM    6  N1  UNL     1      16.150   2.950  14.367  1.00  0.00    -0.346 N
HETATM    7  C11 UNL     1      16.312   4.377  14.543  1.00  0.00     0.134 C
HETATM    8  C12 UNL     1      17.583   4.801  13.863  1.00  0.00     0.045 C
ENDROOT
BRANCH   1   9
HETATM    9  C4  UNL     1      16.191   5.700  12.144  1.00  0.00    -0.099 C
HETATM   10  C3  UNL     1      15.167   6.297  11.923  1.00  0.00    -0.106 C
BRANCH  10  11
HETATM   11  C2  UNL     1      13.919   7.020  11.631  1.00  0.00     0.089 C
HETATM   12  C1  UNL     1      13.905   7.355  10.179  1.00  0.00     0.018 C
ENDBRANCH  10  11
ENDBRANCH   1   9
BRANCH   2  13
HETATM   13  O1  UNL     1      16.314   3.599  10.856  1.00  0.00    -0.394 OA
ATOM     14  H1  UNL     1      16.416   3.965   9.985  1.00  0.00     0.210 HD
ENDBRANCH   2  13
BRANCH   8  15
HETATM   15  C13 UNL     1      18.188   6.035  14.546  1.00  0.00     0.171 C
BRANCH  15  16
HETATM   16  O3  UNL     1      17.356   6.514  15.552  1.00  0.00    -0.400 OA
ATOM     17  H3  UNL     1      17.611   7.388  15.823  1.00  0.00     0.209 HD
ENDBRANCH  15  16
ENDBRANCH   8  15
BRANCH   6  18
HETATM   18  C9  UNL     1      15.377   2.250  15.390  1.00  0.00     0.196 C
BRANCH  18  19
HETATM   19  C10 UNL     1      16.264   1.904  16.575  1.00  0.00     0.370 C
HETATM   20  F1  UNL     1      17.101   0.852  16.299  1.00  0.00    -0.213 F
HETATM   21  F2  UNL     1      15.446   1.533  17.616  1.00  0.00    -0.213 F
ENDBRANCH  18  19
ENDBRANCH   6  18
TORSDOF 7
ENDMDL