MODEL 4
REMARK VINA RESULT: -5.546552896      3.541      6.112
REMARK  3 active torsions:
REMARK  status: ('A' for Active; 'I' for Inactive)
REMARK    1  A    between atoms: C3_8  and  C4_9
REMARK    2  A    between atoms: C4_9  and  N2_10
REMARK    3  A    between atoms: N4_20  and  C11_21
ROOT
HETATM    1  F1  UNL     1      15.836   1.096  12.006  1.00  0.00    -0.149 F
HETATM    2  C1  UNL     1      16.630   1.064  13.137  1.00  0.00     0.615 C
HETATM    3  F2  UNL     1      16.541  -0.131  13.716  1.00  0.00    -0.149 F
HETATM    4  N1  UNL     1      18.013   1.250  12.697  1.00  0.00     0.021 N
ATOM      5  H11 UNL     1      18.281   0.674  11.899  1.00  0.00     0.286 HD
ATOM      6  H12 UNL     1      18.712   0.878  13.339  1.00  0.00     0.286 HD
HETATM    7  C2  UNL     1      18.115   2.663  12.466  1.00  0.00     0.279 C
HETATM    8  C3  UNL     1      16.808   3.268  13.017  1.00  0.00     0.287 C
HETATM    9  N4  UNL     1      16.412   2.230  13.893  1.00  0.00     0.204 N
ENDROOT
BRANCH   8  10
HETATM   10  C4  UNL     1      17.098   4.592  13.547  1.00  0.00     0.310 C
BRANCH  10  11
HETATM   11  N2  UNL     1      18.149   5.277  12.804  1.00  0.00     0.091 N
HETATM   12  C5  UNL     1      17.655   6.493  12.189  1.00  0.00     0.273 C
HETATM   13  C6  UNL     1      18.605   7.612  12.587  1.00  0.00     0.045 C
HETATM   14  C7  UNL     1      19.174   7.073  13.860  1.00  0.00     0.035 C
HETATM   15  C8  UNL     1      20.356   7.768  14.456  1.00  0.00     0.245 C
HETATM   16  C9  UNL     1      18.478   7.470  15.126  1.00  0.00     0.245 C
HETATM   17  C10 UNL     1      19.304   5.610  13.565  1.00  0.00     0.285 C
HETATM   18  N3  UNL     1      19.412   8.606  15.198  1.00  0.00    -0.073 N
ATOM     19  H32 UNL     1      19.666   9.030  16.091  1.00  0.00     0.277 HD
ATOM     20  H31 UNL     1      19.150   9.534  14.866  1.00  0.00     0.277 HD
ENDBRANCH  10  11
ENDBRANCH   8  10
BRANCH   9  21
HETATM   21  C11 UNL     1      16.871   2.298  15.220  1.00  0.00     0.234 A
HETATM   22  C12 UNL     1      16.852   1.295  16.254  1.00  0.00     0.038 A
HETATM   23  C13 UNL     1      15.714   2.301  16.257  1.00  0.00     0.038 A
ENDBRANCH   9  21
TORSDOF 3
ENDMDL