MODEL 4
REMARK VINA RESULT: -6.234988812      0.977      1.021
REMARK  4 active torsions:
REMARK  status: ('A' for Active; 'I' for Inactive)
REMARK       I    between atoms: N1_2  and  C3_4
REMARK    1  A    between atoms: C3_4  and  C4_6
REMARK    2  A    between atoms: C4_6  and  C5_7
REMARK    3  A    between atoms: C5_7  and  O2_8
REMARK    4  A    between atoms: C5_7  and  C6_10
ROOT
HETATM    1  C6  UNL     1      17.769   3.306  13.428  1.00  0.00     0.092 C
HETATM    2  C7  UNL     1      16.983   3.727  12.194  1.00  0.00     0.011 C
HETATM    3  C8  UNL     1      17.347   3.035  10.937  1.00  0.00     0.033 C
HETATM    4  C9  UNL     1      17.743   4.088   9.911  1.00  0.00     0.232 C
HETATM    5  N2  UNL     1      18.960   4.700  10.439  1.00  0.00    -0.075 N
ATOM      6  H21 UNL     1      19.446   5.244   9.726  1.00  0.00     0.277 HD
ATOM      7  H22 UNL     1      19.682   4.002  10.621  1.00  0.00     0.277 HD
HETATM    8  C10 UNL     1      18.684   5.482  11.598  1.00  0.00     0.243 C
HETATM    9  C11 UNL     1      17.476   5.104  12.361  1.00  0.00     0.089 C
HETATM   10  C12 UNL     1      17.821   4.765  13.814  1.00  0.00     0.255 C
HETATM   11  F1  UNL     1      16.851   5.104  14.721  1.00  0.00    -0.205 F
HETATM   12  F2  UNL     1      19.045   5.234  14.211  1.00  0.00    -0.205 F
ENDROOT
BRANCH   1  13
HETATM   13  C5  UNL     1      16.898   2.438  14.283  1.00  0.00     0.137 C
BRANCH  13  14
HETATM   14  C4  UNL     1      17.256   2.457  15.733  1.00  0.00     0.135 C
BRANCH  14  15
HETATM   15  C3  UNL     1      16.833   1.153  16.322  1.00  0.00     0.221 C
HETATM   16  N1  UNL     1      15.551   1.050  16.907  1.00  0.00    -0.361 N
HETATM   17  C1  UNL     1      15.135  -0.212  17.480  1.00  0.00     0.152 C
HETATM   18  C2  UNL     1      14.652   2.191  16.941  1.00  0.00     0.152 C
HETATM   19  O1  UNL     1      17.573   0.140  16.317  1.00  0.00    -0.273 OA
ENDBRANCH  14  15
ENDBRANCH  13  14
BRANCH  13  20
HETATM   20  O2  UNL     1      17.022   1.126  13.826  1.00  0.00    -0.395 OA
ATOM     21  H2  UNL     1      17.361   1.156  12.938  1.00  0.00     0.210 HD
ENDBRANCH  13  20
ENDBRANCH   1  13
TORSDOF 4
ENDMDL