MODEL 3
REMARK VINA RESULT: -5.927884213      1.725      2.250
REMARK  3 active torsions:
REMARK  status: ('A' for Active; 'I' for Inactive)
REMARK    1  A    between atoms: C2_2  and  C3_3
REMARK    2  A    between atoms: C3_3  and  N1_4
REMARK    3  A    between atoms: C6_7  and  C7_8
ROOT
HETATM    1  N1  UNL     1      17.728   4.390  14.123  1.00  0.00    -0.378 N
HETATM    2  C4  UNL     1      17.975   3.439  15.155  1.00  0.00     0.148 C
HETATM    3  C5  UNL     1      17.362   2.147  14.729  1.00  0.00     0.107 C
HETATM    4  C6  UNL     1      17.199   2.207  13.207  1.00  0.00     0.076 C
HETATM    5  C8  UNL     1      16.078   3.228  12.944  1.00  0.00     0.045 C
HETATM    6  C9  UNL     1      16.394   4.522  13.720  1.00  0.00     0.157 C
HETATM    7  C10 UNL     1      15.390   4.809  14.768  1.00  0.00     0.265 C
HETATM    8  F1  UNL     1      15.981   5.606  15.756  1.00  0.00    -0.204 F
HETATM    9  F2  UNL     1      14.384   5.635  14.232  1.00  0.00    -0.204 F
HETATM   10  C11 UNL     1      14.681   3.708  15.427  1.00  0.00     0.100 C
HETATM   11  C12 UNL     1      15.457   2.657  16.139  1.00  0.00     0.123 C
HETATM   12  N4  UNL     1      16.149   1.756  15.281  1.00  0.00    -0.410 N
HETATM   13  C13 UNL     1      16.074   0.374  15.704  1.00  0.00     0.143 C
ENDROOT
BRANCH   4  14
HETATM   14  C7  UNL     1      16.899   0.927  12.607  1.00  0.00     0.093 C
HETATM   15  N2  UNL     1      17.626  -0.098  12.818  1.00  0.00    -0.391 N
ATOM     16  H22 UNL     1      18.442   0.005  13.422  1.00  0.00     0.157 HD
ATOM     17  H21 UNL     1      17.414  -1.001  12.395  1.00  0.00     0.157 HD
HETATM   18  N3  UNL     1      15.769   0.784  11.772  1.00  0.00    -0.088 NA
ENDBRANCH   4  14
BRANCH   1  19
HETATM   19  C3  UNL     1      18.732   5.289  13.887  1.00  0.00     0.085 C
BRANCH  19  20
HETATM   20  C2  UNL     1      18.443   6.719  13.915  1.00  0.00     0.007 C
HETATM   21  C1  UNL     1      18.752   7.431  14.972  1.00  0.00     0.012 C
ENDBRANCH  19  20
ENDBRANCH   1  19
TORSDOF 3
ENDMDL