MODEL 1
REMARK VINA RESULT: -6.843913888      0.000      0.000
REMARK  6 active torsions:
REMARK  status: ('A' for Active; 'I' for Inactive)
REMARK       I    between atoms: C2_2  and  N1_4
REMARK    1  A    between atoms: N1_4  and  C3_5
REMARK    2  A    between atoms: N1_4  and  C4_7
REMARK    3  A    between atoms: C4_7  and  C12_22
REMARK    4  A    between atoms: C6_9  and  O3_10
REMARK    5  A    between atoms: C7_12  and  C8_13
REMARK    6  A    between atoms: C9_16  and  C10_20
ROOT
HETATM    1  C4  UNL     1      17.126   3.137  13.844  1.00  0.00     0.214 C
HETATM    2  C5  UNL     1      17.975   2.831  15.015  1.00  0.00     0.095 C
HETATM    3  C6  UNL     1      17.273   2.156  16.174  1.00  0.00     0.133 C
HETATM    4  C7  UNL     1      15.798   2.112  16.096  1.00  0.00     0.110 C
HETATM    5  C9  UNL     1      15.216   2.370  14.729  1.00  0.00     0.205 C
HETATM    6  N2  UNL     1      16.144   2.096  13.650  1.00  0.00    -0.042 N
ATOM      7  H21 UNL     1      16.516   1.146  13.627  1.00  0.00     0.280 HD
ATOM      8  H22 UNL     1      15.730   2.056  12.719  1.00  0.00     0.280 HD
ENDROOT
BRANCH   1   9
HETATM    9  N1  UNL     1      17.933   3.363  12.668  1.00  0.00    -0.260 N
HETATM   10  C2  UNL     1      17.370   3.393  11.363  1.00  0.00     0.224 C
HETATM   11  C1  UNL     1      18.112   3.624  10.111  1.00  0.00     0.117 C
HETATM   12  O1  UNL     1      16.122   3.204  11.268  1.00  0.00    -0.273 OA
BRANCH   9  13
HETATM   13  C3  UNL     1      19.304   3.597  12.818  1.00  0.00     0.360 C
HETATM   14  O2  UNL     1      20.211   2.729  12.607  1.00  0.00    -0.283 OA
ENDBRANCH   9  13
ENDBRANCH   1   9
BRANCH   1  15
HETATM   15  C12 UNL     1      16.282   4.381  13.998  1.00  0.00     0.049 A
HETATM   16  C10 UNL     1      17.141   5.261  14.863  1.00  0.00     0.026 A
HETATM   17  C11 UNL     1      16.753   5.673  13.514  1.00  0.00     0.016 A
ENDBRANCH   1  15
BRANCH   3  18
HETATM   18  O3  UNL     1      17.742   0.858  16.412  1.00  0.00    -0.395 OA
ATOM     19  H3  UNL     1      17.095   0.303  16.831  1.00  0.00     0.210 HD
ENDBRANCH   3  18
BRANCH   4  20
HETATM   20  C8  UNL     1      15.266   0.807  16.683  1.00  0.00     0.361 C
HETATM   21  F1  UNL     1      13.977   0.539  16.351  1.00  0.00    -0.214 F
HETATM   22  F2  UNL     1      15.462   0.877  18.063  1.00  0.00    -0.214 F
ENDBRANCH   4  20
TORSDOF 6
ENDMDL