MODEL 1
REMARK VINA RESULT: -5.491228550      0.000      0.000
REMARK  4 active torsions:
REMARK  status: ('A' for Active; 'I' for Inactive)
REMARK       I    between atoms: N1_2  and  C2_4
REMARK    1  A    between atoms: C2_4  and  C3_6
REMARK    2  A    between atoms: N2_8  and  C5_9
REMARK    3  A    between atoms: C5_9  and  N3_10
REMARK    4  A    between atoms: C5_9  and  C7_14
ROOT
HETATM    1  N3  UNL     1      17.510   3.018  12.690  1.00  0.00    -0.294 N
ATOM      2  H3  UNL     1      18.436   2.680  12.949  1.00  0.00     0.174 HD
HETATM    3  C6  UNL     1      16.918   2.577  11.501  1.00  0.00     0.179 C
HETATM    4  N4  UNL     1      16.440   2.194  10.494  1.00  0.00    -0.172 NA
ENDROOT
BRANCH   1   5
HETATM    5  C5  UNL     1      16.833   3.930  13.535  1.00  0.00     0.385 C
BRANCH   5   6
HETATM    6  N2  UNL     1      16.537   3.458  14.869  1.00  0.00     0.118 N
HETATM    7  C4  UNL     1      17.213   2.300  15.344  1.00  0.00     0.291 C
HETATM    8  C3  UNL     1      15.924   1.540  15.228  1.00  0.00     0.134 C
HETATM    9  C8  UNL     1      15.207   2.840  14.931  1.00  0.00     0.291 C
BRANCH   8  10
HETATM   10  C2  UNL     1      15.371   0.957  16.468  1.00  0.00     0.224 C
HETATM   11  N1  UNL     1      15.437   1.744  17.647  1.00  0.00    -0.365 N
HETATM   12  C1  UNL     1      14.915   1.232  18.894  1.00  0.00     0.149 C
ATOM     13  H1  UNL     1      15.855   2.674  17.615  1.00  0.00     0.161 HD
HETATM   14  O1  UNL     1      14.868  -0.176  16.484  1.00  0.00    -0.273 OA
ENDBRANCH   8  10
ENDBRANCH   5   6
BRANCH   5  15
HETATM   15  C7  UNL     1      17.572   5.248  13.708  1.00  0.00     0.237 C
HETATM   16 CL1  UNL     1      16.963   5.923  15.264  1.00  0.00    -0.079 Cl
HETATM   17 CL2  UNL     1      17.278   6.389  12.412  1.00  0.00    -0.079 Cl
HETATM   18 CL3  UNL     1      19.296   4.830  13.897  1.00  0.00    -0.079 Cl
ENDBRANCH   5  15
ENDBRANCH   1   5
TORSDOF 4
ENDMDL