MODEL 2
REMARK VINA RESULT: -6.442950448      1.995      3.098
REMARK  3 active torsions:
REMARK  status: ('A' for Active; 'I' for Inactive)
REMARK    1  A    between atoms: C5_8  and  C6_9
REMARK    2  A    between atoms: N2_11  and  N3_12
REMARK       I    between atoms: N3_12  and  C7_14
REMARK    3  A    between atoms: C7_14  and  C8_16
ROOT
HETATM    1  C1  UNL     1      16.818   4.986  14.753  1.00  0.00     0.036 C
HETATM    2  C2  UNL     1      17.641   3.712  14.933  1.00  0.00     0.124 C
HETATM    3  C3  UNL     1      18.975   3.931  14.354  1.00  0.00     0.258 C
HETATM    4  N1  UNL     1      19.237   3.315  13.090  1.00  0.00    -0.071 N
ATOM      5  H11 UNL     1      19.937   2.579  13.185  1.00  0.00     0.277 HD
ATOM      6  H12 UNL     1      19.743   3.954  12.476  1.00  0.00     0.277 HD
HETATM    7  C4  UNL     1      18.061   2.814  12.442  1.00  0.00     0.260 C
HETATM    8  C5  UNL     1      17.423   1.828  13.432  1.00  0.00     0.142 C
HETATM    9  N2  UNL     1      16.904   2.599  14.491  1.00  0.00    -0.312 N
ENDROOT
BRANCH   9  10
HETATM   10  N3  UNL     1      16.052   2.001  15.371  1.00  0.00    -0.269 N
HETATM   11  C7  UNL     1      16.395   1.092  16.386  1.00  0.00     0.269 C
HETATM   12  O1  UNL     1      17.600   0.746  16.560  1.00  0.00    -0.269 OA
ATOM     13  H3  UNL     1      15.064   2.238  15.284  1.00  0.00     0.190 HD
BRANCH  11  14
HETATM   14  C8  UNL     1      15.381   0.496  17.296  1.00  0.00     0.271 C
HETATM   15 CL2  UNL     1      15.366   1.418  18.829  1.00  0.00    -0.098 Cl
HETATM   16 CL3  UNL     1      13.760   0.541  16.602  1.00  0.00    -0.098 Cl
ENDBRANCH  11  14
ENDBRANCH   9  10
BRANCH   8  17
HETATM   17  C6  UNL     1      16.332   1.065  12.700  1.00  0.00     0.143 C
HETATM   18 CL1  UNL     1      16.866  -0.605  12.362  1.00  0.00    -0.128 Cl
ENDBRANCH   8  17
TORSDOF 3
ENDMDL