MODEL 2
REMARK VINA RESULT: -6.158905064      1.943      2.334
REMARK  4 active torsions:
REMARK  status: ('A' for Active; 'I' for Inactive)
REMARK    1  A    between atoms: C1_4  and  C2_5
REMARK    2  A    between atoms: C1_4  and  N2_8
REMARK    3  A    between atoms: C2_5  and  C3_6
REMARK    4  A    between atoms: N2_8  and  N3_10
ROOT
HETATM    1  N3  UNL     1      16.814   2.664  14.162  1.00  0.00    -0.192 NA
HETATM    2  C4  UNL     1      17.915   2.961  13.231  1.00  0.00     0.091 C
HETATM    3  C5  UNL     1      17.125   3.764  12.186  1.00  0.00     0.103 C
HETATM    4  C6  UNL     1      16.246   4.558  13.083  1.00  0.00     0.169 C
HETATM    5  O1  UNL     1      15.491   5.435  12.766  1.00  0.00    -0.294 OA
HETATM    6  C7  UNL     1      16.473   4.064  14.464  1.00  0.00     0.185 C
HETATM    7 CL2  UNL     1      15.162   4.261  15.558  1.00  0.00    -0.090 Cl
HETATM    8  C8  UNL     1      17.800   4.609  14.915  1.00  0.00     0.131 C
HETATM    9 CL3  UNL     1      17.788   6.360  14.637  1.00  0.00    -0.121 Cl
HETATM   10  C9  UNL     1      18.783   3.933  13.954  1.00  0.00     0.046 C
ENDROOT
BRANCH   1  11
HETATM   11  N2  UNL     1      17.203   1.945  15.253  1.00  0.00    -0.306 N
ATOM     12  H2  UNL     1      18.012   2.279  15.776  1.00  0.00     0.182 HD
BRANCH  11  13
HETATM   13  C1  UNL     1      16.563   0.759  15.715  1.00  0.00     0.086 C
HETATM   14  N1  UNL     1      17.238  -0.338  15.689  1.00  0.00    -0.388 N
ATOM     15  H12 UNL     1      16.780  -1.186  16.020  1.00  0.00     0.157 HD
ATOM     16  H11 UNL     1      18.198  -0.340  15.346  1.00  0.00     0.157 HD
BRANCH  13  17
HETATM   17  C2  UNL     1      15.159   0.763  16.217  1.00  0.00     0.092 C
BRANCH  17  18
HETATM   18  C3  UNL     1      15.092   0.295  17.660  1.00  0.00     0.122 C
HETATM   19 CL1  UNL     1      15.033   1.660  18.784  1.00  0.00    -0.130 Cl
ENDBRANCH  17  18
ENDBRANCH  13  17
ENDBRANCH  11  13
ENDBRANCH   1  11
TORSDOF 4
ENDMDL