MODEL 3
REMARK VINA RESULT: -6.768088726      1.969      2.438
REMARK  4 active torsions:
REMARK  status: ('A' for Active; 'I' for Inactive)
REMARK    1  A    between atoms: C4_7  and  C5_8
REMARK    2  A    between atoms: C5_8  and  C6_9
REMARK    3  A    between atoms: C6_9  and  C7_10
REMARK    4  A    between atoms: N5_19  and  O1_20
ROOT
HETATM    1  N1  UNL     1      16.179  -0.430  10.150  1.00  0.00    -0.190 NA
HETATM    2  C1  UNL     1      16.409   0.517  10.780  1.00  0.00     0.124 C
HETATM    3  C2  UNL     1      16.704   1.672  11.555  1.00  0.00     0.191 A
HETATM    4  C3  UNL     1      16.783   1.762  12.930  1.00  0.00     0.121 A
HETATM    5  N2  UNL     1      16.688   1.115  14.103  1.00  0.00    -0.340 N
ATOM      6  H2  UNL     1      16.469   0.123  14.197  1.00  0.00     0.167 HD
HETATM    7  C4  UNL     1      16.922   1.950  15.151  1.00  0.00     0.083 A
HETATM    8  N3  UNL     1      17.173   3.167  14.607  1.00  0.00    -0.329 N
ATOM      9  H3  UNL     1      17.388   4.015  15.132  1.00  0.00     0.168 HD
HETATM   10  C8  UNL     1      17.096   3.083  13.270  1.00  0.00     0.153 A
HETATM   11  N4  UNL     1      17.188   3.717  12.080  1.00  0.00    -0.256 N
ATOM     12  H4  UNL     1      17.407   4.708  11.974  1.00  0.00     0.191 HD
HETATM   13  N5  UNL     1      16.959   2.894  11.074  1.00  0.00    -0.149 N
ENDROOT
BRANCH  13  14
HETATM   14  O1  UNL     1      16.985   3.266   9.731  1.00  0.00    -0.267 OA
ATOM     15  H1  UNL     1      16.315   3.086   9.081  1.00  0.00     0.247 HD
ENDBRANCH  13  14
BRANCH   7  16
HETATM   16  C5  UNL     1      16.856   1.528  16.565  1.00  0.00     0.082 C
BRANCH  16  17
HETATM   17  C6  UNL     1      15.768   0.571  16.912  1.00  0.00     0.085 C
BRANCH  17  18
HETATM   18  C7  UNL     1      14.578   1.205  17.518  1.00  0.00     0.255 C
HETATM   19  F1  UNL     1      13.428   0.482  17.440  1.00  0.00    -0.207 F
HETATM   20 CL1  UNL     1      14.253   2.764  16.704  1.00  0.00    -0.066 Cl
HETATM   21 CL2  UNL     1      14.993   1.568  19.232  1.00  0.00    -0.066 Cl
ENDBRANCH  17  18
ENDBRANCH  16  17
ENDBRANCH   7  16
TORSDOF 4
ENDMDL