MODEL 2
REMARK VINA RESULT: -6.809473112      0.550      1.030
REMARK  4 active torsions:
REMARK  status: ('A' for Active; 'I' for Inactive)
REMARK    1  A    between atoms: C7_10  and  O1_11
REMARK    2  A    between atoms: N2_14  and  C9_15
REMARK    3  A    between atoms: C9_15  and  C10_16
REMARK    4  A    between atoms: C10_16  and  C11_17
ROOT
HETATM    1  C1  UNL     1      16.600  -0.273  11.939  1.00  0.00     0.014 C
HETATM    2  C2  UNL     1      16.712   0.765  12.532  1.00  0.00    -0.079 C
HETATM    3  C3  UNL     1      16.854   2.033  13.233  1.00  0.00     0.334 C
HETATM    4  C4  UNL     1      18.123   2.759  12.839  1.00  0.00     0.266 C
HETATM    5  N1  UNL     1      17.866   3.820  11.888  1.00  0.00    -0.065 N
ATOM      6  H11 UNL     1      16.908   4.169  11.885  1.00  0.00     0.277 HD
ATOM      7  H12 UNL     1      17.869   3.529  10.911  1.00  0.00     0.277 HD
HETATM    8  C5  UNL     1      18.867   4.802  12.231  1.00  0.00     0.236 C
HETATM    9  C6  UNL     1      18.719   4.880  13.743  1.00  0.00     0.069 C
HETATM   10  C7  UNL     1      18.585   3.445  14.116  1.00  0.00     0.117 C
HETATM   11  C8  UNL     1      17.402   3.194  15.061  1.00  0.00     0.314 C
HETATM   12  N2  UNL     1      17.015   1.890  14.647  1.00  0.00     0.109 N
ENDROOT
BRANCH  12  13
HETATM   13  C9  UNL     1      15.904   1.317  15.323  1.00  0.00     0.275 C
BRANCH  13  14
HETATM   14  C10 UNL     1      16.193   0.083  16.099  1.00  0.00     0.035 C
BRANCH  14  15
HETATM   15  C11 UNL     1      15.217  -0.127  17.229  1.00  0.00    -0.013 A
HETATM   16  C12 UNL     1      14.734   1.007  18.033  1.00  0.00     0.005 A
HETATM   17  C13 UNL     1      13.784   0.313  17.068  1.00  0.00     0.005 A
ENDBRANCH  14  15
ENDBRANCH  13  14
ENDBRANCH  12  13
BRANCH  10  18
HETATM   18  O1  UNL     1      19.724   2.874  14.633  1.00  0.00    -0.386 OA
ATOM     19  H1  UNL     1      20.168   3.448  15.247  1.00  0.00     0.210 HD
ENDBRANCH  10  18
TORSDOF 4
ENDMDL