MODEL 2
REMARK VINA RESULT: -5.958752560      1.355      2.128
REMARK  5 active torsions:
REMARK  status: ('A' for Active; 'I' for Inactive)
REMARK    1  A    between atoms: C2_5  and  C3_6
REMARK    2  A    between atoms: C3_6  and  N2_7
REMARK    3  A    between atoms: N3_14  and  C10_15
REMARK    4  A    between atoms: C10_15  and  C11_16
REMARK    5  A    between atoms: C11_16  and  O2_17
ROOT
HETATM    1  O1  UNL     1      17.557   0.456  16.437  1.00  0.00    -0.247 OA
HETATM    2  C1  UNL     1      16.856   1.401  15.936  1.00  0.00     0.318 C
HETATM    3  N1  UNL     1      17.348   2.065  14.805  1.00  0.00    -0.337 N
ATOM      4  H1  UNL     1      18.351   2.142  14.641  1.00  0.00     0.164 HD
HETATM    5  C2  UNL     1      16.375   2.654  13.851  1.00  0.00     0.116 C
HETATM    6  C8  UNL     1      15.009   2.529  14.395  1.00  0.00     0.047 C
HETATM    7  C9  UNL     1      14.926   2.873  15.884  1.00  0.00     0.129 C
HETATM    8  N3  UNL     1      15.596   1.744  16.546  1.00  0.00    -0.332 N
ENDROOT
BRANCH   5   9
HETATM    9  C3  UNL     1      16.898   3.991  13.524  1.00  0.00     0.297 C
BRANCH   9  10
HETATM   10  N2  UNL     1      17.120   4.286  12.162  1.00  0.00     0.090 N
HETATM   11  C4  UNL     1      16.937   3.043  11.359  1.00  0.00     0.272 C
HETATM   12  C5  UNL     1      17.549   3.351  10.027  1.00  0.00     0.032 C
HETATM   13  C6  UNL     1      18.795   4.108  10.449  1.00  0.00     0.032 C
HETATM   14  C7  UNL     1      18.373   4.797  11.740  1.00  0.00     0.272 C
ENDBRANCH   9  10
ENDBRANCH   5   9
BRANCH   8  15
HETATM   15  C10 UNL     1      15.062   1.040  17.667  1.00  0.00     0.153 C
BRANCH  15  16
HETATM   16  C11 UNL     1      14.284  -0.183  17.177  1.00  0.00     0.184 C
BRANCH  16  17
HETATM   17  O2  UNL     1      15.095  -1.290  17.178  1.00  0.00    -0.399 OA
ATOM     18  H2  UNL     1      15.270  -1.567  16.286  1.00  0.00     0.209 HD
ENDBRANCH  16  17
ENDBRANCH  15  16
ENDBRANCH   8  15
TORSDOF 5
ENDMDL