MODEL 4
REMARK VINA RESULT: -5.950476154      1.551      1.841
REMARK  3 active torsions:
REMARK  status: ('A' for Active; 'I' for Inactive)
REMARK       I    between atoms: C1_4  and  N3_6
REMARK    1  A    between atoms: C4_9  and  C5_10
REMARK    2  A    between atoms: C5_10  and  C6_11
REMARK    3  A    between atoms: C6_11  and  N4_12
ROOT
HETATM    1  N1  UNL     1      15.231   0.500  18.331  1.00  0.00    -0.374 N
ATOM      2  H11 UNL     1      15.855   1.178  18.768  1.00  0.00     0.158 HD
ATOM      3  H12 UNL     1      14.877  -0.273  18.894  1.00  0.00     0.158 HD
HETATM    4  C1  UNL     1      14.903   0.615  17.111  1.00  0.00     0.183 C
HETATM    5  N2  UNL     1      14.044  -0.318  16.510  1.00  0.00    -0.064 NA
HETATM    6  N3  UNL     1      15.395   1.685  16.332  1.00  0.00    -0.356 N
HETATM    7  C2  UNL     1      14.549   2.849  16.190  1.00  0.00     0.126 C
HETATM    8  C3  UNL     1      14.919   3.457  14.830  1.00  0.00     0.024 C
HETATM    9  C4  UNL     1      16.356   3.925  14.983  1.00  0.00    -0.010 C
HETATM   10  C10 UNL     1      17.284   2.753  15.142  1.00  0.00     0.024 C
HETATM   11  C11 UNL     1      16.689   1.540  15.740  1.00  0.00     0.126 C
ENDROOT
BRANCH   9  12
HETATM   12  C5  UNL     1      16.785   4.893  13.929  1.00  0.00     0.035 C
BRANCH  12  13
HETATM   13  C6  UNL     1      16.687   4.411  12.527  1.00  0.00     0.275 C
BRANCH  13  14
HETATM   14  N4  UNL     1      17.982   4.565  11.911  1.00  0.00     0.113 N
HETATM   15  C7  UNL     1      18.549   3.336  11.466  1.00  0.00     0.301 C
HETATM   16  C8  UNL     1      19.770   3.183  12.360  1.00  0.00     0.200 C
HETATM   17  O1  UNL     1      20.147   4.498  12.578  1.00  0.00    -0.361 OA
HETATM   18  C9  UNL     1      18.964   5.232  12.696  1.00  0.00     0.440 C
ENDBRANCH  13  14
ENDBRANCH  12  13
ENDBRANCH   9  12
TORSDOF 3
ENDMDL