MODEL 5
REMARK VINA RESULT: -5.162690069      2.243      3.958
REMARK  5 active torsions:
REMARK  status: ('A' for Active; 'I' for Inactive)
REMARK    1  A    between atoms: N2_5  and  C4_6
REMARK    2  A    between atoms: C4_6  and  C5_7
REMARK    3  A    between atoms: C5_7  and  C6_8
REMARK    4  A    between atoms: C6_8  and  C7_9
REMARK    5  A    between atoms: C8_10  and  C9_11
ROOT
HETATM    1  C6  UNL     1      16.381   1.004  11.624  1.00  0.00     0.095 C
ENDROOT
BRANCH   1   2
HETATM    2  C5  UNL     1      16.740   2.338  11.009  1.00  0.00     0.042 C
BRANCH   2   3
HETATM    3  C4  UNL     1      18.054   2.871  11.465  1.00  0.00     0.273 C
BRANCH   3   4
HETATM    4  N2  UNL     1      18.054   4.210  11.945  1.00  0.00     0.091 N
HETATM    5  C3  UNL     1      19.082   4.378  12.934  1.00  0.00     0.302 C
HETATM    6  C2  UNL     1      18.527   4.029  14.292  1.00  0.00     0.302 C
HETATM    7  N1  UNL     1      17.513   5.025  14.589  1.00  0.00     0.087 N
HETATM    8  C1  UNL     1      18.098   6.337  14.480  1.00  0.00     0.310 C
HETATM    9  C14 UNL     1      16.417   4.804  13.688  1.00  0.00     0.302 C
HETATM   10  C13 UNL     1      16.813   4.801  12.243  1.00  0.00     0.302 C
ENDBRANCH   3   4
ENDBRANCH   2   3
ENDBRANCH   1   2
BRANCH   1  11
HETATM   11  C7  UNL     1      16.333   1.084  13.085  1.00  0.00    -0.106 C
HETATM   12  C8  UNL     1      16.273   1.157  14.289  1.00  0.00    -0.100 C
BRANCH  12  13
HETATM   13  C9  UNL     1      16.178   1.260  15.757  1.00  0.00     0.092 C
HETATM   14  C10 UNL     1      15.992  -0.120  16.307  1.00  0.00     0.046 C
HETATM   15  C11 UNL     1      15.085   0.070  17.501  1.00  0.00     0.233 C
HETATM   16  N3  UNL     1      14.550   1.393  17.439  1.00  0.00    -0.074 N
HETATM   17  C12 UNL     1      14.904   1.964  16.172  1.00  0.00     0.249 C
ATOM     18  H32 UNL     1      13.546   1.419  17.614  1.00  0.00     0.277 HD
ATOM     19  H31 UNL     1      14.843   1.972  18.226  1.00  0.00     0.277 HD
ENDBRANCH  12  13
ENDBRANCH   1  11
TORSDOF 5
ENDMDL