MODEL 5
REMARK VINA RESULT: -5.353535512      2.849      6.423
REMARK  7 active torsions:
REMARK  status: ('A' for Active; 'I' for Inactive)
REMARK    1  A    between atoms: N1_2  and  C3_4
REMARK    2  A    between atoms: C3_4  and  O1_5
REMARK    3  A    between atoms: N2_9  and  C6_10
REMARK    4  A    between atoms: C6_10  and  C7_11
REMARK    5  A    between atoms: C8_12  and  C9_13
REMARK    6  A    between atoms: C9_13  and  C10_14
REMARK    7  A    between atoms: C10_14  and  O2_15
ROOT
HETATM    1  C3  UNL     1      16.480   0.909  15.994  1.00  0.00     0.261 C
HETATM    2  C4  UNL     1      16.277  -0.390  15.257  1.00  0.00     0.102 C
HETATM    3  C5  UNL     1      16.773  -0.427  13.881  1.00  0.00     0.278 C
HETATM    4  N2  UNL     1      16.979   0.772  13.170  1.00  0.00     0.099 N
HETATM    5  C11 UNL     1      16.990   1.983  13.909  1.00  0.00     0.278 C
HETATM    6  C12 UNL     1      16.029   2.007  15.065  1.00  0.00     0.102 C
ENDROOT
BRANCH   4   7
HETATM    7  C6  UNL     1      16.209   0.804  11.960  1.00  0.00     0.365 C
BRANCH   7   8
HETATM    8  C7  UNL     1      16.607   1.954  11.164  1.00  0.00    -0.076 C
HETATM    9  C8  UNL     1      16.941   2.927  10.518  1.00  0.00    -0.103 C
BRANCH   9  10
HETATM   10  C9  UNL     1      17.339   4.115   9.762  1.00  0.00     0.119 C
BRANCH  10  11
HETATM   11  C10 UNL     1      16.422   5.259  10.157  1.00  0.00     0.176 C
BRANCH  11  12
HETATM   12  O2  UNL     1      15.080   4.900  10.007  1.00  0.00    -0.400 OA
ATOM     13  H2  UNL     1      14.995   3.977   9.795  1.00  0.00     0.209 HD
ENDBRANCH  11  12
ENDBRANCH  10  11
ENDBRANCH   9  10
ENDBRANCH   7   8
ENDBRANCH   4   7
BRANCH   1  14
HETATM   14  N1  UNL     1      15.630   0.896  17.168  1.00  0.00     0.115 N
HETATM   15  C1  UNL     1      14.473   1.766  16.980  1.00  0.00     0.313 C
HETATM   16  C2  UNL     1      15.136  -0.444  17.366  1.00  0.00     0.313 C
ENDBRANCH   1  14
BRANCH   1  17
HETATM   17  O1  UNL     1      17.835   0.996  16.312  1.00  0.00    -0.363 OA
ATOM     18  H1  UNL     1      18.396   0.919  15.549  1.00  0.00     0.212 HD
ENDBRANCH   1  17
TORSDOF 7
ENDMDL