MODEL 1
REMARK VINA RESULT: -5.675476355      0.000      0.000
REMARK  4 active torsions:
REMARK  status: ('A' for Active; 'I' for Inactive)
REMARK    1  A    between atoms: C4_4  and  O1_5
REMARK    2  A    between atoms: N1_8  and  C6_9
REMARK    3  A    between atoms: C6_9  and  C7_10
REMARK    4  A    between atoms: C7_10  and  N2_11
ROOT
HETATM    1  C6  UNL     1      15.545   2.828  14.957  1.00  0.00     0.292 C
ENDROOT
BRANCH   1   2
HETATM    2  N1  UNL     1      15.014   1.588  15.464  1.00  0.00     0.096 N
HETATM    3  C2  UNL     1      14.017   1.748  16.479  1.00  0.00     0.221 C
HETATM    4  C1  UNL     1      14.399   2.556  17.667  1.00  0.00     0.043 C
HETATM    5  C3  UNL     1      13.797   0.311  16.905  1.00  0.00     0.069 C
HETATM    6  C4  UNL     1      15.227  -0.255  16.827  1.00  0.00     0.148 C
HETATM    7  C5  UNL     1      16.035   0.783  16.100  1.00  0.00     0.304 C
BRANCH   6   8
HETATM    8  O1  UNL     1      15.715  -0.476  18.119  1.00  0.00    -0.394 OA
ATOM      9  H1  UNL     1      16.147  -1.322  18.156  1.00  0.00     0.210 HD
ENDBRANCH   6   8
ENDBRANCH   1   2
BRANCH   1  10
HETATM   10  C7  UNL     1      16.954   2.690  14.502  1.00  0.00     0.155 C
BRANCH  10  11
HETATM   11  N2  UNL     1      17.182   2.675  13.097  1.00  0.00    -0.355 N
HETATM   12  C8  UNL     1      17.768   3.793  12.329  1.00  0.00     0.145 C
HETATM   13  C9  UNL     1      16.943   3.756  11.072  1.00  0.00     0.142 C
HETATM   14  N3  UNL     1      16.760   2.332  10.836  1.00  0.00    -0.366 N
HETATM   15  C10 UNL     1      16.899   1.696  12.113  1.00  0.00     0.169 C
ATOM     16  H3  UNL     1      16.572   1.879   9.942  1.00  0.00     0.161 HD
HETATM   17  S1  UNL     1      16.738   0.105  12.367  1.00  0.00    -0.041 SA
ENDBRANCH  10  11
ENDBRANCH   1  10
TORSDOF 4
ENDMDL