MODEL 1
REMARK VINA RESULT: -6.316412911      0.000      0.000
REMARK  3 active torsions:
REMARK  status: ('A' for Active; 'I' for Inactive)
REMARK    1  A    between atoms: C2_2  and  C4_4
REMARK    2  A    between atoms: N1_6  and  C6_7
REMARK    3  A    between atoms: C6_7  and  C7_8
ROOT
HETATM    1  C4  UNL     1      18.321   4.367  13.394  1.00  0.00     0.116 C
HETATM    2  C5  UNL     1      18.123   3.561  14.694  1.00  0.00     0.144 C
HETATM    3  N1  UNL     1      16.920   2.842  14.702  1.00  0.00    -0.390 N
HETATM    4  C11 UNL     1      16.340   2.517  13.440  1.00  0.00     0.139 C
HETATM    5  C12 UNL     1      17.276   1.957  12.428  1.00  0.00     0.150 C
HETATM    6  N2  UNL     1      18.667   2.207  12.710  1.00  0.00    -0.147 NA
HETATM    7  N3  UNL     1      19.012   3.518  12.477  1.00  0.00    -0.142 NA
ENDROOT
BRANCH   3   8
HETATM    8  C6  UNL     1      16.751   1.831  15.667  1.00  0.00     0.065 C
BRANCH   8   9
HETATM    9  C7  UNL     1      15.493   1.048  15.680  1.00  0.00     0.050 C
HETATM   10  C8  UNL     1      14.416   1.583  16.556  1.00  0.00     0.038 C
HETATM   11  C9  UNL     1      13.750   0.310  17.078  1.00  0.00     0.168 C
HETATM   12  O1  UNL     1      14.489  -0.749  16.609  1.00  0.00    -0.390 OA
HETATM   13  C10 UNL     1      15.789  -0.282  16.392  1.00  0.00     0.177 C
ENDBRANCH   8   9
ENDBRANCH   3   8
BRANCH   1  14
HETATM   14  C2  UNL     1      19.205   5.556  13.712  1.00  0.00    -0.000 C
HETATM   15  C1  UNL     1      18.463   6.593  14.554  1.00  0.00     0.011 C
HETATM   16  C3  UNL     1      19.614   6.238  12.425  1.00  0.00     0.011 C
ENDBRANCH   1  14
TORSDOF 3
ENDMDL