MODEL 2
REMARK VINA RESULT: -6.139108925      1.648      2.019
REMARK  4 active torsions:
REMARK  status: ('A' for Active; 'I' for Inactive)
REMARK    1  A    between atoms: C2_5  and  C3_6
REMARK    2  A    between atoms: C3_6  and  C4_7
REMARK    3  A    between atoms: C4_7  and  O2_8
REMARK    4  A    between atoms: C7_12  and  N2_13
ROOT
HETATM    1  O1  UNL     1      16.336   0.173  12.788  1.00  0.00    -0.271 OA
HETATM    2  C1  UNL     1      16.567   1.379  13.180  1.00  0.00     0.240 C
HETATM    3  N1  UNL     1      16.549   2.449  12.257  1.00  0.00    -0.355 N
ATOM      4  H1  UNL     1      15.914   2.429  11.460  1.00  0.00     0.162 HD
HETATM    5  C2  UNL     1      17.462   3.602  12.455  1.00  0.00     0.086 C
HETATM    6  C5  UNL     1      18.228   3.313  13.684  1.00  0.00     0.028 C
HETATM    7  C6  UNL     1      17.287   3.013  14.847  1.00  0.00     0.037 C
HETATM    8  C7  UNL     1      16.838   1.565  14.605  1.00  0.00     0.175 C
ENDROOT
BRANCH   8   9
HETATM    9  N2  UNL     1      15.857   1.187  15.524  1.00  0.00    -0.380 N
HETATM   10  C8  UNL     1      15.838  -0.062  16.126  1.00  0.00     0.059 C
HETATM   11  C9  UNL     1      15.446  -0.104  17.577  1.00  0.00     0.044 C
HETATM   12  C10 UNL     1      14.536   1.026  17.982  1.00  0.00     0.007 C
HETATM   13  C11 UNL     1      13.854   1.603  16.751  1.00  0.00     0.020 C
HETATM   14  C12 UNL     1      14.990   2.213  15.925  1.00  0.00     0.123 C
ENDBRANCH   8   9
BRANCH   5  15
HETATM   15  C3  UNL     1      16.704   4.873  12.420  1.00  0.00     0.051 C
BRANCH  15  16
HETATM   16  C4  UNL     1      16.338   5.278  11.025  1.00  0.00     0.166 C
BRANCH  16  17
HETATM   17  O2  UNL     1      15.463   4.453  10.376  1.00  0.00    -0.401 OA
ATOM     18  H2  UNL     1      15.426   4.550   9.431  1.00  0.00     0.209 HD
ENDBRANCH  16  17
ENDBRANCH  15  16
ENDBRANCH   5  15
TORSDOF 4
ENDMDL