MODEL 3
REMARK VINA RESULT: -6.137736028      0.991      1.198
REMARK  3 active torsions:
REMARK  status: ('A' for Active; 'I' for Inactive)
REMARK    1  A    between atoms: C3_4  and  N1_5
REMARK    2  A    between atoms: N1_5  and  C4_8
REMARK    3  A    between atoms: C4_8  and  C5_9
ROOT
HETATM    1  O1  UNL     1      16.572   2.075  10.030  1.00  0.00    -0.273 OA
HETATM    2  C1  UNL     1      16.839   2.331  11.252  1.00  0.00     0.222 C
HETATM    3  C2  UNL     1      16.747   1.415  12.420  1.00  0.00     0.138 C
HETATM    4  C3  UNL     1      16.431   2.328  13.588  1.00  0.00     0.217 C
HETATM    5  C8  UNL     1      17.020   3.649  13.198  1.00  0.00     0.118 C
HETATM    6  C9  UNL     1      16.042   4.788  13.395  1.00  0.00     0.027 C
HETATM    7  C10 UNL     1      15.888   5.618  12.143  1.00  0.00     0.004 C
HETATM    8  C11 UNL     1      17.307   6.008  11.712  1.00  0.00     0.020 C
HETATM    9  C12 UNL     1      17.940   4.720  11.170  1.00  0.00     0.126 C
HETATM   10  N3  UNL     1      17.291   3.574  11.773  1.00  0.00    -0.345 N
ENDROOT
BRANCH   4  11
HETATM   11  N1  UNL     1      16.965   1.808  14.831  1.00  0.00    -0.068 N
ATOM     12  H12 UNL     1      17.165   0.809  14.787  1.00  0.00     0.277 HD
ATOM     13  H11 UNL     1      17.915   2.130  15.018  1.00  0.00     0.277 HD
BRANCH  11  14
HETATM   14  C4  UNL     1      16.046   2.144  15.888  1.00  0.00     0.240 C
BRANCH  14  15
HETATM   15  C5  UNL     1      15.173   0.998  16.307  1.00  0.00     0.062 C
HETATM   16  C6  UNL     1      15.138   0.685  17.765  1.00  0.00     0.240 C
HETATM   17  N2  UNL     1      15.276  -0.732  17.420  1.00  0.00    -0.074 N
HETATM   18  C7  UNL     1      15.967  -0.311  16.217  1.00  0.00     0.240 C
ATOM     19  H22 UNL     1      15.706  -1.392  18.069  1.00  0.00     0.277 HD
ATOM     20  H21 UNL     1      14.461  -1.344  17.372  1.00  0.00     0.277 HD
ENDBRANCH  14  15
ENDBRANCH  11  14
ENDBRANCH   4  11
TORSDOF 3
ENDMDL