MODEL 4
REMARK VINA RESULT: -6.511313685      3.032      5.447
REMARK  3 active torsions:
REMARK  status: ('A' for Active; 'I' for Inactive)
REMARK    1  A    between atoms: C3_5  and  C4_6
REMARK    2  A    between atoms: C4_6  and  S1_7
REMARK    3  A    between atoms: S1_7  and  C5_9
ROOT
HETATM    1  C4  UNL     1      15.559   3.068  15.426  1.00  0.00     0.162 C
ENDROOT
BRANCH   1   2
HETATM    2  C3  UNL     1      14.925   1.752  15.727  1.00  0.00     0.235 C
HETATM    3  O2  UNL     1      14.036   1.836  16.823  1.00  0.00    -0.357 OA
HETATM    4  C2  UNL     1      13.634   0.487  16.900  1.00  0.00     0.273 C
HETATM    5  C1  UNL     1      14.950  -0.204  16.871  1.00  0.00     0.243 C
HETATM    6  O1  UNL     1      15.287  -1.335  17.281  1.00  0.00    -0.271 OA
HETATM    7  N1  UNL     1      15.835   0.744  16.233  1.00  0.00    -0.332 N
ATOM      8  H1  UNL     1      16.852   0.711  16.157  1.00  0.00     0.165 HD
ENDBRANCH   1   2
BRANCH   1   9
HETATM    9  S1  UNL     1      17.160   2.794  14.740  1.00  0.00     0.023 S
HETATM   10  O3  UNL     1      18.226   2.042  15.749  1.00  0.00    -0.258 OA
BRANCH   9  11
HETATM   11  C5  UNL     1      17.821   4.229  13.957  1.00  0.00     0.079 C
HETATM   12  C6  UNL     1      17.436   5.508  14.615  1.00  0.00     0.017 C
HETATM   13  C7  UNL     1      18.305   6.667  14.374  1.00  0.00     0.001 C
HETATM   14  C8  UNL     1      19.620   6.452  13.752  1.00  0.00     0.000 C
HETATM   15  C9  UNL     1      19.807   5.182  13.001  1.00  0.00     0.001 C
HETATM   16  C10 UNL     1      19.341   4.043  13.902  1.00  0.00     0.017 C
ENDBRANCH   9  11
ENDBRANCH   1   9
TORSDOF 3
ENDMDL