MODEL 2
REMARK VINA RESULT: -7.186965035      0.093      2.329
REMARK  6 active torsions:
REMARK  status: ('A' for Active; 'I' for Inactive)
REMARK    1  A    between atoms: O1_1  and  C1_3
REMARK    2  A    between atoms: C1_3  and  C2_4
REMARK    3  A    between atoms: C2_4  and  O2_5
REMARK    4  A    between atoms: C2_4  and  C3_7
REMARK    5  A    between atoms: N1_11  and  C7_12
REMARK    6  A    between atoms: C7_12  and  C8_13
ROOT
HETATM    1  C7  UNL     1      16.380   3.363  13.924  1.00  0.00     0.318 C
ENDROOT
BRANCH   1   2
HETATM    2  N1  UNL     1      17.621   4.025  14.186  1.00  0.00     0.100 N
HETATM    3  C3  UNL     1      18.579   4.423  13.240  1.00  0.00     0.254 C
HETATM    4  C4  UNL     1      17.758   4.835  12.073  1.00  0.00     0.040 C
HETATM    5  C5  UNL     1      16.747   5.729  12.872  1.00  0.00     0.032 C
HETATM    6  C6  UNL     1      17.102   5.480  14.294  1.00  0.00     0.273 C
BRANCH   3   7
HETATM    7  C2  UNL     1      19.880   3.828  13.162  1.00  0.00     0.175 C
BRANCH   7   8
HETATM    8  C1  UNL     1      20.174   2.832  12.119  1.00  0.00     0.198 C
BRANCH   8   9
HETATM    9  O1  UNL     1      21.099   1.884  12.529  1.00  0.00    -0.398 OA
ATOM     10  H1  UNL     1      21.933   2.268  12.770  1.00  0.00     0.209 HD
ENDBRANCH   8   9
ENDBRANCH   7   8
BRANCH   7  11
HETATM   11  O2  UNL     1      20.056   3.088  14.396  1.00  0.00    -0.391 OA
ATOM     12  H2  UNL     1      20.989   3.151  14.562  1.00  0.00     0.210 HD
ENDBRANCH   7  11
ENDBRANCH   3   7
ENDBRANCH   1   2
BRANCH   1  13
HETATM   13  C8  UNL     1      16.159   2.219  14.892  1.00  0.00     0.054 A
HETATM   14  C9  UNL     1      15.392   2.408  15.989  1.00  0.00     0.169 A
HETATM   15  F1  UNL     1      14.769   3.580  16.365  1.00  0.00    -0.202 F
HETATM   16  C10 UNL     1      15.132   1.341  16.837  1.00  0.00     0.197 A
HETATM   17  F2  UNL     1      14.378   1.536  17.946  1.00  0.00    -0.199 F
HETATM   18  C11 UNL     1      15.648   0.096  16.584  1.00  0.00     0.199 A
HETATM   19  F3  UNL     1      15.436  -0.987  17.379  1.00  0.00    -0.199 F
HETATM   20  C12 UNL     1      16.436  -0.135  15.457  1.00  0.00     0.197 A
HETATM   21  F4  UNL     1      16.918  -1.349  15.210  1.00  0.00    -0.199 F
HETATM   22  C13 UNL     1      16.679   0.965  14.619  1.00  0.00     0.169 A
HETATM   23  F5  UNL     1      17.327   0.672  13.494  1.00  0.00    -0.202 F
ENDBRANCH   1  13
TORSDOF 6
ENDMDL