MODEL 1
REMARK VINA RESULT: -6.712521353      0.000      0.000
REMARK  7 active torsions:
REMARK  status: ('A' for Active; 'I' for Inactive)
REMARK    1  A    between atoms: C3_3  and  C4_4
REMARK    2  A    between atoms: C4_4  and  O1_6
REMARK    3  A    between atoms: C4_4  and  C6_8
REMARK    4  A    between atoms: C7_9  and  N1_10
REMARK    5  A    between atoms: N1_10  and  S1_12
REMARK    6  A    between atoms: S1_12  and  N2_14
REMARK    7  A    between atoms: N2_14  and  N3_15
ROOT
HETATM    1  C6  UNL     1      16.370   2.503  13.713  1.00  0.00     0.133 C
HETATM    2  C7  UNL     1      16.993   2.224  15.030  1.00  0.00     0.171 C
HETATM    3  C8  UNL     1      18.154   3.129  15.023  1.00  0.00     0.158 C
HETATM    4  F1  UNL     1      19.353   2.898  15.616  1.00  0.00    -0.205 F
HETATM    5  C9  UNL     1      17.799   4.226  14.317  1.00  0.00     0.202 C
HETATM    6  F2  UNL     1      18.616   5.272  14.103  1.00  0.00    -0.201 F
HETATM    7  C10 UNL     1      16.381   4.046  13.834  1.00  0.00     0.308 C
HETATM    8  F3  UNL     1      15.549   4.370  14.858  1.00  0.00    -0.198 F
HETATM    9  F4  UNL     1      16.139   4.684  12.674  1.00  0.00    -0.198 F
ENDROOT
BRANCH   2  10
HETATM   10  N1  UNL     1      17.179   0.897  15.437  1.00  0.00    -0.299 N
ATOM     11  H1  UNL     1      17.900   0.259  15.096  1.00  0.00     0.173 HD
BRANCH  10  12
HETATM   12  S1  UNL     1      15.922   0.516  16.667  1.00  0.00     0.311 S
HETATM   13  O2  UNL     1      15.530  -1.147  16.946  1.00  0.00    -0.195 OA
BRANCH  12  14
HETATM   14  N2  UNL     1      14.890   1.642  17.050  1.00  0.00    -0.245 NA
BRANCH  14  15
HETATM   15  N3  UNL     1      14.188   2.625  17.256  1.00  0.00    -0.269 N
ATOM     16  H32 UNL     1      14.592   3.005  16.400  1.00  0.00     0.192 HD
ATOM     17  H31 UNL     1      13.558   3.374  17.545  1.00  0.00     0.192 HD
ENDBRANCH  14  15
ENDBRANCH  12  14
ENDBRANCH  10  12
ENDBRANCH   2  10
BRANCH   1  18
HETATM   18  C4  UNL     1      17.114   2.072  12.491  1.00  0.00     0.084 C
HETATM   19  C5  UNL     1      17.479   3.380  11.758  1.00  0.00     0.051 C
BRANCH  18  20
HETATM   20  C3  UNL     1      16.400   1.258  11.535  1.00  0.00     0.006 C
HETATM   21  C2  UNL     1      16.392  -0.055  11.587  1.00  0.00    -0.032 C
HETATM   22  C1  UNL     1      17.096  -0.852  12.606  1.00  0.00     0.036 C
ENDBRANCH  18  20
BRANCH  18  23
HETATM   23  O1  UNL     1      18.318   1.452  12.817  1.00  0.00    -0.386 OA
ATOM     24  H1  UNL     1      18.896   2.085  13.227  1.00  0.00     0.211 HD
ENDBRANCH  18  23
ENDBRANCH   1  18
TORSDOF 7
ENDMDL