MODEL 2
REMARK VINA RESULT: -6.383620558      1.774      1.774
REMARK  4 active torsions:
REMARK  status: ('A' for Active; 'I' for Inactive)
REMARK    1  A    between atoms: C3_8  and  N2_9
REMARK    2  A    between atoms: N2_9  and  C4_12
REMARK    3  A    between atoms: C4_12  and  C5_13
REMARK    4  A    between atoms: C5_13  and  S1_14
ROOT
HETATM    1  O1  UNL     1      17.676  -0.523  16.099  1.00  0.00    -0.238 OA
HETATM    2  C1  UNL     1      16.534  -0.084  16.311  1.00  0.00     0.367 C
HETATM    3  N1  UNL     1      15.726  -0.355  17.449  1.00  0.00    -0.270 N
ATOM      4  H1  UNL     1      15.894  -1.065  18.162  1.00  0.00     0.170 HD
HETATM    5  C2  UNL     1      14.622   0.570  17.400  1.00  0.00     0.377 C
HETATM    6  F1  UNL     1      13.464  -0.228  17.302  1.00  0.00    -0.177 F
HETATM    7  F2  UNL     1      14.458   1.259  18.585  1.00  0.00    -0.177 F
HETATM    8  C3  UNL     1      14.776   1.416  16.190  1.00  0.00     0.426 C
HETATM    9  O2  UNL     1      15.823   0.768  15.468  1.00  0.00    -0.262 OA
ENDROOT
BRANCH   8  10
HETATM   10  N2  UNL     1      15.146   2.794  16.429  1.00  0.00    -0.040 N
ATOM     11  H22 UNL     1      14.590   3.216  17.175  1.00  0.00     0.280 HD
ATOM     12  H21 UNL     1      16.064   2.875  16.865  1.00  0.00     0.280 HD
BRANCH  10  13
HETATM   13  C4  UNL     1      15.061   3.548  15.195  1.00  0.00     0.248 C
BRANCH  13  14
HETATM   14  C5  UNL     1      15.806   4.862  15.267  1.00  0.00     0.140 C
BRANCH  14  15
HETATM   15  S1  UNL     1      17.332   4.913  14.379  1.00  0.00     0.045 SA
HETATM   16  F3  UNL     1      16.965   4.757  12.706  1.00  0.00    -0.162 F
HETATM   17 CL1  UNL     1      18.442   3.177  14.863  1.00  0.00    -0.023 Cl
HETATM   18 BR1  UNL     1      18.553   6.729  14.734  1.00  0.00     0.015 Br
ENDBRANCH  14  15
ENDBRANCH  13  14
ENDBRANCH  10  13
ENDBRANCH   8  10
TORSDOF 4
ENDMDL