MODEL 3
REMARK VINA RESULT: -6.023106325      1.488      1.821
REMARK  5 active torsions:
REMARK  status: ('A' for Active; 'I' for Inactive)
REMARK    1  A    between atoms: O1_2  and  C2_3
REMARK    2  A    between atoms: C2_3  and  C3_5
REMARK    3  A    between atoms: C3_5  and  N1_6
REMARK    4  A    between atoms: N1_6  and  C4_8
REMARK    5  A    between atoms: C4_8  and  C5_12
ROOT
HETATM    1  C4  UNL     1      16.761   1.118  12.728  1.00  0.00     0.102 C
HETATM    2  N2  UNL     1      16.116   0.820  11.663  1.00  0.00    -0.387 N
ATOM      3  H21 UNL     1      15.597   1.572  11.210  1.00  0.00     0.157 HD
ATOM      4  H22 UNL     1      16.143  -0.140  11.320  1.00  0.00     0.157 HD
ENDROOT
BRANCH   1   5
HETATM    5  N1  UNL     1      17.490   0.063  13.362  1.00  0.00    -0.369 N
ATOM      6  H1  UNL     1      18.502   0.012  13.255  1.00  0.00     0.161 HD
BRANCH   5   7
HETATM    7  C3  UNL     1      16.801  -0.931  14.153  1.00  0.00     0.232 C
BRANCH   7   8
HETATM    8  C2  UNL     1      16.808  -0.580  15.597  1.00  0.00     0.276 C
HETATM    9  O2  UNL     1      17.691   0.078  16.164  1.00  0.00    -0.263 OA
BRANCH   8  10
HETATM   10  O1  UNL     1      15.738  -1.026  16.362  1.00  0.00    -0.325 OA
HETATM   11  C1  UNL     1      15.140  -0.152  17.304  1.00  0.00     0.213 C
ENDBRANCH   8  10
ENDBRANCH   7   8
ENDBRANCH   5   7
ENDBRANCH   1   5
BRANCH   1  12
HETATM   12  C5  UNL     1      16.722   2.487  13.218  1.00  0.00     0.170 A
HETATM   13 CL1  UNL     1      15.675   2.696  14.663  1.00  0.00    -0.104 Cl
HETATM   14  C6  UNL     1      16.947   3.675  12.376  1.00  0.00     0.182 A
HETATM   15 CL2  UNL     1      16.158   5.172  12.922  1.00  0.00    -0.095 Cl
HETATM   16 CL3  UNL     1      17.113   3.528  10.621  1.00  0.00    -0.095 Cl
HETATM   17  C7  UNL     1      18.071   3.217  13.238  1.00  0.00     0.182 A
HETATM   18 CL4  UNL     1      18.438   4.101  14.740  1.00  0.00    -0.095 Cl
HETATM   19 CL5  UNL     1      19.450   2.558  12.371  1.00  0.00    -0.095 Cl
ENDBRANCH   1  12
TORSDOF 5
ENDMDL