MODEL 3
REMARK VINA RESULT: -6.570604884      1.474      1.734
REMARK  4 active torsions:
REMARK  status: ('A' for Active; 'I' for Inactive)
REMARK    1  A    between atoms: C3_9  and  S1_10
REMARK    2  A    between atoms: S1_10  and  C4_11
REMARK    3  A    between atoms: C4_11  and  C5_12
REMARK    4  A    between atoms: C5_12  and  N3_13
ROOT
HETATM    1  O1  UNL     1      16.077  -0.797  17.583  1.00  0.00    -0.265 OA
HETATM    2  C1  UNL     1      16.155  -0.075  16.543  1.00  0.00     0.289 A
HETATM    3  N1  UNL     1      16.672  -0.609  15.417  1.00  0.00    -0.297 N
ATOM      4  H1  UNL     1      16.996  -1.576  15.393  1.00  0.00     0.171 HD
HETATM    5  C2  UNL     1      16.746   0.184  14.317  1.00  0.00     0.182 A
HETATM    6 CL1  UNL     1      17.412  -0.448  12.805  1.00  0.00    -0.045 Cl
HETATM    7  N2  UNL     1      16.322   1.434  14.370  1.00  0.00    -0.324 N
ATOM      8  H2  UNL     1      16.395   1.998  13.524  1.00  0.00     0.169 HD
HETATM    9  C3  UNL     1      15.788   2.023  15.496  1.00  0.00     0.117 A
HETATM   10  C9  UNL     1      15.706   1.236  16.608  1.00  0.00     0.217 A
HETATM   11  F3  UNL     1      15.174   1.653  17.766  1.00  0.00    -0.197 F
ENDROOT
BRANCH   9  12
HETATM   12  S1  UNL     1      15.236   3.668  15.389  1.00  0.00    -0.107 SA
BRANCH  12  13
HETATM   13  C4  UNL     1      15.915   4.723  14.138  1.00  0.00     0.101 C
BRANCH  13  14
HETATM   14  C5  UNL     1      17.371   4.935  14.309  1.00  0.00     0.142 C
BRANCH  14  15
HETATM   15  N3  UNL     1      18.161   4.143  13.373  1.00  0.00    -0.315 N
HETATM   16  C6  UNL     1      17.840   3.911  12.084  1.00  0.00     0.187 A
HETATM   17  N4  UNL     1      18.785   3.140  11.517  1.00  0.00    -0.325 N
HETATM   18  C7  UNL     1      19.726   2.861  12.431  1.00  0.00     0.246 A
ATOM     19  H4  UNL     1      18.786   2.819  10.549  1.00  0.00     0.169 HD
HETATM   20  F1  UNL     1      20.846   2.109  12.237  1.00  0.00    -0.181 F
HETATM   21  C8  UNL     1      19.310   3.505  13.591  1.00  0.00     0.248 A
HETATM   22  F2  UNL     1      20.029   3.441  14.723  1.00  0.00    -0.181 F
ENDBRANCH  14  15
ENDBRANCH  13  14
ENDBRANCH  12  13
ENDBRANCH   9  12
TORSDOF 4
ENDMDL