MODEL 2
REMARK VINA RESULT: -6.611106717      3.899      6.808
REMARK  7 active torsions:
REMARK  status: ('A' for Active; 'I' for Inactive)
REMARK    1  A    between atoms: N1_2  and  C2_3
REMARK       I    between atoms: N1_2  and  C4_7
REMARK    2  A    between atoms: C2_3  and  C3_4
REMARK    3  A    between atoms: C3_4  and  O1_5
REMARK    4  A    between atoms: C4_7  and  C5_9
REMARK    5  A    between atoms: C9_13  and  O3_14
REMARK    6  A    between atoms: C9_13  and  C10_16
REMARK    7  A    between atoms: C10_16  and  N2_18
ROOT
HETATM    1  C5  UNL     1      17.100   4.112  13.844  1.00  0.00     0.081 C
HETATM    2  C6  UNL     1      16.976   5.454  14.554  1.00  0.00     0.014 C
HETATM    3  C7  UNL     1      18.266   6.251  14.350  1.00  0.00     0.004 C
HETATM    4  C8  UNL     1      18.261   6.636  12.882  1.00  0.00     0.043 C
HETATM    5  C9  UNL     1      18.171   5.381  11.995  1.00  0.00     0.118 C
HETATM    6  C13 UNL     1      18.195   4.135  12.818  1.00  0.00     0.057 C
ENDROOT
BRANCH   5   7
HETATM    7  O3  UNL     1      19.349   5.451  11.200  1.00  0.00    -0.385 OA
ATOM      8  H3  UNL     1      19.049   5.192  10.337  1.00  0.00     0.210 HD
ENDBRANCH   5   7
BRANCH   5   9
HETATM    9  C10 UNL     1      17.009   5.585  11.090  1.00  0.00     0.450 C
HETATM   10  F1  UNL     1      16.291   4.359  11.120  1.00  0.00    -0.212 F
BRANCH   9  11
HETATM   11  N2  UNL     1      16.094   6.597  11.338  1.00  0.00     0.244 N
HETATM   12  C11 UNL     1      15.607   7.611  10.489  1.00  0.00     0.521 A
HETATM   13  F2  UNL     1      15.155   8.806  11.042  1.00  0.00    -0.207 F
HETATM   14  C12 UNL     1      14.735   6.439  10.889  1.00  0.00     0.506 A
HETATM   15  F3  UNL     1      13.795   6.602  11.879  1.00  0.00    -0.168 F
HETATM   16  F4  UNL     1      14.420   5.536   9.922  1.00  0.00    -0.168 F
ENDBRANCH   9  11
ENDBRANCH   5   9
BRANCH   1  17
HETATM   17  C4  UNL     1      17.324   3.070  14.878  1.00  0.00     0.223 C
HETATM   18  N1  UNL     1      16.352   2.332  15.560  1.00  0.00    -0.354 N
HETATM   19  C1  UNL     1      14.953   2.548  15.314  1.00  0.00     0.152 C
HETATM   20  O2  UNL     1      18.548   2.824  15.171  1.00  0.00    -0.273 OA
BRANCH  18  21
HETATM   21  C2  UNL     1      16.729   1.334  16.530  1.00  0.00     0.151 C
BRANCH  21  22
HETATM   22  C3  UNL     1      16.468  -0.070  15.975  1.00  0.00     0.183 C
BRANCH  22  23
HETATM   23  O1  UNL     1      17.615  -0.853  16.061  1.00  0.00    -0.399 OA
ATOM     24  H1  UNL     1      17.450  -1.725  15.722  1.00  0.00     0.209 HD
ENDBRANCH  22  23
ENDBRANCH  21  22
ENDBRANCH  18  21
ENDBRANCH   1  17
TORSDOF 7
ENDMDL