MODEL 4
REMARK VINA RESULT: -6.594502909      3.844      5.884
REMARK  5 active torsions:
REMARK  status: ('A' for Active; 'I' for Inactive)
REMARK    1  A    between atoms: C2_2  and  C3_5
REMARK    2  A    between atoms: C3_5  and  N1_6
REMARK    3  A    between atoms: C5_8  and  C6_9
REMARK    4  A    between atoms: C6_9  and  C7_10
REMARK    5  A    between atoms: C7_10  and  C8_13
ROOT
HETATM    1  N1  UNL     1      16.606   1.543  15.655  1.00  0.00    -0.380 N
HETATM    2  C4  UNL     1      16.842   2.917  15.438  1.00  0.00     0.155 C
HETATM    3  C5  UNL     1      16.442   3.283  14.042  1.00  0.00     0.210 C
HETATM    4  N2  UNL     1      17.097   2.415  13.049  1.00  0.00    -0.061 N
ATOM      5  H21 UNL     1      18.114   2.478  13.051  1.00  0.00     0.278 HD
ATOM      6  H22 UNL     1      16.964   2.716  12.084  1.00  0.00     0.278 HD
HETATM    7  C9  UNL     1      16.596   1.103  13.323  1.00  0.00     0.236 C
HETATM    8  C10 UNL     1      17.192   0.003  12.500  1.00  0.00     0.267 C
HETATM    9  N3  UNL     1      16.951  -1.168  13.298  1.00  0.00    -0.071 N
ATOM     10  H31 UNL     1      17.680  -1.873  13.196  1.00  0.00     0.277 HD
ATOM     11  H32 UNL     1      16.172  -1.728  12.955  1.00  0.00     0.277 HD
HETATM   12  C11 UNL     1      16.771  -0.731  14.692  1.00  0.00     0.259 C
HETATM   13  C12 UNL     1      17.182   0.712  14.696  1.00  0.00     0.141 C
ENDROOT
BRANCH   3  14
HETATM   14  C6  UNL     1      16.546   4.718  13.697  1.00  0.00     0.119 C
BRANCH  14  15
HETATM   15  C7  UNL     1      17.733   5.451  14.192  1.00  0.00     0.303 C
HETATM   16  F1  UNL     1      18.849   4.649  14.353  1.00  0.00    -0.200 F
HETATM   17  F2  UNL     1      17.526   6.216  15.307  1.00  0.00    -0.200 F
BRANCH  15  18
HETATM   18  C8  UNL     1      18.135   6.443  13.087  1.00  0.00     0.424 C
HETATM   19  F3  UNL     1      18.606   7.614  13.641  1.00  0.00    -0.208 F
HETATM   20  F4  UNL     1      17.081   6.712  12.248  1.00  0.00    -0.208 F
ENDBRANCH  15  18
ENDBRANCH  14  15
ENDBRANCH   3  14
BRANCH   1  21
HETATM   21  C3  UNL     1      16.326   1.086  16.943  1.00  0.00     0.100 C
BRANCH  21  22
HETATM   22  C2  UNL     1      14.959   1.348  17.484  1.00  0.00     0.141 C
HETATM   23  C1  UNL     1      15.047   1.274  19.010  1.00  0.00     0.056 C
HETATM   24 CL1  UNL     1      13.835   0.057  16.993  1.00  0.00    -0.096 Cl
HETATM   25 CL2  UNL     1      14.261   2.897  17.061  1.00  0.00    -0.096 Cl
ENDBRANCH  21  22
ENDBRANCH   1  21
TORSDOF 5
ENDMDL