MODEL 2
REMARK VINA RESULT: -7.704747101      1.466      1.779
REMARK  4 active torsions:
REMARK  status: ('A' for Active; 'I' for Inactive)
REMARK    1  A    between atoms: N2_3  and  C2_4
REMARK    2  A    between atoms: N2_3  and  C9_16
REMARK    3  A    between atoms: C2_4  and  C3_5
REMARK    4  A    between atoms: C9_16  and  C10_17
ROOT
HETATM    1  N1  UNL     1      16.470   3.314  10.863  1.00  0.00    -0.172 NA
HETATM    2  C1  UNL     1      16.852   2.908  11.897  1.00  0.00     0.184 C
HETATM    3  N2  UNL     1      17.356   2.387  13.159  1.00  0.00    -0.295 N
ENDROOT
BRANCH   3   4
HETATM    4  C2  UNL     1      16.652   1.213  13.594  1.00  0.00     0.185 C
BRANCH   4   5
HETATM    5  C3  UNL     1      15.937   1.270  14.878  1.00  0.00     0.044 A
HETATM    6  C4  UNL     1      16.130   0.168  15.705  1.00  0.00     0.169 A
HETATM    7  F1  UNL     1      16.725  -0.961  15.274  1.00  0.00    -0.202 F
HETATM    8  C5  UNL     1      15.654   0.189  17.015  1.00  0.00     0.197 A
HETATM    9  F2  UNL     1      15.779  -0.909  17.830  1.00  0.00    -0.199 F
HETATM   10  C6  UNL     1      14.993   1.257  17.520  1.00  0.00     0.199 A
HETATM   11  F3  UNL     1      14.576   1.295  18.813  1.00  0.00    -0.199 F
HETATM   12  C7  UNL     1      14.798   2.333  16.698  1.00  0.00     0.197 A
HETATM   13  F4  UNL     1      14.147   3.388  17.218  1.00  0.00    -0.199 F
HETATM   14  C8  UNL     1      15.278   2.308  15.400  1.00  0.00     0.169 A
HETATM   15  F5  UNL     1      14.972   3.374  14.585  1.00  0.00    -0.202 F
ENDBRANCH   4   5
ENDBRANCH   3   4
BRANCH   3  16
HETATM   16  C9  UNL     1      18.410   2.943  13.873  1.00  0.00     0.083 C
BRANCH  16  17
HETATM   17  C10 UNL     1      18.511   4.449  13.864  1.00  0.00     0.061 C
HETATM   18  C11 UNL     1      17.823   5.013  15.090  1.00  0.00     0.136 C
HETATM   19  N3  UNL     1      17.745   6.462  14.947  1.00  0.00    -0.342 N
HETATM   20  C12 UNL     1      19.046   7.087  14.811  1.00  0.00     0.316 C
ATOM     21  H3  UNL     1      16.867   6.981  14.944  1.00  0.00     0.164 HD
HETATM   22  O1  UNL     1      19.216   8.308  15.104  1.00  0.00    -0.247 OA
HETATM   23  N4  UNL     1      20.069   6.262  14.330  1.00  0.00    -0.342 N
HETATM   24  C13 UNL     1      19.821   5.061  13.549  1.00  0.00     0.136 C
ATOM     25  H4  UNL     1      21.035   6.515  14.538  1.00  0.00     0.164 HD
ENDBRANCH  16  17
ENDBRANCH   3  16
TORSDOF 4
ENDMDL