MODEL 3
REMARK VINA RESULT: -5.995966905      0.478      1.269
REMARK  5 active torsions:
REMARK  status: ('A' for Active; 'I' for Inactive)
REMARK    1  A    between atoms: O1_1  and  C1_3
REMARK    2  A    between atoms: C1_3  and  C2_4
REMARK    3  A    between atoms: N1_7  and  C5_8
REMARK    4  A    between atoms: C5_8  and  C6_9
REMARK    5  A    between atoms: C6_9  and  N2_10
ROOT
HETATM    1  C5  UNL     1      16.863   4.856  14.336  1.00  0.00     0.161 C
ENDROOT
BRANCH   1   2
HETATM    2  N1  UNL     1      16.179   3.905  15.140  1.00  0.00    -0.408 N
HETATM    3  C4  UNL     1      16.902   2.906  15.799  1.00  0.00     0.117 C
HETATM    4  C3  UNL     1      16.063   1.627  15.864  1.00  0.00     0.026 C
HETATM    5  C2  UNL     1      14.630   1.873  16.198  1.00  0.00     0.012 C
HETATM    6  C13 UNL     1      14.475   3.283  16.709  1.00  0.00     0.026 C
HETATM    7  C12 UNL     1      14.859   4.191  15.534  1.00  0.00     0.117 C
BRANCH   5   8
HETATM    8  C1  UNL     1      14.195   0.875  17.251  1.00  0.00     0.168 C
BRANCH   8   9
HETATM    9  O1  UNL     1      15.092  -0.217  17.259  1.00  0.00    -0.400 OA
ATOM     10  H1  UNL     1      14.655  -0.980  17.619  1.00  0.00     0.209 HD
ENDBRANCH   8   9
ENDBRANCH   5   8
ENDBRANCH   1   2
BRANCH   1  11
HETATM   11  C6  UNL     1      17.504   4.150  13.177  1.00  0.00     0.082 C
BRANCH  11  12
HETATM   12  N2  UNL     1      18.888   4.352  13.103  1.00  0.00    -0.371 N
HETATM   13  C7  UNL     1      19.342   5.625  13.596  1.00  0.00     0.129 C
HETATM   14  C8  UNL     1      19.661   6.653  12.577  1.00  0.00     0.048 C
HETATM   15  C9  UNL     1      21.148   6.698  12.231  1.00  0.00     0.234 C
HETATM   16  N3  UNL     1      21.589   5.313  12.179  1.00  0.00    -0.071 N
HETATM   17  C10 UNL     1      20.627   4.611  11.361  1.00  0.00     0.277 C
ATOM     18  H32 UNL     1      22.551   5.207  11.856  1.00  0.00     0.277 HD
ATOM     19  H31 UNL     1      21.720   4.894  13.101  1.00  0.00     0.277 HD
HETATM   20  C11 UNL     1      19.707   3.718  12.176  1.00  0.00     0.090 C
ENDBRANCH  11  12
ENDBRANCH   1  11
TORSDOF 5
ENDMDL