MODEL 1
REMARK VINA RESULT: -6.318533987      0.000      0.000
REMARK  4 active torsions:
REMARK  status: ('A' for Active; 'I' for Inactive)
REMARK    1  A    between atoms: C2_2  and  N1_3
REMARK    2  A    between atoms: C2_2  and  C11_18
REMARK       I    between atoms: N1_3  and  C3_5
REMARK    3  A    between atoms: C3_5  and  C4_7
REMARK    4  A    between atoms: C7_10  and  C8_11
ROOT
HETATM    1  C4  UNL     1      16.981   3.500  14.949  1.00  0.00     0.277 C
HETATM    2  C5  UNL     1      17.499   2.425  15.875  1.00  0.00     0.043 C
HETATM    3  C6  UNL     1      16.508   1.296  15.925  1.00  0.00     0.011 C
HETATM    4  C7  UNL     1      15.087   1.702  15.987  1.00  0.00     0.042 C
HETATM    5  C10 UNL     1      14.763   3.056  15.449  1.00  0.00     0.240 C
HETATM    6  N2  UNL     1      15.800   4.029  15.606  1.00  0.00    -0.062 N
ATOM      7  H21 UNL     1      15.535   4.955  15.270  1.00  0.00     0.278 HD
ATOM      8  H22 UNL     1      15.964   4.286  16.578  1.00  0.00     0.278 HD
ENDROOT
BRANCH   1   9
HETATM    9  C3  UNL     1      17.976   4.557  14.686  1.00  0.00     0.248 C
HETATM   10  N1  UNL     1      17.614   5.913  14.504  1.00  0.00    -0.355 N
ATOM     11  H1  UNL     1      16.633   6.187  14.552  1.00  0.00     0.162 HD
HETATM   12  O1  UNL     1      19.194   4.208  14.628  1.00  0.00    -0.271 OA
BRANCH  10  13
HETATM   13  C2  UNL     1      18.627   6.907  14.249  1.00  0.00     0.084 C
HETATM   14  C1  UNL     1      18.670   7.273  12.760  1.00  0.00     0.032 C
BRANCH  13  15
HETATM   15  C11 UNL     1      18.410   8.157  15.077  1.00  0.00     0.008 A
HETATM   16  C12 UNL     1      19.632   8.687  15.798  1.00  0.00     0.007 A
HETATM   17  C13 UNL     1      19.107   9.415  14.609  1.00  0.00     0.007 A
ENDBRANCH  13  15
ENDBRANCH  10  13
ENDBRANCH   1   9
BRANCH   4  18
HETATM   18  C8  UNL     1      14.549   1.496  17.398  1.00  0.00     0.151 A
HETATM   19  C9  UNL     1      14.829   2.373  18.491  1.00  0.00     0.200 A
HETATM   20  O2  UNL     1      15.385   1.041  18.387  1.00  0.00    -0.381 OA
ENDBRANCH   4  18
TORSDOF 4
ENDMDL