MODEL 3
REMARK VINA RESULT: -5.971467418      2.512      5.495
REMARK  5 active torsions:
REMARK  status: ('A' for Active; 'I' for Inactive)
REMARK    1  A    between atoms: N2_14  and  C10_15
REMARK    2  A    between atoms: C10_15  and  C11_16
REMARK    3  A    between atoms: C11_16  and  C12_17
REMARK    4  A    between atoms: C12_17  and  C13_18
REMARK    5  A    between atoms: C13_18  and  O2_19
ROOT
HETATM    1  O1  UNL     1      16.621   2.176  13.077  1.00  0.00    -0.273 OA
HETATM    2  C1  UNL     1      16.492   3.372  13.417  1.00  0.00     0.220 C
HETATM    3  C2  UNL     1      17.186   4.515  12.809  1.00  0.00     0.114 C
HETATM    4  C3  UNL     1      17.601   5.596  13.742  1.00  0.00    -0.007 C
HETATM    5  C4  UNL     1      17.566   6.975  13.085  1.00  0.00     0.013 C
HETATM    6  C5  UNL     1      18.593   7.864  13.770  1.00  0.00     0.028 C
HETATM    7  C6  UNL     1      20.008   7.432  13.364  1.00  0.00     0.232 C
HETATM    8  N1  UNL     1      19.939   5.981  13.186  1.00  0.00    -0.074 N
ATOM      9  H11 UNL     1      20.863   5.550  13.198  1.00  0.00     0.277 HD
ATOM     10  H12 UNL     1      19.667   5.725  12.237  1.00  0.00     0.277 HD
HETATM   11  C7  UNL     1      19.054   5.397  14.183  1.00  0.00     0.242 C
HETATM   12  C8  UNL     1      16.737   5.697  14.977  1.00  0.00     0.031 C
HETATM   13  C9  UNL     1      15.371   5.140  14.632  1.00  0.00     0.126 C
HETATM   14  N2  UNL     1      15.590   3.689  14.498  1.00  0.00    -0.352 N
ENDROOT
BRANCH  14  15
HETATM   15  C10 UNL     1      14.980   2.713  15.344  1.00  0.00     0.126 C
BRANCH  15  16
HETATM   16  C11 UNL     1      14.597   3.235  16.690  1.00  0.00     0.022 C
BRANCH  16  17
HETATM   17  C12 UNL     1      14.647   2.159  17.764  1.00  0.00     0.028 C
BRANCH  17  18
HETATM   18  C13 UNL     1      14.153   0.833  17.199  1.00  0.00     0.164 C
BRANCH  18  19
HETATM   19  O2  UNL     1      15.097  -0.179  17.361  1.00  0.00    -0.401 OA
ATOM     20  H2  UNL     1      14.686  -1.022  17.516  1.00  0.00     0.209 HD
ENDBRANCH  18  19
ENDBRANCH  17  18
ENDBRANCH  16  17
ENDBRANCH  15  16
ENDBRANCH  14  15
TORSDOF 5
ENDMDL