MODEL 1
REMARK VINA RESULT: -6.346425394      0.000      0.000
REMARK  6 active torsions:
REMARK  status: ('A' for Active; 'I' for Inactive)
REMARK    1  A    between atoms: N1_2  and  C2_4
REMARK    2  A    between atoms: C3_7  and  N3_8
REMARK    3  A    between atoms: N3_8  and  C4_10
REMARK    4  A    between atoms: C4_10  and  C5_11
REMARK    5  A    between atoms: C5_11  and  C6_12
REMARK    6  A    between atoms: C6_12  and  O1_13
ROOT
HETATM    1  C2  UNL     1      15.279   3.387  15.113  1.00  0.00     0.124 A
HETATM    2  N2  UNL     1      16.031   2.933  14.098  1.00  0.00    -0.176 N
ATOM      3  H2  UNL     1      16.219   3.536  13.298  1.00  0.00     0.186 HD
HETATM    4  C3  UNL     1      16.546   1.666  14.130  1.00  0.00     0.679 A
HETATM    5  N4  UNL     1      16.285   0.886  15.193  1.00  0.00    -0.195 N
ATOM      6  H4  UNL     1      16.672  -0.057  15.210  1.00  0.00     0.184 HD
HETATM    7  C8  UNL     1      15.535   1.293  16.244  1.00  0.00     0.036 A
HETATM    8  C9  UNL     1      15.026   2.569  16.194  1.00  0.00     0.009 A
HETATM    9  C10 UNL     1      14.246   2.790  17.428  1.00  0.00     0.045 C
HETATM   10  C11 UNL     1      14.919   1.864  18.416  1.00  0.00     0.011 C
HETATM   11  C12 UNL     1      15.113   0.629  17.522  1.00  0.00     0.058 C
ENDROOT
BRANCH   4  12
HETATM   12  N3  UNL     1      17.259   1.257  13.150  1.00  0.00    -0.226 N
ATOM     13  H3  UNL     1      18.198   1.638  13.040  1.00  0.00     0.177 HD
BRANCH  12  14
HETATM   14  C4  UNL     1      16.805   0.293  12.204  1.00  0.00     0.140 C
BRANCH  14  15
HETATM   15  C5  UNL     1      16.034   0.923  11.041  1.00  0.00     0.046 C
BRANCH  15  16
HETATM   16  C6  UNL     1      16.738   2.210  10.704  1.00  0.00     0.168 C
BRANCH  16  17
HETATM   17  O1  UNL     1      16.014   3.313  11.057  1.00  0.00    -0.396 OA
HETATM   18  C7  UNL     1      16.734   4.470  10.964  1.00  0.00     0.201 C
ENDBRANCH  16  17
ENDBRANCH  15  16
ENDBRANCH  14  15
ENDBRANCH  12  14
ENDBRANCH   4  12
BRANCH   1  19
HETATM   19  N1  UNL     1      14.779   4.576  15.112  1.00  0.00    -0.380 N
HETATM   20  C1  UNL     1      15.487   5.617  14.405  1.00  0.00     0.147 C
ATOM     21  H1  UNL     1      13.906   4.776  15.599  1.00  0.00     0.160 HD
ENDBRANCH   1  19
TORSDOF 6
ENDMDL