MODEL 2
REMARK VINA RESULT: -6.066983316      1.336      3.815
REMARK  3 active torsions:
REMARK  status: ('A' for Active; 'I' for Inactive)
REMARK    1  A    between atoms: N1_1  and  C1_5
REMARK    2  A    between atoms: C1_5  and  C2_6
REMARK    3  A    between atoms: C10_18  and  C11_19
ROOT
HETATM    1  C2  UNL     1      17.338   2.395  12.085  1.00  0.00     0.017 C
HETATM    2  C3  UNL     1      18.417   3.436  11.847  1.00  0.00     0.007 C
HETATM    3  C4  UNL     1      18.587   4.129  13.223  1.00  0.00     0.012 C
HETATM    4  C5  UNL     1      17.188   4.177  13.622  1.00  0.00    -0.011 C
HETATM    5  C6  UNL     1      16.369   5.140  12.872  1.00  0.00     0.039 C
HETATM    6  C7  UNL     1      16.819   6.537  13.331  1.00  0.00     0.233 C
HETATM    7  N2  UNL     1      17.228   6.545  14.698  1.00  0.00    -0.073 N
ATOM      8  H21 UNL     1      17.166   7.484  15.090  1.00  0.00     0.277 HD
ATOM      9  H22 UNL     1      18.233   6.395  14.777  1.00  0.00     0.277 HD
HETATM   10  C8  UNL     1      16.501   5.598  15.513  1.00  0.00     0.258 C
HETATM   11  C9  UNL     1      16.793   4.180  15.068  1.00  0.00     0.118 C
HETATM   12  N3  UNL     1      15.593   3.458  15.025  1.00  0.00    -0.386 N
HETATM   13  C10 UNL     1      14.736   3.269  16.054  1.00  0.00     0.063 C
HETATM   14  C14 UNL     1      15.452   2.724  13.803  1.00  0.00     0.128 C
HETATM   15  C15 UNL     1      16.836   2.698  13.372  1.00  0.00     0.020 C
ENDROOT
BRANCH   1  16
HETATM   16  C1  UNL     1      16.398   2.240  10.925  1.00  0.00     0.234 C
BRANCH  16  17
HETATM   17  N1  UNL     1      15.995   0.846  10.753  1.00  0.00    -0.079 N
ATOM     18  H13 UNL     1      16.417   0.244  11.460  1.00  0.00     0.274 HD
ATOM     19  H12 UNL     1      15.014   0.707  10.995  1.00  0.00     0.274 HD
ATOM     20  H11 UNL     1      16.199   0.515   9.810  1.00  0.00     0.274 HD
ENDBRANCH  16  17
ENDBRANCH   1  16
BRANCH  13  21
HETATM   21  C11 UNL     1      15.308   2.378  17.132  1.00  0.00     0.024 A
HETATM   22  C12 UNL     1      14.731   2.262  18.470  1.00  0.00     0.010 A
HETATM   23  C13 UNL     1      14.756   1.062  17.466  1.00  0.00     0.010 A
ENDBRANCH  13  21
TORSDOF 3
ENDMDL