MODEL 3
REMARK VINA RESULT: -6.071991357      1.385      2.159
REMARK  4 active torsions:
REMARK  status: ('A' for Active; 'I' for Inactive)
REMARK    1  A    between atoms: C2_2  and  C3_3
REMARK    2  A    between atoms: C3_3  and  C4_4
REMARK    3  A    between atoms: C4_4  and  C6_6
REMARK    4  A    between atoms: C6_6  and  N1_7
ROOT
HETATM    1  N1  UNL     1      16.498   4.940  12.458  1.00  0.00     0.088 N
HETATM    2  C7  UNL     1      17.194   3.704  12.751  1.00  0.00     0.275 C
HETATM    3  C8  UNL     1      16.317   2.894  13.677  1.00  0.00     0.062 C
HETATM    4  C9  UNL     1      16.319   3.535  15.036  1.00  0.00     0.045 C
HETATM    5  C10 UNL     1      16.603   5.024  14.920  1.00  0.00     0.062 C
HETATM    6  C11 UNL     1      16.050   5.610  13.657  1.00  0.00     0.275 C
HETATM    7  C12 UNL     1      17.448   2.986  15.919  1.00  0.00     0.153 C
HETATM    8  N2  UNL     1      17.249   1.559  16.045  1.00  0.00    -0.357 N
ATOM      9  H2  UNL     1      18.030   0.903  16.067  1.00  0.00     0.162 HD
HETATM   10  C13 UNL     1      15.886   1.124  16.136  1.00  0.00     0.234 C
HETATM   11  O1  UNL     1      15.696  -0.123  16.044  1.00  0.00    -0.272 OA
HETATM   12  C14 UNL     1      14.830   2.125  16.326  1.00  0.00     0.218 C
HETATM   13  N3  UNL     1      15.039   3.363  15.636  1.00  0.00    -0.403 N
ATOM     14  H3  UNL     1      14.315   4.079  15.579  1.00  0.00     0.154 HD
ENDROOT
BRANCH   1  15
HETATM   15  C6  UNL     1      17.286   5.808  11.608  1.00  0.00     0.277 C
BRANCH  15  16
HETATM   16  C4  UNL     1      16.810   7.219  11.697  1.00  0.00     0.013 C
HETATM   17  C5  UNL     1      17.936   8.228  11.743  1.00  0.00     0.012 C
BRANCH  16  18
HETATM   18  C3  UNL     1      16.022   7.500  10.411  1.00  0.00     0.032 C
BRANCH  18  19
HETATM   19  C2  UNL     1      14.764   8.202  10.797  1.00  0.00    -0.037 C
HETATM   20  C1  UNL     1      13.874   7.593  11.544  1.00  0.00     0.007 C
ENDBRANCH  18  19
ENDBRANCH  16  18
ENDBRANCH  15  16
ENDBRANCH   1  15
TORSDOF 4
ENDMDL