MODEL 4
REMARK VINA RESULT: -5.944284127      2.455      3.112
REMARK  5 active torsions:
REMARK  status: ('A' for Active; 'I' for Inactive)
REMARK    1  A    between atoms: C1_4  and  C2_5
REMARK    2  A    between atoms: C1_4  and  N4_17
REMARK    3  A    between atoms: C2_5  and  N2_6
REMARK    4  A    between atoms: C6_10  and  N3_11
REMARK    5  A    between atoms: N4_17  and  C12_19
ROOT
HETATM    1  N2  UNL     1      17.071   3.852  13.664  1.00  0.00     0.097 N
HETATM    2  C3  UNL     1      17.552   4.651  14.738  1.00  0.00     0.273 C
HETATM    3  C4  UNL     1      18.395   5.784  14.143  1.00  0.00     0.032 C
HETATM    4  C5  UNL     1      17.444   6.721  13.458  1.00  0.00     0.039 C
HETATM    5  C6  UNL     1      16.391   5.971  12.701  1.00  0.00     0.251 C
HETATM    6  C11 UNL     1      16.850   4.587  12.432  1.00  0.00     0.308 C
ENDROOT
BRANCH   1   7
HETATM    7  C2  UNL     1      15.930   3.108  14.080  1.00  0.00     0.347 C
BRANCH   7   8
HETATM    8  C1  UNL     1      16.347   1.838  14.700  1.00  0.00     0.099 C
HETATM    9  N1  UNL     1      16.836   0.895  13.986  1.00  0.00    -0.388 N
ATOM     10  H12 UNL     1      16.940   1.087  12.989  1.00  0.00     0.157 HD
ATOM     11  H11 UNL     1      17.125   0.015  14.415  1.00  0.00     0.157 HD
BRANCH   8  12
HETATM   12  N4  UNL     1      16.201   1.569  16.093  1.00  0.00    -0.374 N
ATOM     13  H4  UNL     1      16.880   0.998  16.595  1.00  0.00     0.161 HD
BRANCH  12  14
HETATM   14  C12 UNL     1      15.051   2.139  16.767  1.00  0.00     0.083 A
HETATM   15  C13 UNL     1      13.979   1.220  17.218  1.00  0.00     0.027 A
HETATM   16  C14 UNL     1      14.815   1.934  18.214  1.00  0.00     0.027 A
ENDBRANCH  12  14
ENDBRANCH   8  12
ENDBRANCH   7   8
ENDBRANCH   1   7
BRANCH   5  17
HETATM   17  N3  UNL     1      15.990   6.743  11.583  1.00  0.00     0.094 N
HETATM   18  C7  UNL     1      14.647   7.235  11.615  1.00  0.00     0.273 C
HETATM   19  C8  UNL     1      14.672   8.315  10.523  1.00  0.00     0.032 C
HETATM   20  C9  UNL     1      16.026   8.966  10.708  1.00  0.00     0.032 C
HETATM   21  C10 UNL     1      16.855   7.816  11.215  1.00  0.00     0.273 C
ENDBRANCH   5  17
TORSDOF 5
ENDMDL