MODEL 2
REMARK VINA RESULT: -5.454069545      0.956      1.005
REMARK  4 active torsions:
REMARK  status: ('A' for Active; 'I' for Inactive)
REMARK       I    between atoms: C2_4  and  N2_5
REMARK       I    between atoms: C2_4  and  N3_8
REMARK    1  A    between atoms: C6_11  and  N4_12
REMARK    2  A    between atoms: N4_12  and  C8_14
REMARK    3  A    between atoms: C8_14  and  C9_15
REMARK    4  A    between atoms: C9_15  and  O1_16
ROOT
HETATM    1  C1  UNL     1      22.233   6.954  11.920  1.00  0.00     0.165 C
HETATM    2  N1  UNL     1      20.997   6.380  12.327  1.00  0.00    -0.231 N
ATOM      3  H1  UNL     1      20.337   7.025  12.760  1.00  0.00     0.177 HD
HETATM    4  C2  UNL     1      20.600   5.185  12.227  1.00  0.00     0.671 C
HETATM    5  N2  UNL     1      21.422   4.190  11.645  1.00  0.00    -0.231 N
ATOM      6  H2  UNL     1      21.688   3.391  12.220  1.00  0.00     0.177 HD
HETATM    7  C3  UNL     1      21.901   4.241  10.296  1.00  0.00     0.165 C
HETATM    8  N3  UNL     1      19.312   4.757  12.705  1.00  0.00    -0.218 N
HETATM    9  C4  UNL     1      19.040   4.942  14.094  1.00  0.00     0.143 C
HETATM   10  C5  UNL     1      17.667   4.623  14.538  1.00  0.00     0.045 C
HETATM   11  C6  UNL     1      16.834   3.773  13.644  1.00  0.00     0.086 C
HETATM   12  C11 UNL     1      17.628   3.079  12.577  1.00  0.00     0.045 C
HETATM   13  C12 UNL     1      18.376   4.172  11.796  1.00  0.00     0.143 C
ENDROOT
BRANCH  11  14
HETATM   14  N4  UNL     1      16.055   2.916  14.448  1.00  0.00    -0.391 N
HETATM   15  C7  UNL     1      14.956   3.437  15.152  1.00  0.00     0.149 C
BRANCH  14  16
HETATM   16  C8  UNL     1      16.313   1.539  14.470  1.00  0.00     0.084 C
BRANCH  16  17
HETATM   17  C9  UNL     1      16.549   1.104  15.915  1.00  0.00     0.211 C
BRANCH  17  18
HETATM   18  O1  UNL     1      15.651   0.093  16.226  1.00  0.00    -0.391 OA
HETATM   19  C10 UNL     1      14.983   0.430  17.415  1.00  0.00     0.201 C
ENDBRANCH  17  18
ENDBRANCH  16  17
ENDBRANCH  14  16
ENDBRANCH  11  14
TORSDOF 4
ENDMDL