MODEL 5
REMARK VINA RESULT: -7.469765489      1.519      1.741
REMARK  6 active torsions:
REMARK  status: ('A' for Active; 'I' for Inactive)
REMARK    1  A    between atoms: C4_7  and  N1_8
REMARK    2  A    between atoms: N1_8  and  C5_10
REMARK    3  A    between atoms: N2_11  and  N3_13
REMARK    4  A    between atoms: N3_13  and  C6_15
REMARK    5  A    between atoms: C6_15  and  C7_16
REMARK    6  A    between atoms: C7_16  and  N4_17
ROOT
HETATM    1  C5  UNL     1      17.442   3.122  12.984  1.00  0.00     0.197 C
HETATM    2  N2  UNL     1      17.613   3.530  11.786  1.00  0.00    -0.295 N
ATOM      3  H2  UNL     1      16.842   3.493  11.119  1.00  0.00     0.187 HD
ENDROOT
BRANCH   2   4
HETATM    4  N3  UNL     1      18.851   4.026  11.393  1.00  0.00    -0.286 N
ATOM      5  H3  UNL     1      19.610   3.376  11.192  1.00  0.00     0.188 HD
BRANCH   4   6
HETATM    6  C6  UNL     1      19.074   5.413  11.268  1.00  0.00     0.135 C
HETATM    7  N5  UNL     1      18.849   5.942  10.113  1.00  0.00    -0.285 N
HETATM    8 CL1  UNL     1      18.296   5.021   8.757  1.00  0.00     0.012 Cl
ATOM      9  H5  UNL     1      19.003   6.943   9.995  1.00  0.00     0.181 HD
BRANCH   6  10
HETATM   10  C7  UNL     1      19.560   6.170  12.427  1.00  0.00     0.351 C
BRANCH  10  11
HETATM   11  N4  UNL     1      18.746   7.321  12.772  1.00  0.00     0.098 N
HETATM   12  C8  UNL     1      19.398   8.073  13.833  1.00  0.00     0.276 C
HETATM   13  C9  UNL     1      18.414   8.149  14.981  1.00  0.00     0.069 C
HETATM   14  C10 UNL     1      17.715   6.796  14.785  1.00  0.00     0.200 C
HETATM   15  F4  UNL     1      16.559   6.693  15.492  1.00  0.00    -0.248 F
HETATM   16  C11 UNL     1      17.486   6.856  13.270  1.00  0.00     0.309 C
ENDBRANCH  10  11
ENDBRANCH   6  10
ENDBRANCH   4   6
ENDBRANCH   2   4
BRANCH   1  17
HETATM   17  N1  UNL     1      16.150   2.624  13.331  1.00  0.00    -0.346 N
ATOM     18  H1  UNL     1      15.539   2.297  12.583  1.00  0.00     0.167 HD
BRANCH  17  19
HETATM   19  C4  UNL     1      15.674   2.562  14.669  1.00  0.00     0.117 A
HETATM   20  C3  UNL     1      15.910   1.408  15.404  1.00  0.00     0.188 A
HETATM   21  C2  UNL     1      15.459   1.318  16.706  1.00  0.00     0.199 A
HETATM   22  F3  UNL     1      16.589   0.395  14.799  1.00  0.00    -0.200 F
HETATM   23  C1  UNL     1      14.772   2.337  17.331  1.00  0.00     0.199 A
HETATM   24  F2  UNL     1      15.703   0.185  17.398  1.00  0.00    -0.199 F
HETATM   25  F1  UNL     1      14.330   2.252  18.610  1.00  0.00    -0.199 F
HETATM   26  C13 UNL     1      14.540   3.480  16.596  1.00  0.00     0.199 A
HETATM   27  C12 UNL     1      14.990   3.586  15.280  1.00  0.00     0.188 A
HETATM   28  F6  UNL     1      13.866   4.544  17.137  1.00  0.00    -0.199 F
HETATM   29  F5  UNL     1      14.757   4.713  14.574  1.00  0.00    -0.200 F
ENDBRANCH  17  19
ENDBRANCH   1  17
TORSDOF 6
ENDMDL