MODEL 1
REMARK VINA RESULT: -7.567087793      0.000      0.000
REMARK  7 active torsions:
REMARK  status: ('A' for Active; 'I' for Inactive)
REMARK    1  A    between atoms: C1_2  and  C2_3
REMARK       I    between atoms: C1_2  and  N1_18
REMARK    2  A    between atoms: C2_3  and  C3_4
REMARK    3  A    between atoms: C3_4  and  O2_5
REMARK    4  A    between atoms: C3_4  and  C4_7
REMARK    5  A    between atoms: C13_24  and  C14_25
REMARK    6  A    between atoms: C14_25  and  C15_26
REMARK    7  A    between atoms: C15_26  and  O3_27
ROOT
HETATM    1  C2  UNL     1      17.242   3.928  13.210  1.00  0.00     0.139 C
ENDROOT
BRANCH   1   2
HETATM    2  C1  UNL     1      17.240   4.337  11.755  1.00  0.00     0.223 C
HETATM    3  O1  UNL     1      17.619   3.498  10.931  1.00  0.00    -0.273 OA
HETATM    4  N1  UNL     1      16.825   5.608  11.382  1.00  0.00    -0.334 N
HETATM    5  C10 UNL     1      16.340   6.713  12.244  1.00  0.00     0.199 C
HETATM    6  C13 UNL     1      16.723   6.260  10.081  1.00  0.00     0.154 C
HETATM    7  C11 UNL     1      15.083   7.022  11.464  1.00  0.00     0.148 C
HETATM    8  F6  UNL     1      13.908   7.490  11.929  1.00  0.00    -0.206 F
HETATM    9  C12 UNL     1      15.326   6.744  10.173  1.00  0.00     0.152 C
HETATM   10  F7  UNL     1      14.442   6.894   9.178  1.00  0.00    -0.206 F
BRANCH   6  11
HETATM   11  C14 UNL     1      17.042   5.396   8.928  1.00  0.00     0.058 C
BRANCH  11  12
HETATM   12  C15 UNL     1      18.466   5.519   8.437  1.00  0.00     0.166 C
BRANCH  12  13
HETATM   13  O3  UNL     1      19.099   4.284   8.346  1.00  0.00    -0.401 OA
ATOM     14  H3  UNL     1      19.113   3.953   7.456  1.00  0.00     0.209 HD
ENDBRANCH  12  13
ENDBRANCH  11  12
ENDBRANCH   6  11
ENDBRANCH   1   2
BRANCH   1  15
HETATM   15  C3  UNL     1      16.404   2.729  13.433  1.00  0.00     0.166 C
BRANCH  15  16
HETATM   16  O2  UNL     1      15.484   2.515  12.398  1.00  0.00    -0.390 OA
ATOM     17  H2  UNL     1      14.629   2.254  12.718  1.00  0.00     0.210 HD
ENDBRANCH  15  16
BRANCH  15  18
HETATM   18  C4  UNL     1      15.788   2.626  14.747  1.00  0.00     0.054 A
HETATM   19  C5  UNL     1      15.939   1.411  15.474  1.00  0.00     0.170 A
HETATM   20  F1  UNL     1      16.670   0.429  14.881  1.00  0.00    -0.202 F
HETATM   21  C6  UNL     1      15.389   1.211  16.708  1.00  0.00     0.197 A
HETATM   22  F2  UNL     1      15.578   0.017  17.343  1.00  0.00    -0.199 F
HETATM   23  C7  UNL     1      14.660   2.241  17.256  1.00  0.00     0.199 A
HETATM   24  F3  UNL     1      14.108   2.046  18.491  1.00  0.00    -0.199 F
HETATM   25  C8  UNL     1      14.481   3.438  16.599  1.00  0.00     0.197 A
HETATM   26  F4  UNL     1      13.763   4.451  17.141  1.00  0.00    -0.199 F
HETATM   27  C9  UNL     1      15.060   3.618  15.325  1.00  0.00     0.170 A
HETATM   28  F5  UNL     1      14.825   4.804  14.755  1.00  0.00    -0.202 F
ENDBRANCH  15  18
ENDBRANCH   1  15
TORSDOF 7
ENDMDL