MODEL 1
REMARK VINA RESULT: -6.336852583      0.000      0.000
REMARK  6 active torsions:
REMARK  status: ('A' for Active; 'I' for Inactive)
REMARK    1  A    between atoms: C2_3  and  C3_4
REMARK    2  A    between atoms: C5_9  and  C6_10
REMARK    3  A    between atoms: C6_10  and  C7_11
REMARK    4  A    between atoms: C7_11  and  N3_12
REMARK    5  A    between atoms: N3_12  and  C8_15
REMARK    6  A    between atoms: C8_15  and  C9_16
ROOT
HETATM    1  C3  UNL     1      17.202   4.816  13.393  1.00  0.00     0.294 C
HETATM    2  N2  UNL     1      18.052   4.099  14.381  1.00  0.00    -0.061 N
ATOM      3  H21 UNL     1      18.667   4.739  14.884  1.00  0.00     0.278 HD
ATOM      4  H22 UNL     1      18.764   3.529  13.925  1.00  0.00     0.278 HD
HETATM    5  C4  UNL     1      17.249   3.329  15.270  1.00  0.00     0.238 C
HETATM    6  C5  UNL     1      16.291   2.467  14.478  1.00  0.00     0.020 C
HETATM    7  C10 UNL     1      16.655   2.394  13.015  1.00  0.00     0.087 C
HETATM    8  C11 UNL     1      16.754   3.788  12.484  1.00  0.00     0.160 C
HETATM    9  O1  UNL     1      16.457   3.973  11.345  1.00  0.00    -0.296 OA
ENDROOT
BRANCH   1  10
HETATM   10  C2  UNL     1      17.973   5.966  12.930  1.00  0.00     0.346 C
HETATM   11  N1  UNL     1      17.748   7.251  13.469  1.00  0.00     0.176 N
HETATM   12  C1  UNL     1      18.117   7.543  14.793  1.00  0.00     0.319 C
HETATM   13  C14 UNL     1      18.526   8.061  12.504  1.00  0.00     0.512 C
HETATM   14  C13 UNL     1      19.788   7.231  12.240  1.00  0.00     0.404 C
HETATM   15  F6  UNL     1      18.826   9.288  13.019  1.00  0.00    -0.167 F
HETATM   16  F7  UNL     1      17.731   8.130  11.372  1.00  0.00    -0.167 F
HETATM   17  C12 UNL     1      19.445   5.811  12.713  1.00  0.00     0.349 C
HETATM   18  F4  UNL     1      19.994   7.243  10.878  1.00  0.00    -0.190 F
HETATM   19  F5  UNL     1      20.863   7.737  12.898  1.00  0.00    -0.190 F
HETATM   20  F2  UNL     1      19.747   4.960  11.671  1.00  0.00    -0.197 F
HETATM   21  F3  UNL     1      20.208   5.487  13.769  1.00  0.00    -0.197 F
ENDBRANCH   1  10
BRANCH   6  22
HETATM   22  C6  UNL     1      16.259   1.075  15.046  1.00  0.00     0.034 C
BRANCH  22  23
HETATM   23  C7  UNL     1      16.494   1.055  16.513  1.00  0.00     0.232 C
BRANCH  23  24
HETATM   24  N3  UNL     1      15.439   0.329  17.213  1.00  0.00    -0.073 N
ATOM     25  H32 UNL     1      15.295  -0.606  16.831  1.00  0.00     0.277 HD
ATOM     26  H31 UNL     1      15.717   0.058  18.156  1.00  0.00     0.277 HD
BRANCH  24  27
HETATM   27  C8  UNL     1      14.242   1.109  17.203  1.00  0.00     0.263 C
BRANCH  27  28
HETATM   28  C9  UNL     1      14.545   2.380  17.994  1.00  0.00     0.249 C
HETATM   29  F1  UNL     1      14.224   3.462  17.216  1.00  0.00    -0.254 F
ENDBRANCH  27  28
ENDBRANCH  24  27
ENDBRANCH  23  24
ENDBRANCH  22  23
ENDBRANCH   6  22
TORSDOF 6
ENDMDL