MODEL 5
REMARK VINA RESULT: -7.883468332      1.145      1.263
REMARK  7 active torsions:
REMARK  status: ('A' for Active; 'I' for Inactive)
REMARK    1  A    between atoms: O1_1  and  C1_3
REMARK    2  A    between atoms: C1_3  and  C2_4
REMARK    3  A    between atoms: C1_3  and  C8_17
REMARK    4  A    between atoms: C2_4  and  N1_5
REMARK    5  A    between atoms: N1_5  and  C3_7
REMARK    6  A    between atoms: C8_17  and  O2_18
REMARK    7  A    between atoms: O2_18  and  C9_19
ROOT
HETATM    1  C1  UNL     1      17.062   3.251  11.500  1.00  0.00     0.160 C
ENDROOT
BRANCH   1   2
HETATM    2  O1  UNL     1      16.664   3.052  10.205  1.00  0.00    -0.392 OA
ATOM      3  H1  UNL     1      15.977   2.401  10.119  1.00  0.00     0.210 HD
ENDBRANCH   1   2
BRANCH   1   4
HETATM    4  C2  UNL     1      16.857   4.695  11.984  1.00  0.00     0.153 C
BRANCH   4   5
HETATM    5  N1  UNL     1      17.883   4.986  12.893  1.00  0.00    -0.382 N
ATOM      6  H1  UNL     1      18.022   4.229  13.563  1.00  0.00     0.160 HD
BRANCH   5   7
HETATM    7  C3  UNL     1      18.666   5.926  13.094  1.00  0.00     0.112 A
HETATM    8  C4  UNL     1      19.794   6.208  12.367  1.00  0.00     0.161 A
HETATM    9  F1  UNL     1      20.203   5.472  11.310  1.00  0.00    -0.202 F
HETATM   10  C5  UNL     1      20.587   7.305  12.710  1.00  0.00     0.135 A
HETATM   11  N2  UNL     1      20.281   8.106  13.736  1.00  0.00    -0.337 N
HETATM   12  C6  UNL     1      19.178   7.846  14.462  1.00  0.00     0.229 A
ATOM     13  H2  UNL     1      20.876   8.902  13.966  1.00  0.00     0.167 HD
HETATM   14  F2  UNL     1      18.858   8.649  15.504  1.00  0.00    -0.183 F
HETATM   15  C7  UNL     1      18.361   6.777  14.167  1.00  0.00     0.201 A
HETATM   16  F3  UNL     1      17.259   6.559  14.933  1.00  0.00    -0.199 F
ENDBRANCH   5   7
ENDBRANCH   4   5
ENDBRANCH   1   4
BRANCH   1  17
HETATM   17  C8  UNL     1      16.321   2.278  12.393  1.00  0.00     0.209 C
BRANCH  17  18
HETATM   18  O2  UNL     1      16.820   2.445  13.697  1.00  0.00    -0.343 OA
BRANCH  18  19
HETATM   19  C9  UNL     1      16.103   2.271  14.847  1.00  0.00     0.152 A
HETATM   20  C10 UNL     1      16.133   1.086  15.534  1.00  0.00     0.194 A
HETATM   21  F4  UNL     1      16.861   0.027  15.130  1.00  0.00    -0.200 F
HETATM   22  C11 UNL     1      15.389   0.960  16.694  1.00  0.00     0.199 A
HETATM   23  F5  UNL     1      15.403  -0.193  17.387  1.00  0.00    -0.199 F
HETATM   24  C12 UNL     1      14.611   1.990  17.191  1.00  0.00     0.199 A
HETATM   25  F6  UNL     1      13.904   1.838  18.313  1.00  0.00    -0.199 F
HETATM   26  C13 UNL     1      14.605   3.169  16.471  1.00  0.00     0.199 A
HETATM   27  F7  UNL     1      13.844   4.180  16.953  1.00  0.00    -0.199 F
HETATM   28  C14 UNL     1      15.339   3.322  15.308  1.00  0.00     0.194 A
HETATM   29  F8  UNL     1      15.268   4.519  14.673  1.00  0.00    -0.200 F
ENDBRANCH  18  19
ENDBRANCH  17  18
ENDBRANCH   1  17
TORSDOF 7
ENDMDL