MODEL 3
REMARK VINA RESULT: -7.749377719      2.956      4.136
REMARK  6 active torsions:
REMARK  status: ('A' for Active; 'I' for Inactive)
REMARK    1  A    between atoms: C2_5  and  C3_6
REMARK    2  A    between atoms: C2_5  and  N4_13
REMARK    3  A    between atoms: C3_6  and  N3_7
REMARK       I    between atoms: N3_7  and  C4_8
REMARK    4  A    between atoms: C4_8  and  C5_10
REMARK    5  A    between atoms: N4_13  and  C6_15
REMARK    6  A    between atoms: C6_15  and  C7_16
ROOT
HETATM    1  N1  UNL     1      15.103  -0.227  17.561  1.00  0.00    -0.172 NA
HETATM    2  C1  UNL     1      14.797   0.761  17.068  1.00  0.00     0.183 C
HETATM    3  N2  UNL     1      14.446   1.973  16.481  1.00  0.00    -0.277 N
ATOM      4  H2  UNL     1      13.562   2.419  16.724  1.00  0.00     0.179 HD
HETATM    5  C2  UNL     1      15.226   2.523  15.642  1.00  0.00     0.143 C
ENDROOT
BRANCH   5   6
HETATM    6  C3  UNL     1      16.500   1.880  15.291  1.00  0.00     0.235 C
BRANCH   6   7
HETATM    7  N3  UNL     1      16.679   1.409  14.000  1.00  0.00    -0.377 NA
HETATM    8  C4  UNL     1      16.851   0.952  12.747  1.00  0.00     0.324 C
HETATM    9  O1  UNL     1      17.652   0.051  12.300  1.00  0.00    -0.254 OA
BRANCH   8  10
HETATM   10  C5  UNL     1      16.007   1.527  11.588  1.00  0.00     0.284 C
HETATM   11 CL1  UNL     1      16.813   2.990  11.027  1.00  0.00    -0.097 Cl
HETATM   12 CL2  UNL     1      16.091   0.257  10.337  1.00  0.00    -0.097 Cl
ENDBRANCH   8  10
ENDBRANCH   6   7
ENDBRANCH   5   6
BRANCH   5  13
HETATM   13  N4  UNL     1      14.775   3.783  15.088  1.00  0.00    -0.349 N
ATOM     14  H4  UNL     1      13.874   3.828  14.613  1.00  0.00     0.167 HD
BRANCH  13  15
HETATM   15  C6  UNL     1      15.555   4.941  15.195  1.00  0.00     0.107 C
BRANCH  15  16
HETATM   16  C7  UNL     1      16.367   5.415  14.078  1.00  0.00     0.063 A
HETATM   17  C8  UNL     1      17.752   5.109  14.088  1.00  0.00     0.172 A
HETATM   18  F1  UNL     1      18.198   4.369  15.143  1.00  0.00    -0.202 F
HETATM   19  C9  UNL     1      18.604   5.525  13.108  1.00  0.00     0.197 A
HETATM   20  F2  UNL     1      19.915   5.192  13.189  1.00  0.00    -0.199 F
HETATM   21  C10 UNL     1      18.141   6.275  12.047  1.00  0.00     0.199 A
HETATM   22  F3  UNL     1      19.013   6.667  11.101  1.00  0.00    -0.199 F
HETATM   23  C11 UNL     1      16.803   6.578  12.022  1.00  0.00     0.197 A
HETATM   24  F4  UNL     1      16.332   7.318  10.979  1.00  0.00    -0.199 F
HETATM   25  C12 UNL     1      15.916   6.149  13.038  1.00  0.00     0.172 A
HETATM   26  F5  UNL     1      14.624   6.542  12.868  1.00  0.00    -0.202 F
ENDBRANCH  15  16
ENDBRANCH  13  15
ENDBRANCH   5  13
TORSDOF 6
ENDMDL