MODEL 5
REMARK VINA RESULT: -7.318879856      1.523      1.978
REMARK  6 active torsions:
REMARK  status: ('A' for Active; 'I' for Inactive)
REMARK    1  A    between atoms: C1_2  and  C2_7
REMARK    2  A    between atoms: N2_3  and  O1_5
REMARK    3  A    between atoms: N3_9  and  C4_10
REMARK    4  A    between atoms: C4_10  and  C5_11
REMARK    5  A    between atoms: N4_24  and  C13_25
REMARK    6  A    between atoms: C13_25  and  C14_26
ROOT
HETATM    1  C2  UNL     1      16.621   3.394  13.920  1.00  0.00     0.178 C
HETATM    2  C3  UNL     1      18.018   4.040  13.866  1.00  0.00     0.305 C
HETATM    3  N3  UNL     1      17.961   5.404  13.437  1.00  0.00     0.096 N
HETATM    4  C11 UNL     1      16.662   6.017  13.613  1.00  0.00     0.292 C
HETATM    5  C12 UNL     1      16.068   5.520  14.945  1.00  0.00     0.153 C
HETATM    6  N4  UNL     1      15.821   4.154  14.804  1.00  0.00    -0.374 N
ENDROOT
BRANCH   3   7
HETATM    7  C4  UNL     1      18.959   6.238  14.005  1.00  0.00     0.317 C
BRANCH   7   8
HETATM    8  C5  UNL     1      19.256   7.514  13.383  1.00  0.00     0.054 A
HETATM    9  C6  UNL     1      18.994   8.652  14.160  1.00  0.00     0.169 A
HETATM   10  F1  UNL     1      18.545   8.515  15.432  1.00  0.00    -0.202 F
HETATM   11  C7  UNL     1      19.176   9.918  13.692  1.00  0.00     0.197 A
HETATM   12  F2  UNL     1      18.922  11.043  14.435  1.00  0.00    -0.199 F
HETATM   13  C8  UNL     1      19.635  10.130  12.410  1.00  0.00     0.199 A
HETATM   14  F3  UNL     1      19.828  11.399  11.919  1.00  0.00    -0.199 F
HETATM   15  C9  UNL     1      19.900   9.034  11.622  1.00  0.00     0.197 A
HETATM   16  F4  UNL     1      20.353   9.205  10.348  1.00  0.00    -0.199 F
HETATM   17  C10 UNL     1      19.709   7.737  12.112  1.00  0.00     0.169 A
HETATM   18  F5  UNL     1      19.947   6.728  11.237  1.00  0.00    -0.202 F
ENDBRANCH   7   8
ENDBRANCH   3   7
BRANCH   1  19
HETATM   19  C1  UNL     1      16.833   2.022  14.427  1.00  0.00     0.137 C
HETATM   20  N1  UNL     1      16.590   0.914  13.592  1.00  0.00    -0.083 NA
HETATM   21  N2  UNL     1      17.228   1.830  15.628  1.00  0.00    -0.257 N
ATOM     22  H2  UNL     1      17.402   2.635  16.229  1.00  0.00     0.195 HD
BRANCH  21  23
HETATM   23  O1  UNL     1      17.422   0.565  16.128  1.00  0.00    -0.289 OA
ATOM     24  H1  UNL     1      18.159   0.031  15.856  1.00  0.00     0.244 HD
ENDBRANCH  21  23
ENDBRANCH   1  19
BRANCH   6  25
HETATM   25  C13 UNL     1      14.561   3.642  15.156  1.00  0.00     0.129 C
BRANCH  25  26
HETATM   26  C14 UNL     1      14.371   3.341  16.619  1.00  0.00     0.391 C
HETATM   27  F6  UNL     1      13.734   4.432  17.179  1.00  0.00    -0.208 F
HETATM   28  F7  UNL     1      13.555   2.249  16.813  1.00  0.00    -0.208 F
ENDBRANCH  25  26
ENDBRANCH   6  25
TORSDOF 6
ENDMDL