MODEL 2
REMARK VINA RESULT: -6.552342920      1.982      2.733
REMARK  7 active torsions:
REMARK  status: ('A' for Active; 'I' for Inactive)
REMARK    1  A    between atoms: O1_2  and  C2_3
REMARK    2  A    between atoms: C3_4  and  C4_5
REMARK    3  A    between atoms: C5_8  and  N2_9
REMARK    4  A    between atoms: C6_13  and  C7_14
REMARK    5  A    between atoms: C7_14  and  C8_15
REMARK    6  A    between atoms: C8_15  and  C9_16
REMARK    7  A    between atoms: C9_16  and  C10_17
ROOT
HETATM    1  C4  UNL     1      17.133   2.905  13.305  1.00  0.00     0.062 A
HETATM    2  N1  UNL     1      17.330   1.851  12.524  1.00  0.00    -0.335 N
ATOM      3  H1  UNL     1      17.739   1.975  11.598  1.00  0.00     0.168 HD
HETATM    4  C5  UNL     1      17.000   0.645  12.940  1.00  0.00     0.143 A
HETATM    5  S1  UNL     1      16.383   0.932  14.478  1.00  0.00    -0.053 SA
HETATM    6  C6  UNL     1      16.585   2.676  14.523  1.00  0.00     0.032 A
ENDROOT
BRANCH   1   7
HETATM    7  C3  UNL     1      17.475   4.139  12.866  1.00  0.00     0.060 C
HETATM    8  C2  UNL     1      18.911   4.654  12.984  1.00  0.00     0.237 C
HETATM    9  C13 UNL     1      18.691   6.174  13.052  1.00  0.00     0.344 C
HETATM   10  C12 UNL     1      17.638   6.378  11.991  1.00  0.00     0.379 C
HETATM   11  F5  UNL     1      19.826   6.866  12.705  1.00  0.00    -0.196 F
HETATM   12  F6  UNL     1      18.262   6.528  14.310  1.00  0.00    -0.196 F
HETATM   13  C11 UNL     1      16.675   5.179  12.262  1.00  0.00     0.343 C
HETATM   14  F3  UNL     1      16.962   7.533  12.191  1.00  0.00    -0.192 F
HETATM   15  F4  UNL     1      18.208   6.228  10.757  1.00  0.00    -0.192 F
HETATM   16  F1  UNL     1      15.680   5.716  13.069  1.00  0.00    -0.194 F
HETATM   17  F2  UNL     1      16.182   4.921  11.005  1.00  0.00    -0.194 F
BRANCH   8  18
HETATM   18  O1  UNL     1      19.632   4.446  11.838  1.00  0.00    -0.380 OA
HETATM   19  C1  UNL     1      20.717   3.619  11.924  1.00  0.00     0.202 C
ENDBRANCH   8  18
ENDBRANCH   1   7
BRANCH   6  20
HETATM   20  C7  UNL     1      16.207   3.360  15.580  1.00  0.00    -0.005 C
BRANCH  20  21
HETATM   21  C8  UNL     1      14.742   3.789  15.614  1.00  0.00     0.029 C
BRANCH  21  22
HETATM   22  C9  UNL     1      14.267   3.733  17.045  1.00  0.00     0.019 C
BRANCH  22  23
HETATM   23  C10 UNL     1      14.652   2.371  17.633  1.00  0.00     0.115 C
HETATM   24 CL1  UNL     1      13.639   1.069  16.971  1.00  0.00    -0.130 Cl
ENDBRANCH  22  23
ENDBRANCH  21  22
ENDBRANCH  20  21
ENDBRANCH   6  20
BRANCH   4  25
HETATM   25  N2  UNL     1      17.114  -0.510  12.326  1.00  0.00    -0.380 N
ATOM     26  H22 UNL     1      17.681  -0.725  11.505  1.00  0.00     0.158 HD
ATOM     27  H21 UNL     1      16.671  -1.404  12.538  1.00  0.00     0.158 HD
ENDBRANCH   4  25
TORSDOF 7
ENDMDL