MODEL 2
REMARK VINA RESULT: -7.867080253      0.093      2.066
REMARK  7 active torsions:
REMARK  status: ('A' for Active; 'I' for Inactive)
REMARK    1  A    between atoms: C2_4  and  C3_5
REMARK    2  A    between atoms: C2_4  and  N4_19
REMARK    3  A    between atoms: C3_5  and  N2_6
REMARK    4  A    between atoms: N2_6  and  C4_7
REMARK    5  A    between atoms: N2_6  and  C7_10
REMARK    6  A    between atoms: C8_11  and  N3_12
REMARK    7  A    between atoms: N4_19  and  C10_21
ROOT
HETATM    1  C1  UNL     1      16.140   0.830  11.275  1.00  0.00     0.120 C
HETATM    2  N1  UNL     1      16.485   2.100  11.653  1.00  0.00    -0.361 N
ATOM      3  H1  UNL     1      16.403   2.660  10.805  1.00  0.00     0.165 HD
HETATM    4  C2  UNL     1      16.839   2.875  12.509  1.00  0.00     0.120 C
ENDROOT
BRANCH   4   5
HETATM    5  C3  UNL     1      17.039   4.324  12.111  1.00  0.00     0.135 C
BRANCH   5   6
HETATM    6  N2  UNL     1      18.339   4.752  11.939  1.00  0.00    -0.369 N
BRANCH   6   7
HETATM    7  C4  UNL     1      18.858   4.509  10.631  1.00  0.00     0.084 A
HETATM    8  C5  UNL     1      19.247   5.522   9.656  1.00  0.00     0.027 A
HETATM    9  C6  UNL     1      18.019   4.702   9.451  1.00  0.00     0.027 A
ENDBRANCH   6   7
BRANCH   6  10
HETATM   10  C7  UNL     1      18.925   5.777  12.691  1.00  0.00     0.195 A
HETATM   11  C8  UNL     1      19.922   5.479  13.819  1.00  0.00     0.286 A
HETATM   12  C9  UNL     1      18.607   6.168  14.067  1.00  0.00     0.295 A
HETATM   13  F1  UNL     1      18.734   7.513  14.445  1.00  0.00    -0.202 F
HETATM   14  F2  UNL     1      17.746   5.498  14.890  1.00  0.00    -0.202 F
BRANCH  11  15
HETATM   15  N3  UNL     1      20.071   4.148  14.344  1.00  0.00    -0.067 N
ATOM     16  H33 UNL     1      19.871   4.178  15.343  1.00  0.00     0.275 HD
ATOM     17  H32 UNL     1      19.299   3.580  13.992  1.00  0.00     0.275 HD
ATOM     18  H31 UNL     1      20.936   3.624  14.209  1.00  0.00     0.275 HD
ENDBRANCH  11  15
ENDBRANCH   6  10
ENDBRANCH   5   6
ENDBRANCH   4   5
BRANCH   4  19
HETATM   19  N4  UNL     1      17.100   2.565  13.855  1.00  0.00    -0.336 N
ATOM     20  H4  UNL     1      18.092   2.521  14.092  1.00  0.00     0.168 HD
BRANCH  19  21
HETATM   21  C10 UNL     1      16.243   2.306  14.923  1.00  0.00     0.118 A
HETATM   22  C11 UNL     1      15.388   3.281  15.383  1.00  0.00     0.188 A
HETATM   23  F3  UNL     1      15.373   4.486  14.816  1.00  0.00    -0.200 F
HETATM   24  C12 UNL     1      14.522   3.096  16.451  1.00  0.00     0.199 A
HETATM   25  F4  UNL     1      13.691   4.074  16.884  1.00  0.00    -0.199 F
HETATM   26  C13 UNL     1      14.495   1.889  17.106  1.00  0.00     0.199 A
HETATM   27  F5  UNL     1      13.635   1.722  18.158  1.00  0.00    -0.199 F
HETATM   28  C14 UNL     1      15.331   0.892  16.681  1.00  0.00     0.199 A
HETATM   29  F6  UNL     1      15.312  -0.299  17.318  1.00  0.00    -0.199 F
HETATM   30  C15 UNL     1      16.199   1.104  15.596  1.00  0.00     0.188 A
HETATM   31  F7  UNL     1      17.016   0.065  15.274  1.00  0.00    -0.200 F
ENDBRANCH  19  21
ENDBRANCH   4  19
TORSDOF 7
ENDMDL