MODEL 1
REMARK VINA RESULT: -8.332129899      0.000      0.000
REMARK  6 active torsions:
REMARK  status: ('A' for Active; 'I' for Inactive)
REMARK    1  A    between atoms: C3_6  and  C4_7
REMARK    2  A    between atoms: C4_7  and  N2_8
REMARK    3  A    between atoms: N2_8  and  C5_9
REMARK    4  A    between atoms: N2_8  and  C12_21
REMARK    5  A    between atoms: C5_9  and  C6_10
REMARK    6  A    between atoms: C12_21  and  C13_22
ROOT
HETATM    1  N2  UNL     1      15.256   3.656  15.429  1.00  0.00    -0.282 NA
ENDROOT
BRANCH   1   2
HETATM    2  C4  UNL     1      16.388   2.806  15.464  1.00  0.00     0.140 C
BRANCH   2   3
HETATM    3  C3  UNL     1      16.521   1.857  14.372  1.00  0.00     0.039 A
HETATM    4  C2  UNL     1      16.335   2.060  13.030  1.00  0.00     0.106 A
HETATM    5  N1  UNL     1      16.519   1.117  12.092  1.00  0.00    -0.318 N
HETATM    6  C1  UNL     1      16.904  -0.102  12.437  1.00  0.00     0.326 A
ATOM      7  H1  UNL     1      16.361   1.340  11.108  1.00  0.00     0.170 HD
HETATM    8  O1  UNL     1      17.061  -0.948  11.522  1.00  0.00    -0.247 OA
HETATM    9  N3  UNL     1      17.107  -0.375  13.743  1.00  0.00    -0.275 N
HETATM   10  C14 UNL     1      16.929   0.551  14.699  1.00  0.00     0.258 A
ATOM     11  H3  UNL     1      17.403  -1.313  14.012  1.00  0.00     0.173 HD
HETATM   12  O2  UNL     1      17.132   0.237  15.889  1.00  0.00    -0.267 OA
ENDBRANCH   2   3
ENDBRANCH   1   2
BRANCH   1  13
HETATM   13  C5  UNL     1      15.589   5.052  15.431  1.00  0.00     0.078 C
BRANCH  13  14
HETATM   14  C6  UNL     1      16.210   5.639  14.266  1.00  0.00     0.058 A
HETATM   15  C7  UNL     1      15.295   6.176  13.336  1.00  0.00     0.172 A
HETATM   16  F1  UNL     1      13.962   6.167  13.577  1.00  0.00    -0.202 F
HETATM   17  C8  UNL     1      15.695   6.732  12.147  1.00  0.00     0.197 A
HETATM   18  F2  UNL     1      14.789   7.250  11.254  1.00  0.00    -0.199 F
HETATM   19  C9  UNL     1      17.024   6.787  11.813  1.00  0.00     0.199 A
HETATM   20  F3  UNL     1      17.444   7.340  10.627  1.00  0.00    -0.199 F
HETATM   21  C10 UNL     1      17.920   6.272  12.701  1.00  0.00     0.197 A
HETATM   22  F4  UNL     1      19.249   6.294  12.426  1.00  0.00    -0.199 F
HETATM   23  C11 UNL     1      17.516   5.706  13.909  1.00  0.00     0.172 A
HETATM   24  F5  UNL     1      18.465   5.159  14.717  1.00  0.00    -0.202 F
ENDBRANCH  13  14
ENDBRANCH   1  13
BRANCH   1  25
HETATM   25  C12 UNL     1      14.342   3.500  16.534  1.00  0.00     0.166 C
BRANCH  25  26
HETATM   26  C13 UNL     1      14.539   2.336  17.427  1.00  0.00     0.366 C
HETATM   27  F6  UNL     1      13.553   1.402  17.473  1.00  0.00    -0.213 F
HETATM   28  F7  UNL     1      14.689   2.799  18.748  1.00  0.00    -0.213 F
ENDBRANCH  25  26
ENDBRANCH   1  25
TORSDOF 6
ENDMDL