MODEL 1
REMARK VINA RESULT: -5.552100024      0.000      0.000
REMARK  7 active torsions:
REMARK  status: ('A' for Active; 'I' for Inactive)
REMARK    1  A    between atoms: O1_2  and  C2_3
REMARK    2  A    between atoms: N1_8  and  C8_10
REMARK    3  A    between atoms: C8_10  and  C9_11
REMARK    4  A    between atoms: C9_11  and  C10_12
REMARK    5  A    between atoms: C10_12  and  C11_13
REMARK    6  A    between atoms: C11_13  and  O2_14
REMARK    7  A    between atoms: C13_17  and  O3_18
ROOT
HETATM    1  C2  UNL     1      20.039   4.202  12.460  1.00  0.00     0.060 C
HETATM    2  C3  UNL     1      21.022   3.246  11.838  1.00  0.00     0.046 C
HETATM    3  C4  UNL     1      19.879   3.917  13.964  1.00  0.00     0.047 C
HETATM    4  C5  UNL     1      18.485   4.267  14.139  1.00  0.00     0.051 C
HETATM    5  C6  UNL     1      17.656   3.764  15.206  1.00  0.00     0.244 C
HETATM    6  N1  UNL     1      16.309   3.708  14.614  1.00  0.00    -0.068 N
HETATM    7  C7  UNL     1      15.543   4.821  15.121  1.00  0.00     0.272 C
HETATM    8  C12 UNL     1      16.480   3.938  13.168  1.00  0.00     0.275 C
HETATM    9  C13 UNL     1      17.867   3.498  12.948  1.00  0.00     0.090 C
HETATM   10  C14 UNL     1      18.654   4.104  11.851  1.00  0.00     0.077 C
ENDROOT
BRANCH   6  11
HETATM   11  C8  UNL     1      15.685   2.445  14.780  1.00  0.00     0.237 C
BRANCH  11  12
HETATM   12  C9  UNL     1      15.066   2.224  16.131  1.00  0.00     0.030 C
BRANCH  12  13
HETATM   13  C10 UNL     1      15.626   0.950  16.735  1.00  0.00     0.028 C
BRANCH  13  14
HETATM   14  C11 UNL     1      16.502   0.218  15.738  1.00  0.00     0.164 C
BRANCH  14  15
HETATM   15  O2  UNL     1      17.733   0.004  16.324  1.00  0.00    -0.401 OA
ATOM     16  H2  UNL     1      17.941  -0.920  16.246  1.00  0.00     0.209 HD
ENDBRANCH  14  15
ENDBRANCH  13  14
ENDBRANCH  12  13
ENDBRANCH  11  12
ENDBRANCH   6  11
BRANCH   9  17
HETATM   17  O3  UNL     1      18.007   2.150  13.078  1.00  0.00    -0.388 OA
ATOM     18  H3  UNL     1      17.761   1.686  12.287  1.00  0.00     0.210 HD
ENDBRANCH   9  17
BRANCH   1  19
HETATM   19  O1  UNL     1      20.453   5.523  12.355  1.00  0.00    -0.385 OA
HETATM   20  C1  UNL     1      21.733   5.672  11.880  1.00  0.00     0.202 C
ENDBRANCH   1  19
TORSDOF 7
ENDMDL