MODEL 1
REMARK VINA RESULT: -6.310699371      0.000      0.000
REMARK  6 active torsions:
REMARK  status: ('A' for Active; 'I' for Inactive)
REMARK    1  A    between atoms: N1_1  and  C1_5
REMARK    2  A    between atoms: N2_7  and  C3_8
REMARK    3  A    between atoms: C3_8  and  C4_9
REMARK    4  A    between atoms: C4_9  and  C5_10
REMARK    5  A    between atoms: C5_10  and  N3_11
REMARK    6  A    between atoms: C11_18  and  C12_19
ROOT
HETATM    1  C1  UNL     1      17.077   5.778  13.283  1.00  0.00     0.226 C
HETATM    2  C2  UNL     1      16.423   4.806  14.237  1.00  0.00     0.096 C
HETATM    3  N2  UNL     1      17.202   3.772  14.690  1.00  0.00    -0.372 N
HETATM    4  C9  UNL     1      18.599   3.969  14.881  1.00  0.00     0.127 C
HETATM    5  C10 UNL     1      19.240   4.787  13.799  1.00  0.00     0.027 C
HETATM    6  C11 UNL     1      18.513   6.075  13.621  1.00  0.00     0.027 C
ENDROOT
BRANCH   3   7
HETATM    7  C3  UNL     1      16.744   2.458  14.843  1.00  0.00     0.064 C
BRANCH   7   8
HETATM    8  C4  UNL     1      17.232   1.728  16.075  1.00  0.00     0.061 C
BRANCH   8   9
HETATM    9  C5  UNL     1      16.578   0.343  15.997  1.00  0.00     0.126 C
BRANCH   9  10
HETATM   10  N3  UNL     1      15.932  -0.035  17.204  1.00  0.00    -0.197 NA
HETATM   11  C6  UNL     1      15.711   1.044  18.136  1.00  0.00     0.123 C
HETATM   12  C7  UNL     1      14.354   1.566  17.716  1.00  0.00     0.045 C
HETATM   13  C8  UNL     1      13.822   0.443  16.858  1.00  0.00     0.195 C
HETATM   14  O1  UNL     1      14.755  -0.601  16.978  1.00  0.00    -0.303 OA
ENDBRANCH   9  10
ENDBRANCH   8   9
ENDBRANCH   7   8
ENDBRANCH   3   7
BRANCH   1  15
HETATM   15  N1  UNL     1      16.952   5.280  11.926  1.00  0.00    -0.070 N
ATOM     16  H13 UNL     1      16.175   4.627  11.825  1.00  0.00     0.275 HD
ATOM     17  H12 UNL     1      16.625   5.998  11.281  1.00  0.00     0.275 HD
ATOM     18  H11 UNL     1      17.840   4.871  11.632  1.00  0.00     0.275 HD
ENDBRANCH   1  15
BRANCH   6  19
HETATM   19  C12 UNL     1      18.629   7.021  14.764  1.00  0.00    -0.008 A
HETATM   20  C13 UNL     1      19.895   7.522  15.310  1.00  0.00     0.005 A
HETATM   21  C14 UNL     1      19.175   8.419  14.364  1.00  0.00     0.005 A
ENDBRANCH   6  19
TORSDOF 6
ENDMDL