MODEL 4
REMARK VINA RESULT: -5.933527470      2.184      3.607
REMARK  5 active torsions:
REMARK  status: ('A' for Active; 'I' for Inactive)
REMARK    1  A    between atoms: C2_2  and  C3_3
REMARK    2  A    between atoms: N1_7  and  C7_8
REMARK    3  A    between atoms: C10_14  and  C11_15
REMARK       I    between atoms: C11_15  and  N3_17
REMARK    4  A    between atoms: N3_17  and  C12_19
REMARK    5  A    between atoms: C12_19  and  C13_20
ROOT
HETATM    1  C7  UNL     1      18.363   4.323  12.777  1.00  0.00     0.264 C
HETATM    2  C8  UNL     1      19.876   4.282  12.752  1.00  0.00     0.269 C
HETATM    3  N2  UNL     1      20.184   3.327  13.792  1.00  0.00    -0.072 N
ATOM      4  H21 UNL     1      21.176   3.192  13.988  1.00  0.00     0.277 HD
ATOM      5  H22 UNL     1      20.009   2.349  13.559  1.00  0.00     0.277 HD
HETATM    6  C9  UNL     1      19.386   3.867  14.903  1.00  0.00     0.248 C
HETATM    7  C10 UNL     1      18.042   4.145  14.217  1.00  0.00     0.138 C
ENDROOT
BRANCH   7   8
HETATM    8  C11 UNL     1      17.187   2.972  14.492  1.00  0.00     0.225 C
HETATM    9  O1  UNL     1      16.251   2.661  13.741  1.00  0.00    -0.273 OA
HETATM   10  N3  UNL     1      17.479   2.199  15.669  1.00  0.00    -0.360 N
ATOM     11  H3  UNL     1      18.253   2.475  16.273  1.00  0.00     0.162 HD
BRANCH  10  12
HETATM   12  C12 UNL     1      16.691   1.039  16.009  1.00  0.00     0.127 C
BRANCH  12  13
HETATM   13  C13 UNL     1      15.742   1.207  17.126  1.00  0.00     0.003 A
HETATM   14  C14 UNL     1      14.376   0.631  17.106  1.00  0.00     0.007 A
HETATM   15  C15 UNL     1      14.577   2.110  17.079  1.00  0.00     0.007 A
ENDBRANCH  12  13
ENDBRANCH  10  12
ENDBRANCH   7   8
BRANCH   1  16
HETATM   16  N1  UNL     1      17.945   5.590  12.236  1.00  0.00     0.103 N
HETATM   17  C3  UNL     1      16.563   5.591  11.812  1.00  0.00     0.245 C
HETATM   18  C4  UNL     1      16.504   4.782  10.526  1.00  0.00     0.041 C
HETATM   19  C5  UNL     1      17.926   4.811  10.033  1.00  0.00     0.033 C
HETATM   20  C6  UNL     1      18.629   5.783  10.971  1.00  0.00     0.274 C
BRANCH  17  21
HETATM   21  C2  UNL     1      16.207   6.994  11.468  1.00  0.00    -0.002 C
HETATM   22  C1  UNL     1      14.948   7.303  11.169  1.00  0.00     0.009 C
ENDBRANCH  17  21
ENDBRANCH   1  16
TORSDOF 5
ENDMDL