MODEL 1
REMARK VINA RESULT: -6.233559873      0.000      0.000
REMARK  5 active torsions:
REMARK  status: ('A' for Active; 'I' for Inactive)
REMARK    1  A    between atoms: C1_2  and  C2_3
REMARK       I    between atoms: C1_2  and  N2_10
REMARK    2  A    between atoms: C2_3  and  N1_4
REMARK    3  A    between atoms: N1_4  and  C3_7
REMARK    4  A    between atoms: N2_10  and  C6_12
REMARK    5  A    between atoms: N3_15  and  C9_16
ROOT
HETATM    1  O1  UNL     1      16.061   1.892  13.320  1.00  0.00    -0.272 OA
HETATM    2  C1  UNL     1      16.725   1.839  14.382  1.00  0.00     0.243 C
HETATM    3  N2  UNL     1      17.692   2.814  14.711  1.00  0.00    -0.355 N
ATOM      4  H2  UNL     1      18.198   2.714  15.591  1.00  0.00     0.162 HD
ENDROOT
BRANCH   3   5
HETATM    5  C6  UNL     1      18.001   3.943  13.871  1.00  0.00     0.087 C
HETATM    6  C7  UNL     1      19.478   4.240  13.770  1.00  0.00     0.055 C
HETATM    7  C8  UNL     1      19.825   5.655  14.110  1.00  0.00     0.275 C
HETATM    8  N3  UNL     1      19.067   6.653  13.403  1.00  0.00     0.093 N
HETATM    9  C13 UNL     1      17.658   6.265  13.280  1.00  0.00     0.275 C
HETATM   10  C14 UNL     1      17.322   5.213  14.343  1.00  0.00     0.055 C
BRANCH   8  11
HETATM   11  C9  UNL     1      19.068   7.863  14.204  1.00  0.00     0.223 C
HETATM   12  C10 UNL     1      19.855   7.801  15.492  1.00  0.00     0.036 C
HETATM   13  C11 UNL     1      20.327   9.227  15.183  1.00  0.00     0.004 C
HETATM   14  C12 UNL     1      20.090   8.901  13.723  1.00  0.00     0.036 C
ENDBRANCH   8  11
ENDBRANCH   3   5
BRANCH   2  15
HETATM   15  C2  UNL     1      16.443   0.679  15.297  1.00  0.00     0.335 C
BRANCH  15  16
HETATM   16  N1  UNL     1      16.666   1.034  16.656  1.00  0.00    -0.063 N
ATOM     17  H12 UNL     1      17.594   0.749  16.974  1.00  0.00     0.278 HD
ATOM     18  H11 UNL     1      16.767   2.042  16.772  1.00  0.00     0.278 HD
BRANCH  16  19
HETATM   19  C3  UNL     1      15.630   0.503  17.500  1.00  0.00     0.186 A
HETATM   20  C4  UNL     1      14.862   1.485  18.330  1.00  0.00     0.035 A
HETATM   21  C5  UNL     1      14.225   0.780  17.106  1.00  0.00     0.035 A
ENDBRANCH  16  19
ENDBRANCH  15  16
ENDBRANCH   2  15
TORSDOF 5
ENDMDL