MODEL 4
REMARK VINA RESULT: -6.397147693      2.121      5.661
REMARK  5 active torsions:
REMARK  status: ('A' for Active; 'I' for Inactive)
REMARK    1  A    between atoms: C3_3  and  C4_4
REMARK    2  A    between atoms: C4_4  and  O1_5
REMARK    3  A    between atoms: C4_4  and  C10_14
REMARK    4  A    between atoms: O1_5  and  C5_6
REMARK    5  A    between atoms: C5_6  and  C6_7
REMARK       I    between atoms: C10_14  and  N2_16
ROOT
HETATM    1  C4  UNL     1      17.039   2.287  13.233  1.00  0.00     0.236 C
ENDROOT
BRANCH   1   2
HETATM    2  C3  UNL     1      17.049   1.061  12.385  1.00  0.00     0.010 C
HETATM    3  C2  UNL     1      17.126  -0.131  12.962  1.00  0.00    -0.032 C
HETATM    4  C1  UNL     1      17.142  -1.398  12.187  1.00  0.00     0.036 C
ENDBRANCH   1   2
BRANCH   1   5
HETATM    5  O1  UNL     1      17.292   1.872  14.534  1.00  0.00    -0.372 OA
BRANCH   5   6
HETATM    6  C5  UNL     1      16.453   2.397  15.475  1.00  0.00     0.175 C
BRANCH   6   7
HETATM    7  C6  UNL     1      15.372   1.481  15.966  1.00  0.00     0.037 C
HETATM    8  C7  UNL     1      14.690   2.184  17.127  1.00  0.00     0.036 C
HETATM    9  C8  UNL     1      15.110   1.294  18.300  1.00  0.00     0.232 C
HETATM   10  N1  UNL     1      15.234  -0.041  17.694  1.00  0.00    -0.075 N
HETATM   11  C9  UNL     1      16.012   0.242  16.529  1.00  0.00     0.239 C
ATOM     12  H12 UNL     1      15.615  -0.762  18.307  1.00  0.00     0.277 HD
ATOM     13  H11 UNL     1      14.351  -0.524  17.521  1.00  0.00     0.277 HD
ENDBRANCH   6   7
ENDBRANCH   5   6
ENDBRANCH   1   5
BRANCH   1  14
HETATM   14  C10 UNL     1      18.134   3.156  12.716  1.00  0.00     0.252 C
HETATM   15  O2  UNL     1      19.273   2.642  12.601  1.00  0.00    -0.270 OA
HETATM   16  N2  UNL     1      17.951   4.509  12.356  1.00  0.00    -0.350 N
HETATM   17  C11 UNL     1      18.971   5.405  11.847  1.00  0.00     0.126 C
HETATM   18  C14 UNL     1      16.710   5.249  12.434  1.00  0.00     0.126 C
HETATM   19  C12 UNL     1      18.476   6.795  12.182  1.00  0.00     0.021 C
HETATM   20  C13 UNL     1      16.987   6.649  11.974  1.00  0.00     0.021 C
ENDBRANCH   1  14
TORSDOF 5
ENDMDL