MODEL 3
REMARK VINA RESULT: -6.202692816      2.053      5.822
REMARK  5 active torsions:
REMARK  status: ('A' for Active; 'I' for Inactive)
REMARK    1  A    between atoms: O1_2  and  C2_3
REMARK    2  A    between atoms: C2_3  and  C3_4
REMARK    3  A    between atoms: C3_4  and  N1_5
REMARK    4  A    between atoms: C3_4  and  C12_19
REMARK       I    between atoms: N1_5  and  C4_7
REMARK    5  A    between atoms: C4_7  and  C5_9
ROOT
HETATM    1  N1  UNL     1      16.931   3.238  13.863  1.00  0.00    -0.352 N
ATOM      2  H1  UNL     1      17.596   2.465  13.889  1.00  0.00     0.163 HD
HETATM    3  C4  UNL     1      15.767   3.145  14.652  1.00  0.00     0.249 C
HETATM    4  O2  UNL     1      14.937   4.101  14.625  1.00  0.00    -0.271 OA
ENDROOT
BRANCH   3   5
HETATM    5  C5  UNL     1      15.492   1.965  15.505  1.00  0.00     0.281 C
HETATM    6  N2  UNL     1      16.702   1.196  15.696  1.00  0.00    -0.062 N
HETATM    7  C6  UNL     1      16.403  -0.045  16.341  1.00  0.00     0.238 C
ATOM      8  H22 UNL     1      17.209   1.058  14.821  1.00  0.00     0.278 HD
ATOM      9  H21 UNL     1      17.414   1.724  16.200  1.00  0.00     0.278 HD
HETATM   10  C7  UNL     1      15.434   0.172  17.501  1.00  0.00     0.012 C
HETATM   11  C8  UNL     1      13.998   0.165  17.027  1.00  0.00     0.007 C
HETATM   12  C11 UNL     1      15.637   1.619  17.953  1.00  0.00     0.013 C
HETATM   13  C9  UNL     1      13.544   1.586  16.939  1.00  0.00     0.007 C
HETATM   14  C10 UNL     1      14.880   2.334  16.825  1.00  0.00     0.026 C
ENDBRANCH   3   5
BRANCH   1  15
HETATM   15  C3  UNL     1      17.234   4.389  13.009  1.00  0.00     0.111 C
BRANCH  15  16
HETATM   16  C2  UNL     1      17.411   3.997  11.586  1.00  0.00     0.192 C
BRANCH  16  17
HETATM   17  O1  UNL     1      16.286   4.254  10.840  1.00  0.00    -0.394 OA
HETATM   18  C1  UNL     1      16.083   5.571  10.499  1.00  0.00     0.201 C
ENDBRANCH  16  17
ENDBRANCH  15  16
BRANCH  15  19
HETATM   19  C12 UNL     1      18.403   5.173  13.563  1.00  0.00     0.002 C
HETATM   20  C13 UNL     1      17.952   6.185  14.592  1.00  0.00     0.011 C
HETATM   21  C14 UNL     1      19.437   4.289  14.205  1.00  0.00     0.011 C
ENDBRANCH  15  19
ENDBRANCH   1  15
TORSDOF 5
ENDMDL