MODEL 1
REMARK VINA RESULT: -6.499626391      0.000      0.000
REMARK  5 active torsions:
REMARK  status: ('A' for Active; 'I' for Inactive)
REMARK    1  A    between atoms: N1_2  and  C2_5
REMARK    2  A    between atoms: C2_5  and  C4_7
REMARK    3  A    between atoms: C4_7  and  C5_8
REMARK    4  A    between atoms: C4_7  and  N3_15
REMARK       I    between atoms: C5_8  and  N2_10
REMARK    5  A    between atoms: N2_10  and  C6_12
ROOT
HETATM    1  C4  UNL     1      17.556   2.341  14.203  1.00  0.00     0.343 C
ENDROOT
BRANCH   1   2
HETATM    2  C2  UNL     1      16.752   1.779  13.074  1.00  0.00     0.224 C
HETATM    3  C3  UNL     1      16.944   2.458  11.756  1.00  0.00     0.043 C
BRANCH   2   4
HETATM    4  N1  UNL     1      16.901   0.365  12.857  1.00  0.00    -0.072 N
HETATM    5  C1  UNL     1      16.427   0.073  11.516  1.00  0.00     0.267 C
ATOM      6  H12 UNL     1      16.440  -0.197  13.572  1.00  0.00     0.277 HD
ATOM      7  H11 UNL     1      17.853   0.037  13.021  1.00  0.00     0.277 HD
ENDBRANCH   2   4
ENDBRANCH   1   2
BRANCH   1   8
HETATM    8  C5  UNL     1      17.100   1.821  15.515  1.00  0.00     0.253 C
HETATM    9  O1  UNL     1      17.902   1.345  16.375  1.00  0.00    -0.271 OA
HETATM   10  N2  UNL     1      15.741   1.810  15.906  1.00  0.00    -0.355 N
ATOM     11  H2  UNL     1      15.041   2.173  15.259  1.00  0.00     0.162 HD
BRANCH  10  12
HETATM   12  C6  UNL     1      15.302   1.295  17.212  1.00  0.00     0.084 A
HETATM   13  C7  UNL     1      13.928   0.627  17.123  1.00  0.00     0.027 A
HETATM   14  C8  UNL     1      15.156  -0.155  17.405  1.00  0.00     0.027 A
ENDBRANCH  10  12
ENDBRANCH   1   8
BRANCH   1  15
HETATM   15  N3  UNL     1      17.730   3.750  14.175  1.00  0.00     0.104 N
HETATM   16  C9  UNL     1      16.874   4.616  14.849  1.00  0.00     0.274 C
HETATM   17  C10 UNL     1      17.586   5.965  15.078  1.00  0.00     0.034 C
HETATM   18  C11 UNL     1      18.469   6.294  13.893  1.00  0.00    -0.015 C
HETATM   19  C12 UNL     1      19.036   7.668  14.115  1.00  0.00     0.010 C
HETATM   20  C13 UNL     1      19.605   5.307  13.889  1.00  0.00     0.034 C
HETATM   21  C14 UNL     1      19.102   4.030  14.522  1.00  0.00     0.274 C
ENDBRANCH   1  15
TORSDOF 5
ENDMDL