MODEL 1
REMARK VINA RESULT: -7.755633113      0.000      0.000
REMARK  9 active torsions:
REMARK  status: ('A' for Active; 'I' for Inactive)
REMARK    1  A    between atoms: C2_2  and  N1_3
REMARK    2  A    between atoms: C3_6  and  N3_7
REMARK    3  A    between atoms: N3_7  and  C4_9
REMARK    4  A    between atoms: C4_9  and  C5_10
REMARK    5  A    between atoms: C5_10  and  C6_11
REMARK    6  A    between atoms: C12_24  and  N5_25
REMARK    7  A    between atoms: N5_25  and  C13_27
REMARK    8  A    between atoms: C13_27  and  C14_28
REMARK    9  A    between atoms: C14_28  and  C15_31
ROOT
HETATM    1  N1  UNL     1      16.724   1.890  13.471  1.00  0.00    -0.109 N
HETATM    2  N2  UNL     1      17.639   2.470  12.672  1.00  0.00    -0.115 N
ATOM      3  H2  UNL     1      18.364   1.979  12.149  1.00  0.00     0.206 HD
HETATM    4  C3  UNL     1      17.444   3.788  12.675  1.00  0.00     0.707 A
HETATM    5  N4  UNL     1      16.405   4.052  13.474  1.00  0.00    -0.020 N
ATOM      6  H4  UNL     1      16.021   4.976  13.672  1.00  0.00     0.203 HD
HETATM    7  C12 UNL     1      15.940   2.852  13.984  1.00  0.00     0.713 A
ENDROOT
BRANCH   4   8
HETATM    8  N3  UNL     1      18.176   4.615  11.992  1.00  0.00    -0.224 N
ATOM      9  H3  UNL     1      18.915   5.112  12.489  1.00  0.00     0.177 HD
BRANCH   8  10
HETATM   10  C4  UNL     1      18.023   4.879  10.597  1.00  0.00     0.143 C
BRANCH  10  11
HETATM   11  C5  UNL     1      17.942   6.396  10.441  1.00  0.00     0.065 C
BRANCH  11  12
HETATM   12  C6  UNL     1      16.523   6.753  10.183  1.00  0.00     0.027 A
HETATM   13  C7  UNL     1      15.646   7.091  11.193  1.00  0.00     0.167 A
HETATM   14  F1  UNL     1      16.113   7.092  12.463  1.00  0.00    -0.202 F
HETATM   15  C8  UNL     1      14.320   7.421  10.918  1.00  0.00     0.197 A
HETATM   16  F2  UNL     1      13.453   7.752  11.899  1.00  0.00    -0.199 F
HETATM   17  C9  UNL     1      13.886   7.407   9.617  1.00  0.00     0.199 A
HETATM   18  F3  UNL     1      12.611   7.720   9.290  1.00  0.00    -0.199 F
HETATM   19  C10 UNL     1      14.739   7.076   8.591  1.00  0.00     0.197 A
HETATM   20  F4  UNL     1      14.280   7.071   7.304  1.00  0.00    -0.199 F
HETATM   21  C11 UNL     1      16.067   6.746   8.884  1.00  0.00     0.167 A
HETATM   22  F5  UNL     1      16.883   6.423   7.846  1.00  0.00    -0.202 F
ENDBRANCH  11  12
ENDBRANCH  10  11
ENDBRANCH   8  10
ENDBRANCH   4   8
BRANCH   1  23
HETATM   23  C2  UNL     1      16.665   0.461  13.706  1.00  0.00     0.164 C
HETATM   24  C1  UNL     1      16.933  -0.350  12.454  1.00  0.00     0.029 C
ENDBRANCH   1  23
BRANCH   7  25
HETATM   25  N5  UNL     1      14.945   2.845  14.762  1.00  0.00    -0.197 N
ATOM     26  H5  UNL     1      14.125   2.374  14.378  1.00  0.00     0.183 HD
BRANCH  25  27
HETATM   27  C13 UNL     1      14.751   3.362  16.059  1.00  0.00     0.162 C
BRANCH  27  28
HETATM   28  C14 UNL     1      15.103   2.310  17.109  1.00  0.00     0.333 C
HETATM   29  F6  UNL     1      16.465   2.082  17.071  1.00  0.00    -0.194 F
HETATM   30  F7  UNL     1      14.759   2.693  18.370  1.00  0.00    -0.194 F
BRANCH  28  31
HETATM   31  C15 UNL     1      14.438   0.974  16.779  1.00  0.00     0.430 C
HETATM   32  F8  UNL     1      14.957   0.065  17.691  1.00  0.00    -0.207 F
HETATM   33  F9  UNL     1      13.084   1.016  16.952  1.00  0.00    -0.207 F
ENDBRANCH  28  31
ENDBRANCH  27  28
ENDBRANCH  25  27
ENDBRANCH   7  25
TORSDOF 9
ENDMDL