MODEL 5
REMARK VINA RESULT: -8.134470761      0.239      1.998
REMARK  7 active torsions:
REMARK  status: ('A' for Active; 'I' for Inactive)
REMARK    1  A    between atoms: C2_5  and  C3_6
REMARK    2  A    between atoms: C3_6  and  C4_9
REMARK    3  A    between atoms: N2_13  and  C6_14
REMARK    4  A    between atoms: C6_14  and  C7_15
REMARK    5  A    between atoms: C13_26  and  C14_27
REMARK    6  A    between atoms: C14_27  and  C15_28
REMARK    7  A    between atoms: C15_28  and  O2_29
ROOT
HETATM    1  O1  UNL     1      19.918   3.587  12.863  1.00  0.00    -0.271 OA
HETATM    2  C1  UNL     1      19.015   4.417  13.092  1.00  0.00     0.245 C
HETATM    3  N1  UNL     1      19.352   5.635  13.717  1.00  0.00    -0.322 N
ATOM      4  H1  UNL     1      20.304   5.791  14.047  1.00  0.00     0.169 HD
HETATM    5  C2  UNL     1      18.366   6.648  13.885  1.00  0.00     0.105 C
HETATM    6  C5  UNL     1      17.014   6.074  14.198  1.00  0.00     0.123 C
HETATM    7  N2  UNL     1      16.807   4.751  13.791  1.00  0.00    -0.350 N
HETATM    8  C13 UNL     1      17.593   4.198  12.749  1.00  0.00     0.183 C
ENDROOT
BRANCH   7   9
HETATM    9  C6  UNL     1      15.559   4.221  14.082  1.00  0.00     0.109 C
BRANCH   9  10
HETATM   10  C7  UNL     1      15.408   3.214  15.139  1.00  0.00     0.063 A
HETATM   11  C8  UNL     1      15.993   1.974  14.875  1.00  0.00     0.172 A
HETATM   12  F5  UNL     1      16.595   1.762  13.692  1.00  0.00    -0.202 F
HETATM   13  C9  UNL     1      15.979   0.947  15.785  1.00  0.00     0.197 A
HETATM   14  F6  UNL     1      16.553  -0.249  15.510  1.00  0.00    -0.199 F
HETATM   15  C10 UNL     1      15.381   1.093  17.016  1.00  0.00     0.199 A
HETATM   16  F7  UNL     1      15.381   0.065  17.896  1.00  0.00    -0.199 F
HETATM   17  C11 UNL     1      14.806   2.307  17.284  1.00  0.00     0.197 A
HETATM   18  F8  UNL     1      14.212   2.473  18.489  1.00  0.00    -0.199 F
HETATM   19  C12 UNL     1      14.813   3.367  16.362  1.00  0.00     0.172 A
HETATM   20  F9  UNL     1      14.266   4.543  16.742  1.00  0.00    -0.202 F
ENDBRANCH   9  10
ENDBRANCH   7   9
BRANCH   8  21
HETATM   21  C14 UNL     1      17.176   4.600  11.383  1.00  0.00     0.061 C
BRANCH  21  22
HETATM   22  C15 UNL     1      16.825   3.490  10.442  1.00  0.00     0.166 C
BRANCH  22  23
HETATM   23  O2  UNL     1      15.748   2.713  10.835  1.00  0.00    -0.401 OA
ATOM     24  H2  UNL     1      15.980   1.877  11.221  1.00  0.00     0.209 HD
ENDBRANCH  22  23
ENDBRANCH  21  22
ENDBRANCH   8  21
BRANCH   5  25
HETATM   25  C3  UNL     1      18.771   7.842  14.669  1.00  0.00     0.344 C
HETATM   26  F1  UNL     1      17.750   8.075  15.615  1.00  0.00    -0.193 F
HETATM   27  F2  UNL     1      19.907   7.510  15.393  1.00  0.00    -0.193 F
BRANCH  25  28
HETATM   28  C4  UNL     1      18.991   9.114  13.951  1.00  0.00     0.431 C
HETATM   29  F3  UNL     1      18.395   9.241  12.724  1.00  0.00    -0.207 F
HETATM   30  F4  UNL     1      18.763  10.238  14.741  1.00  0.00    -0.207 F
ENDBRANCH  25  28
ENDBRANCH   5  25
TORSDOF 7
ENDMDL