MODEL 3
REMARK VINA RESULT: -7.680273073      2.525      3.932
REMARK  8 active torsions:
REMARK  status: ('A' for Active; 'I' for Inactive)
REMARK    1  A    between atoms: C2_2  and  C4_4
REMARK    2  A    between atoms: C4_4  and  N1_5
REMARK    3  A    between atoms: C4_4  and  C14_25
REMARK    4  A    between atoms: N1_5  and  C5_7
REMARK    5  A    between atoms: C5_7  and  C6_8
REMARK    6  A    between atoms: C5_7  and  C7_11
REMARK    7  A    between atoms: C6_8  and  O1_9
REMARK    8  A    between atoms: C14_25  and  C15_27
ROOT
HETATM    1  C5  UNL     1      16.365   6.181   9.573  1.00  0.00     0.150 C
ENDROOT
BRANCH   1   2
HETATM    2  N1  UNL     1      16.198   7.600   9.783  1.00  0.00    -0.404 N
ATOM      3  H1  UNL     1      16.818   8.125  10.400  1.00  0.00     0.154 HD
BRANCH   2   4
HETATM    4  C4  UNL     1      15.110   8.239   9.079  1.00  0.00     0.123 C
BRANCH   4   5
HETATM    5  C2  UNL     1      15.065   9.635   9.630  1.00  0.00     0.003 C
HETATM    6  C1  UNL     1      14.402  10.669   8.798  1.00  0.00     0.011 C
HETATM    7  C3  UNL     1      16.318  10.083  10.339  1.00  0.00     0.011 C
ENDBRANCH   4   5
BRANCH   4   8
HETATM    8  C14 UNL     1      13.936   7.394   9.171  1.00  0.00     0.299 C
HETATM    9  F6  UNL     1      13.227   7.509  10.375  1.00  0.00    -0.238 F
BRANCH   8  10
HETATM   10  C15 UNL     1      12.907   7.397   8.078  1.00  0.00     0.419 C
HETATM   11  F7  UNL     1      13.377   7.895   6.891  1.00  0.00    -0.168 F
HETATM   12  F8  UNL     1      11.662   7.805   8.439  1.00  0.00    -0.168 F
HETATM   13  F9  UNL     1      12.722   6.019   7.793  1.00  0.00    -0.168 F
ENDBRANCH   8  10
ENDBRANCH   4   8
ENDBRANCH   2   4
ENDBRANCH   1   2
BRANCH   1  14
HETATM   14  C6  UNL     1      17.410   5.935   8.523  1.00  0.00     0.192 C
BRANCH  14  15
HETATM   15  O1  UNL     1      17.353   4.721   7.885  1.00  0.00    -0.399 OA
ATOM     16  H1  UNL     1      18.142   4.192   7.919  1.00  0.00     0.209 HD
ENDBRANCH  14  15
ENDBRANCH   1  14
BRANCH   1  17
HETATM   17  C7  UNL     1      16.836   5.688  10.931  1.00  0.00     0.207 C
HETATM   18  F1  UNL     1      18.251   5.786  10.905  1.00  0.00    -0.230 F
HETATM   19  C8  UNL     1      16.385   6.430  12.115  1.00  0.00     0.087 C
HETATM   20  C9  UNL     1      16.755   5.460  13.235  1.00  0.00     0.170 C
HETATM   21  N2  UNL     1      16.606   4.130  12.625  1.00  0.00    -0.332 N
HETATM   22  C12 UNL     1      15.754   5.402  14.333  1.00  0.00     0.329 C
HETATM   23  C10 UNL     1      16.635   3.215  13.737  1.00  0.00     0.212 C
HETATM   24  C13 UNL     1      16.498   4.294  11.219  1.00  0.00     0.263 C
HETATM   25  C11 UNL     1      15.788   3.940  14.764  1.00  0.00     0.325 C
HETATM   26  F2  UNL     1      16.408   3.784  15.986  1.00  0.00    -0.198 F
HETATM   27  F3  UNL     1      14.537   3.367  14.741  1.00  0.00    -0.198 F
HETATM   28  O2  UNL     1      16.170   3.381  10.422  1.00  0.00    -0.270 OA
HETATM   29  F4  UNL     1      14.508   5.802  13.952  1.00  0.00    -0.197 F
HETATM   30  F5  UNL     1      16.174   6.155  15.434  1.00  0.00    -0.197 F
ENDBRANCH   1  17
TORSDOF 8
ENDMDL