MODEL 3
REMARK VINA RESULT: -7.569668926      2.409      3.505
REMARK  8 active torsions:
REMARK  status: ('A' for Active; 'I' for Inactive)
REMARK    1  A    between atoms: N1_4  and  C3_5
REMARK    2  A    between atoms: N1_4  and  C11_20
REMARK    3  A    between atoms: C3_5  and  C4_6
REMARK    4  A    between atoms: C4_6  and  O2_7
REMARK    5  A    between atoms: C4_6  and  C5_9
REMARK    6  A    between atoms: C11_20  and  C12_21
REMARK    7  A    between atoms: C12_21  and  O3_22
REMARK    8  A    between atoms: C12_21  and  C13_24
ROOT
HETATM    1  C3  UNL     1      16.561   5.455  14.585  1.00  0.00     0.313 C
ENDROOT
BRANCH   1   2
HETATM    2  N1  UNL     1      17.175   5.981  13.344  1.00  0.00     0.080 N
HETATM    3  O1  UNL     1      17.406   7.332  13.498  1.00  0.00    -0.159 OA
HETATM    4  C2  UNL     1      18.657   7.103  14.031  1.00  0.00     0.122 C
HETATM    5  C1  UNL     1      19.492   7.780  14.767  1.00  0.00     0.052 C
HETATM    6  C14 UNL     1      18.600   5.771  13.395  1.00  0.00     0.377 C
HETATM    7 CL1  UNL     1      19.136   4.516  14.544  1.00  0.00    -0.084 Cl
BRANCH   2   8
HETATM    8  C11 UNL     1      16.489   5.673  12.138  1.00  0.00     0.317 C
BRANCH   8   9
HETATM    9  C12 UNL     1      16.436   6.808  11.141  1.00  0.00     0.254 C
BRANCH   9  10
HETATM   10  O3  UNL     1      16.771   6.289   9.904  1.00  0.00    -0.385 OA
ATOM     11  H3  UNL     1      16.493   5.380   9.892  1.00  0.00     0.210 HD
ENDBRANCH   9  10
BRANCH   9  12
HETATM   12  C13 UNL     1      15.008   7.308  11.061  1.00  0.00     0.414 C
HETATM   13  F6  UNL     1      14.353   7.012  12.227  1.00  0.00    -0.168 F
HETATM   14  F7  UNL     1      14.957   8.670  10.860  1.00  0.00    -0.168 F
HETATM   15  F8  UNL     1      14.388   6.623  10.034  1.00  0.00    -0.168 F
ENDBRANCH   9  12
ENDBRANCH   8   9
ENDBRANCH   2   8
ENDBRANCH   1   2
BRANCH   1  16
HETATM   16  C4  UNL     1      15.565   4.391  14.259  1.00  0.00     0.186 C
BRANCH  16  17
HETATM   17  O2  UNL     1      14.293   5.023  14.316  1.00  0.00    -0.389 OA
ATOM     18  H2  UNL     1      13.710   4.472  13.809  1.00  0.00     0.210 HD
ENDBRANCH  16  17
BRANCH  16  19
HETATM   19  C5  UNL     1      15.485   3.243  15.162  1.00  0.00     0.056 A
HETATM   20  C6  UNL     1      16.188   2.106  14.705  1.00  0.00     0.170 A
HETATM   21  F1  UNL     1      16.865   2.107  13.531  1.00  0.00    -0.202 F
HETATM   22  C7  UNL     1      16.166   0.987  15.491  1.00  0.00     0.197 A
HETATM   23  F2  UNL     1      16.816  -0.163  15.131  1.00  0.00    -0.199 F
HETATM   24  C8  UNL     1      15.473   0.979  16.698  1.00  0.00     0.199 A
HETATM   25  F3  UNL     1      15.475  -0.141  17.443  1.00  0.00    -0.199 F
HETATM   26  C9  UNL     1      14.799   2.097  17.118  1.00  0.00     0.197 A
HETATM   27  F4  UNL     1      14.116   2.122  18.285  1.00  0.00    -0.199 F
HETATM   28  C10 UNL     1      14.806   3.234  16.343  1.00  0.00     0.170 A
HETATM   29  F5  UNL     1      14.125   4.353  16.781  1.00  0.00    -0.202 F
ENDBRANCH  16  19
ENDBRANCH   1  16
TORSDOF 8
ENDMDL