MODEL 5
REMARK VINA RESULT: -7.538369074      3.196      6.773
REMARK  7 active torsions:
REMARK  status: ('A' for Active; 'I' for Inactive)
REMARK    1  A    between atoms: N1_2  and  C2_3
REMARK    2  A    between atoms: N1_2  and  C7_15
REMARK    3  A    between atoms: C2_3  and  C3_4
REMARK    4  A    between atoms: C3_4  and  C4_7
REMARK    5  A    between atoms: C7_15  and  C8_16
REMARK    6  A    between atoms: C8_16  and  O2_17
REMARK    7  A    between atoms: O2_17  and  C9_18
ROOT
HETATM    1  C7  UNL     1      18.220   3.532  12.253  1.00  0.00     0.128 C
HETATM    2  N4  UNL     1      19.322   3.593  12.786  1.00  0.00    -0.210 N
ATOM      3  H4  UNL     1      19.415   3.129  13.690  1.00  0.00     0.201 HD
HETATM    4  F8  UNL     1      20.423   4.206  12.311  1.00  0.00    -0.100 F
ENDROOT
BRANCH   1   5
HETATM    5  N1  UNL     1      17.103   2.825  12.882  1.00  0.00    -0.366 N
HETATM    6  C1  UNL     1      16.937   1.443  12.583  1.00  0.00     0.151 C
BRANCH   5   7
HETATM    7  C2  UNL     1      16.185   3.572  13.662  1.00  0.00     0.209 C
BRANCH   7   8
HETATM    8  C3  UNL     1      16.305   3.603  15.135  1.00  0.00     0.302 C
HETATM    9  F1  UNL     1      17.691   3.568  15.435  1.00  0.00    -0.197 F
HETATM   10  F2  UNL     1      16.004   4.961  15.508  1.00  0.00    -0.197 F
BRANCH   8  11
HETATM   11  C4  UNL     1      15.567   2.683  15.952  1.00  0.00     0.102 A
HETATM   12  C5  UNL     1      14.370   2.825  16.626  1.00  0.00     0.124 A
HETATM   13  N2  UNL     1      14.058   1.650  17.246  1.00  0.00    -0.317 N
HETATM   14  C6  UNL     1      15.050   0.792  16.955  1.00  0.00     0.324 A
ATOM     15  H2  UNL     1      13.234   1.461  17.816  1.00  0.00     0.170 HD
HETATM   16  O1  UNL     1      15.132  -0.409  17.348  1.00  0.00    -0.247 OA
HETATM   17  N3  UNL     1      15.954   1.401  16.182  1.00  0.00    -0.306 N
ATOM     18  H3  UNL     1      16.805   0.970  15.820  1.00  0.00     0.170 HD
ENDBRANCH   8  11
ENDBRANCH   7   8
ENDBRANCH   5   7
ENDBRANCH   1   5
BRANCH   1  19
HETATM   19  C8  UNL     1      17.904   4.164  10.930  1.00  0.00     0.254 C
BRANCH  19  20
HETATM   20  O2  UNL     1      17.500   5.495  11.122  1.00  0.00    -0.338 OA
BRANCH  20  21
HETATM   21  C9  UNL     1      16.451   6.139  10.529  1.00  0.00     0.153 A
HETATM   22  C10 UNL     1      15.512   6.677  11.434  1.00  0.00     0.194 A
HETATM   23  F3  UNL     1      15.748   6.474  12.756  1.00  0.00    -0.200 F
HETATM   24  C11 UNL     1      14.410   7.353  11.020  1.00  0.00     0.199 A
HETATM   25  F4  UNL     1      13.540   7.845  11.942  1.00  0.00    -0.199 F
HETATM   26  C12 UNL     1      14.177   7.537   9.681  1.00  0.00     0.199 A
HETATM   27  F5  UNL     1      13.068   8.225   9.291  1.00  0.00    -0.199 F
HETATM   28  C13 UNL     1      15.084   7.019   8.756  1.00  0.00     0.199 A
HETATM   29  F6  UNL     1      14.820   7.232   7.452  1.00  0.00    -0.199 F
HETATM   30  C14 UNL     1      16.217   6.320   9.206  1.00  0.00     0.194 A
HETATM   31  F7  UNL     1      17.051   5.839   8.246  1.00  0.00    -0.200 F
ENDBRANCH  20  21
ENDBRANCH  19  20
ENDBRANCH   1  19
TORSDOF 7
ENDMDL