MODEL 3
REMARK VINA RESULT: -7.790478367      2.110      2.686
REMARK  8 active torsions:
REMARK  status: ('A' for Active; 'I' for Inactive)
REMARK    1  A    between atoms: C1_2  and  C2_3
REMARK       I    between atoms: C1_2  and  N2_18
REMARK    2  A    between atoms: C2_3  and  C3_4
REMARK    3  A    between atoms: C3_4  and  C4_5
REMARK    4  A    between atoms: C4_5  and  N1_6
REMARK    5  A    between atoms: C7_11  and  O2_12
REMARK    6  A    between atoms: C7_11  and  C8_14
REMARK    7  A    between atoms: N2_18  and  C10_20
REMARK    8  A    between atoms: C10_20  and  C11_21
ROOT
HETATM    1  O1  UNL     1      16.085   4.021  10.560  1.00  0.00    -0.274 OA
HETATM    2  C1  UNL     1      16.530   4.447  11.635  1.00  0.00     0.218 C
HETATM    3  N2  UNL     1      16.665   3.792  12.839  1.00  0.00    -0.357 N
ATOM      4  H2  UNL     1      17.071   4.412  13.539  1.00  0.00     0.162 HD
ENDROOT
BRANCH   2   5
HETATM    5  C2  UNL     1      17.002   5.884  11.664  1.00  0.00     0.108 C
BRANCH   5   6
HETATM    6  C3  UNL     1      15.957   6.904  11.718  1.00  0.00     0.053 C
BRANCH   6   7
HETATM    7  C4  UNL     1      16.109   7.919  10.609  1.00  0.00     0.059 C
BRANCH   7   8
HETATM    8  N1  UNL     1      15.494   7.657   9.400  1.00  0.00    -0.384 N
HETATM    9  C5  UNL     1      16.012   7.015   8.295  1.00  0.00     0.204 C
HETATM   10  C6  UNL     1      14.894   7.207   7.246  1.00  0.00     0.296 C
HETATM   11  F1  UNL     1      14.921   6.120   6.359  1.00  0.00    -0.201 F
HETATM   12  F2  UNL     1      15.241   8.303   6.553  1.00  0.00    -0.201 F
HETATM   13  C7  UNL     1      13.693   7.220   8.083  1.00  0.00     0.200 C
HETATM   14  C9  UNL     1      14.136   7.166   9.505  1.00  0.00     0.172 C
BRANCH  13  15
HETATM   15  O2  UNL     1      13.016   5.978   7.848  1.00  0.00    -0.377 OA
ATOM     16  H2  UNL     1      12.778   5.633   8.701  1.00  0.00     0.211 HD
ENDBRANCH  13  15
BRANCH  13  17
HETATM   17  C8  UNL     1      12.662   8.257   7.778  1.00  0.00     0.395 C
HETATM   18  F3  UNL     1      11.410   7.798   8.180  1.00  0.00    -0.211 F
HETATM   19  F4  UNL     1      12.848   9.502   8.237  1.00  0.00    -0.211 F
ENDBRANCH  13  17
ENDBRANCH   7   8
ENDBRANCH   6   7
ENDBRANCH   5   6
ENDBRANCH   2   5
BRANCH   3  20
HETATM   20  C10 UNL     1      16.408   2.520  13.394  1.00  0.00     0.167 C
BRANCH  20  21
HETATM   21  C11 UNL     1      15.914   2.472  14.790  1.00  0.00     0.043 A
HETATM   22  C12 UNL     1      15.962   1.268  15.493  1.00  0.00     0.169 A
HETATM   23  F5  UNL     1      16.750   0.282  14.935  1.00  0.00    -0.202 F
HETATM   24  C13 UNL     1      15.336   1.048  16.675  1.00  0.00     0.197 A
HETATM   25  F6  UNL     1      15.442  -0.142  17.328  1.00  0.00    -0.199 F
HETATM   26  C14 UNL     1      14.589   2.073  17.251  1.00  0.00     0.199 A
HETATM   27  F7  UNL     1      13.947   1.896  18.403  1.00  0.00    -0.199 F
HETATM   28  C15 UNL     1      14.529   3.270  16.572  1.00  0.00     0.197 A
HETATM   29  F8  UNL     1      13.788   4.298  17.079  1.00  0.00    -0.199 F
HETATM   30  C16 UNL     1      15.182   3.485  15.352  1.00  0.00     0.169 A
HETATM   31  F9  UNL     1      15.022   4.691  14.733  1.00  0.00    -0.202 F
ENDBRANCH  20  21
ENDBRANCH   3  20
TORSDOF 8
ENDMDL