MODEL 1
REMARK VINA RESULT: -8.022909966      0.000      0.000
REMARK  9 active torsions:
REMARK  status: ('A' for Active; 'I' for Inactive)
REMARK    1  A    between atoms: C1_2  and  C2_3
REMARK    2  A    between atoms: N1_6  and  C4_7
REMARK    3  A    between atoms: C4_7  and  C5_8
REMARK    4  A    between atoms: C5_8  and  C6_9
REMARK    5  A    between atoms: C6_9  and  N2_10
REMARK    6  A    between atoms: N2_10  and  C7_12
REMARK    7  A    between atoms: C9_14  and  C10_15
REMARK    8  A    between atoms: C11_20  and  N4_21
REMARK    9  A    between atoms: C12_23  and  C13_24
ROOT
HETATM    1  C7  UNL     1      16.856   4.472  13.002  1.00  0.00     0.118 A
HETATM    2  C8  UNL     1      17.141   3.238  12.459  1.00  0.00     0.080 A
HETATM    3  C9  UNL     1      16.585   2.130  13.063  1.00  0.00     0.094 A
HETATM    4  N3  UNL     1      15.813   2.292  14.122  1.00  0.00    -0.190 N
ATOM      5  H3  UNL     1      15.418   1.454  14.547  1.00  0.00     0.184 HD
HETATM    6  C11 UNL     1      15.503   3.489  14.693  1.00  0.00     0.684 A
HETATM    7  N5  UNL     1      16.067   4.588  14.078  1.00  0.00    -0.177 N
ATOM      8  H5  UNL     1      15.877   5.517  14.453  1.00  0.00     0.186 HD
ENDROOT
BRANCH   1   9
HETATM    9  N2  UNL     1      17.370   5.530  12.446  1.00  0.00    -0.376 N
ATOM     10  H2  UNL     1      18.258   5.427  11.956  1.00  0.00     0.161 HD
BRANCH   9  11
HETATM   11  C6  UNL     1      16.771   6.828  12.476  1.00  0.00     0.123 C
BRANCH  11  12
HETATM   12  C5  UNL     1      15.801   7.068  11.337  1.00  0.00     0.050 C
BRANCH  12  13
HETATM   13  C4  UNL     1      16.459   6.795   9.992  1.00  0.00     0.274 C
BRANCH  13  14
HETATM   14  N1  UNL     1      15.474   6.765   8.972  1.00  0.00     0.098 N
HETATM   15  C3  UNL     1      14.148   7.126   9.377  1.00  0.00     0.325 C
HETATM   16  C2  UNL     1      13.420   7.218   8.034  1.00  0.00     0.222 C
HETATM   17  F2  UNL     1      12.751   6.008   7.893  1.00  0.00    -0.232 F
HETATM   18  C15 UNL     1      14.494   7.400   7.014  1.00  0.00     0.309 C
HETATM   19  C14 UNL     1      15.711   7.671   7.875  1.00  0.00     0.355 C
HETATM   20  F8  UNL     1      14.247   8.408   6.114  1.00  0.00    -0.201 F
HETATM   21  F9  UNL     1      14.699   6.183   6.396  1.00  0.00    -0.201 F
BRANCH  16  22
HETATM   22  C1  UNL     1      12.409   8.311   8.092  1.00  0.00     0.274 C
HETATM   23  F1  UNL     1      11.124   7.875   7.979  1.00  0.00    -0.252 F
ENDBRANCH  16  22
ENDBRANCH  13  14
ENDBRANCH  12  13
ENDBRANCH  11  12
ENDBRANCH   9  11
ENDBRANCH   1   9
BRANCH   3  24
HETATM   24  C10 UNL     1      16.909   0.809  12.460  1.00  0.00     0.403 C
HETATM   25  F3  UNL     1      16.765  -0.131  13.465  1.00  0.00    -0.207 F
HETATM   26  F4  UNL     1      15.908   0.557  11.521  1.00  0.00    -0.207 F
ENDBRANCH   3  24
BRANCH   6  27
HETATM   27  N4  UNL     1      14.785   3.611  15.670  1.00  0.00    -0.197 N
HETATM   28  C12 UNL     1      14.232   3.322  16.854  1.00  0.00     0.194 C
ATOM     29  H4  UNL     1      14.302   4.480  15.441  1.00  0.00     0.183 HD
BRANCH  28  30
HETATM   30  C13 UNL     1      14.652   2.073  17.622  1.00  0.00     0.422 C
HETATM   31  F5  UNL     1      14.651   2.447  18.987  1.00  0.00    -0.166 F
HETATM   32  F6  UNL     1      15.943   1.695  17.351  1.00  0.00    -0.166 F
HETATM   33  F7  UNL     1      13.740   1.062  17.542  1.00  0.00    -0.166 F
ENDBRANCH  28  30
ENDBRANCH   6  27
TORSDOF 9
ENDMDL