MODEL 4
REMARK VINA RESULT: -7.093932675      1.022      1.353
REMARK  6 active torsions:
REMARK  status: ('A' for Active; 'I' for Inactive)
REMARK    1  A    between atoms: O1_2  and  C2_3
REMARK    2  A    between atoms: C2_3  and  C3_4
REMARK       I    between atoms: C3_4  and  N1_6
REMARK    3  A    between atoms: N1_6  and  C4_8
REMARK    4  A    between atoms: C4_8  and  C5_9
REMARK    5  A    between atoms: C5_9  and  N2_10
REMARK       I    between atoms: N2_10  and  C6_12
REMARK    6  A    between atoms: C6_12  and  C7_14
ROOT
HETATM    1  N2  UNL     1      17.377   2.735  13.591  1.00  0.00    -0.359 N
ATOM      2  H2  UNL     1      17.127   1.745  13.596  1.00  0.00     0.162 HD
HETATM    3  C6  UNL     1      17.005   3.530  14.679  1.00  0.00     0.234 C
HETATM    4  O3  UNL     1      17.342   4.764  14.629  1.00  0.00    -0.273 OA
ENDROOT
BRANCH   3   5
HETATM    5  C7  UNL     1      16.272   3.079  15.856  1.00  0.00     0.235 C
HETATM    6  C8  UNL     1      16.350   1.597  16.130  1.00  0.00     0.332 C
HETATM    7  F1  UNL     1      17.556   1.196  16.626  1.00  0.00    -0.198 F
HETATM    8  F2  UNL     1      15.880   0.824  15.111  1.00  0.00    -0.198 F
HETATM    9  C9  UNL     1      15.327   1.477  17.271  1.00  0.00     0.379 C
HETATM   10  F3  UNL     1      14.991   0.163  17.493  1.00  0.00    -0.192 F
HETATM   11  F4  UNL     1      15.828   2.103  18.393  1.00  0.00    -0.192 F
HETATM   12  C10 UNL     1      14.153   2.274  16.697  1.00  0.00     0.379 C
HETATM   13  F5  UNL     1      13.387   1.401  15.943  1.00  0.00    -0.192 F
HETATM   14  F6  UNL     1      13.410   2.867  17.698  1.00  0.00    -0.192 F
HETATM   15  C11 UNL     1      14.782   3.324  15.795  1.00  0.00     0.332 C
HETATM   16  F7  UNL     1      14.509   4.590  16.320  1.00  0.00    -0.198 F
HETATM   17  F8  UNL     1      14.297   3.290  14.522  1.00  0.00    -0.198 F
ENDBRANCH   3   5
BRANCH   1  18
HETATM   18  C5  UNL     1      18.116   3.275  12.438  1.00  0.00     0.142 C
BRANCH  18  19
HETATM   19  C4  UNL     1      17.135   3.583  11.374  1.00  0.00     0.142 C
BRANCH  19  20
HETATM   20  N1  UNL     1      16.468   4.875  11.503  1.00  0.00    -0.354 N
HETATM   21  C3  UNL     1      16.283   5.735  10.403  1.00  0.00     0.277 C
HETATM   22  O2  UNL     1      16.745   5.294   9.272  1.00  0.00    -0.265 OA
ATOM     23  H1  UNL     1      16.125   5.164  12.419  1.00  0.00     0.162 HD
BRANCH  21  24
HETATM   24  C2  UNL     1      15.663   6.995  10.408  1.00  0.00     0.170 C
HETATM   25  C12 UNL     1      16.143   8.163  10.568  1.00  0.00     0.142 C
HETATM   26 CL1  UNL     1      15.051   9.577  10.516  1.00  0.00    -0.068 Cl
HETATM   27 CL2  UNL     1      17.806   8.543  10.841  1.00  0.00    -0.068 Cl
BRANCH  24  28
HETATM   28  O1  UNL     1      14.240   6.959  10.197  1.00  0.00    -0.349 OA
HETATM   29  C1  UNL     1      13.743   6.910   8.876  1.00  0.00     0.210 C
ENDBRANCH  24  28
ENDBRANCH  21  24
ENDBRANCH  19  20
ENDBRANCH  18  19
ENDBRANCH   1  18
TORSDOF 6
ENDMDL