MODEL 4
REMARK VINA RESULT: -7.196152725      4.008      5.817
REMARK  8 active torsions:
REMARK  status: ('A' for Active; 'I' for Inactive)
REMARK    1  A    between atoms: N1_4  and  C3_5
REMARK    2  A    between atoms: C3_5  and  C4_6
REMARK    3  A    between atoms: C4_6  and  O2_7
REMARK    4  A    between atoms: O2_7  and  C5_8
REMARK    5  A    between atoms: C5_8  and  C6_9
REMARK    6  A    between atoms: C6_9  and  N2_10
REMARK    7  A    between atoms: C6_9  and  C13_23
REMARK    8  A    between atoms: N2_10  and  C7_12
ROOT
HETATM    1  C6  UNL     1      16.689   5.357  13.814  1.00  0.00     0.213 C
ENDROOT
BRANCH   1   2
HETATM    2  C5  UNL     1      16.396   6.345  12.706  1.00  0.00     0.201 C
BRANCH   2   3
HETATM    3  O2  UNL     1      15.231   6.129  12.026  1.00  0.00    -0.387 OA
BRANCH   3   4
HETATM    4  C4  UNL     1      14.398   7.203  11.873  1.00  0.00     0.187 C
BRANCH   4   5
HETATM    5  C3  UNL     1      14.829   7.953  10.630  1.00  0.00     0.143 C
BRANCH   5   6
HETATM    6  N1  UNL     1      14.440   7.337   9.404  1.00  0.00    -0.401 N
HETATM    7  C2  UNL     1      15.462   7.147   8.446  1.00  0.00     0.219 C
HETATM    8  C1  UNL     1      14.826   6.881   7.114  1.00  0.00     0.235 C
HETATM    9  O1  UNL     1      15.129   5.881   6.411  1.00  0.00    -0.272 OA
HETATM   10  N3  UNL     1      13.859   7.819   6.683  1.00  0.00    -0.358 N
HETATM   11  C15 UNL     1      13.169   8.582   7.694  1.00  0.00     0.142 C
ATOM     12  H3  UNL     1      13.657   7.951   5.692  1.00  0.00     0.162 HD
HETATM   13  C14 UNL     1      13.150   7.703   8.931  1.00  0.00     0.137 C
ENDBRANCH   5   6
ENDBRANCH   4   5
ENDBRANCH   3   4
ENDBRANCH   2   3
ENDBRANCH   1   2
BRANCH   1  14
HETATM   14  N2  UNL     1      15.795   4.237  13.782  1.00  0.00    -0.370 N
ATOM     15  H2  UNL     1      15.147   4.198  12.996  1.00  0.00     0.160 HD
BRANCH  14  16
HETATM   16  C7  UNL     1      15.712   3.187  14.713  1.00  0.00     0.113 A
HETATM   17  C8  UNL     1      15.005   3.383  15.897  1.00  0.00     0.187 A
HETATM   18  F1  UNL     1      14.428   4.605  16.151  1.00  0.00    -0.200 F
HETATM   19  C9  UNL     1      14.894   2.357  16.798  1.00  0.00     0.199 A
HETATM   20  F2  UNL     1      14.209   2.510  17.975  1.00  0.00    -0.199 F
HETATM   21  C10 UNL     1      15.477   1.142  16.533  1.00  0.00     0.199 A
HETATM   22  F3  UNL     1      15.375   0.118  17.416  1.00  0.00    -0.199 F
HETATM   23  C11 UNL     1      16.174   0.940  15.368  1.00  0.00     0.199 A
HETATM   24  F4  UNL     1      16.765  -0.250  15.066  1.00  0.00    -0.199 F
HETATM   25  C12 UNL     1      16.282   1.977  14.465  1.00  0.00     0.187 A
HETATM   26  F5  UNL     1      16.964   1.713  13.300  1.00  0.00    -0.200 F
ENDBRANCH  14  16
ENDBRANCH   1  14
BRANCH   1  27
HETATM   27  C13 UNL     1      18.150   5.032  13.856  1.00  0.00     0.409 C
HETATM   28  F6  UNL     1      18.578   4.395  14.985  1.00  0.00    -0.169 F
HETATM   29  F7  UNL     1      18.915   6.197  13.683  1.00  0.00    -0.169 F
HETATM   30  F8  UNL     1      18.530   4.225  12.793  1.00  0.00    -0.169 F
ENDBRANCH   1  27
TORSDOF 8
ENDMDL