MODEL 4
REMARK VINA RESULT: -7.625277612      3.337      7.724
REMARK  7 active torsions:
REMARK  status: ('A' for Active; 'I' for Inactive)
REMARK    1  A    between atoms: N1_1  and  C1_5
REMARK    2  A    between atoms: C1_5  and  C2_6
REMARK    3  A    between atoms: C1_5  and  C10_21
REMARK    4  A    between atoms: C2_6  and  C3_7
REMARK    5  A    between atoms: C3_7  and  N2_8
REMARK    6  A    between atoms: C5_10  and  C6_12
REMARK    7  A    between atoms: C10_21  and  C11_22
ROOT
HETATM    1  C1  UNL     1      17.194   4.294  11.981  1.00  0.00     0.189 C
ENDROOT
BRANCH   1   2
HETATM    2  N1  UNL     1      16.788   3.339  11.029  1.00  0.00    -0.075 N
ATOM      3  H13 UNL     1      17.504   2.638  10.832  1.00  0.00     0.274 HD
ATOM      4  H12 UNL     1      16.076   2.699  11.381  1.00  0.00     0.274 HD
ATOM      5  H11 UNL     1      16.491   3.854  10.201  1.00  0.00     0.274 HD
ENDBRANCH   1   2
BRANCH   1   6
HETATM    6  C2  UNL     1      18.318   3.648  12.811  1.00  0.00     0.053 C
BRANCH   6   7
HETATM    7  C3  UNL     1      18.248   4.303  14.168  1.00  0.00     0.125 C
BRANCH   7   8
HETATM    8  N2  UNL     1      17.202   3.848  15.015  1.00  0.00    -0.373 N
HETATM    9  C4  UNL     1      17.173   2.694  15.909  1.00  0.00     0.185 C
HETATM   10  C5  UNL     1      15.814   2.100  15.535  1.00  0.00     0.277 C
HETATM   11  F1  UNL     1      15.888   1.491  14.315  1.00  0.00    -0.222 F
HETATM   12  C7  UNL     1      14.957   3.347  15.514  1.00  0.00     0.334 C
HETATM   13  F2  UNL     1      13.994   3.175  14.536  1.00  0.00    -0.195 F
HETATM   14  F3  UNL     1      14.396   3.631  16.720  1.00  0.00    -0.195 F
HETATM   15  C8  UNL     1      15.910   4.446  15.166  1.00  0.00     0.111 C
HETATM   16  C9  UNL     1      15.604   5.719  15.029  1.00  0.00     0.219 C
HETATM   17  F4  UNL     1      16.540   6.610  14.717  1.00  0.00    -0.217 F
BRANCH  10  18
HETATM   18  C6  UNL     1      15.333   1.126  16.531  1.00  0.00     0.223 C
HETATM   19  O1  UNL     1      16.069   0.822  17.501  1.00  0.00    -0.645 OA
HETATM   20  O2  UNL     1      14.101   0.523  16.456  1.00  0.00    -0.645 OA
ENDBRANCH  10  18
ENDBRANCH   7   8
ENDBRANCH   6   7
ENDBRANCH   1   6
BRANCH   1  21
HETATM   21  C10 UNL     1      17.546   5.663  11.499  1.00  0.00     0.077 C
BRANCH  21  22
HETATM   22  C11 UNL     1      16.633   6.154  10.424  1.00  0.00     0.028 A
HETATM   23  C12 UNL     1      15.408   6.692  10.712  1.00  0.00     0.167 A
HETATM   24  F5  UNL     1      14.931   6.766  11.976  1.00  0.00    -0.202 F
HETATM   25  C13 UNL     1      14.557   7.185   9.720  1.00  0.00     0.197 A
HETATM   26  F6  UNL     1      13.366   7.704  10.031  1.00  0.00    -0.199 F
HETATM   27  C14 UNL     1      14.977   7.121   8.403  1.00  0.00     0.199 A
HETATM   28  F7  UNL     1      14.126   7.610   7.461  1.00  0.00    -0.199 F
HETATM   29  C15 UNL     1      16.204   6.582   8.106  1.00  0.00     0.197 A
HETATM   30  F8  UNL     1      16.599   6.529   6.811  1.00  0.00    -0.199 F
HETATM   31  C16 UNL     1      17.020   6.107   9.092  1.00  0.00     0.167 A
HETATM   32  F9  UNL     1      18.216   5.585   8.774  1.00  0.00    -0.202 F
ENDBRANCH  21  22
ENDBRANCH   1  21
TORSDOF 7
ENDMDL