MODEL 2
REMARK VINA RESULT: -8.545988761      1.025      1.472
REMARK  11 active torsions:
REMARK  status: ('A' for Active; 'I' for Inactive)
REMARK    1  A    between atoms: C6_8  and  O1_9
REMARK    2  A    between atoms: C7_11  and  C8_12
REMARK    3  A    between atoms: C9_13  and  C10_14
REMARK    4  A    between atoms: C10_14  and  O2_15
REMARK    5  A    between atoms: C10_14  and  C11_17
REMARK    6  A    between atoms: C12_18  and  C13_19
REMARK    7  A    between atoms: C17_24  and  C18_25
REMARK    8  A    between atoms: C18_25  and  C19_26
REMARK    9  A    between atoms: C18_25  and  C21_29
REMARK   10  A    between atoms: C19_26  and  C20_27
REMARK   11  A    between atoms: C21_29  and  O5_33
ROOT
HETATM    1  C13 UNL     1       1.822 -35.866 -27.072  1.00  0.00     0.152 C
HETATM    2  O3  UNL     1       2.684 -36.392 -28.043  1.00  0.00    -0.372 OA
HETATM    3  C14 UNL     1       3.788 -36.892 -27.267  1.00  0.00     0.147 C
HETATM    4  C15 UNL     1       4.902 -37.084 -28.265  1.00  0.00     0.044 C
HETATM    5  C16 UNL     1       4.049 -35.783 -26.328  1.00  0.00    -0.048 C
HETATM    6  C17 UNL     1       5.112 -35.746 -25.367  1.00  0.00    -0.008 C
HETATM    7  C22 UNL     1       2.647 -35.429 -25.890  1.00  0.00     0.045 C
HETATM    8  C23 UNL     1       2.169 -36.084 -24.652  1.00  0.00     0.017 C
ENDROOT
BRANCH   1   9
HETATM    9  C12 UNL     1       0.800 -36.887 -26.740  1.00  0.00     0.004 C
HETATM   10  C11 UNL     1      -0.484 -36.698 -26.614  1.00  0.00     0.007 C
BRANCH  10  11
HETATM   11  C10 UNL     1      -1.211 -35.412 -26.774  1.00  0.00     0.163 C
BRANCH  11  12
HETATM   12  C9  UNL     1      -2.398 -35.657 -27.647  1.00  0.00     0.005 C
HETATM   13  C8  UNL     1      -2.920 -34.666 -28.362  1.00  0.00    -0.016 C
BRANCH  13  14
HETATM   14  C7  UNL     1      -4.102 -34.905 -29.231  1.00  0.00     0.071 C
HETATM   15  C2  UNL     1      -3.613 -35.237 -30.620  1.00  0.00    -0.079 C
HETATM   16  C1  UNL     1      -3.505 -34.281 -31.521  1.00  0.00     0.015 C
HETATM   17  C3  UNL     1      -3.270 -36.652 -30.910  1.00  0.00     0.040 C
HETATM   18  C4  UNL     1      -4.543 -37.455 -30.829  1.00  0.00     0.086 C
HETATM   19  C5  UNL     1      -5.545 -36.797 -29.902  1.00  0.00     0.270 C
HETATM   20  F1  UNL     1      -6.437 -37.692 -29.376  1.00  0.00    -0.203 F
HETATM   21  F2  UNL     1      -6.205 -35.793 -30.606  1.00  0.00    -0.203 F
HETATM   22  C6  UNL     1      -4.837 -36.127 -28.735  1.00  0.00     0.202 C
BRANCH  22  23
HETATM   23  O1  UNL     1      -5.825 -35.788 -27.812  1.00  0.00    -0.389 OA
ATOM     24  H1  UNL     1      -5.467 -35.090 -27.275  1.00  0.00     0.210 HD
ENDBRANCH  22  23
ENDBRANCH  13  14
ENDBRANCH  11  12
BRANCH  11  25
HETATM   25  O2  UNL     1      -1.621 -34.990 -25.497  1.00  0.00    -0.388 OA
ATOM     26  H2  UNL     1      -1.259 -35.560 -24.828  1.00  0.00     0.210 HD
ENDBRANCH  11  25
ENDBRANCH  10  11
ENDBRANCH   1   9
BRANCH   6  27
HETATM   27  C18 UNL     1       5.306 -36.714 -24.269  1.00  0.00     0.089 C
BRANCH  27  28
HETATM   28  C19 UNL     1       6.480 -37.638 -24.398  1.00  0.00     0.086 C
BRANCH  28  29
HETATM   29  C20 UNL     1       6.467 -38.758 -23.448  1.00  0.00     0.232 C
HETATM   30  O4  UNL     1       7.051 -38.869 -22.414  1.00  0.00    -0.307 OA
ENDBRANCH  28  29
ENDBRANCH  27  28
BRANCH  27  31
HETATM   31  C21 UNL     1       5.562 -35.873 -23.031  1.00  0.00     0.117 C
HETATM   32  N1  UNL     1       4.653 -35.149 -22.512  1.00  0.00    -0.383 N
ATOM     33  H12 UNL     1       3.748 -35.174 -22.982  1.00  0.00     0.158 HD
ATOM     34  H11 UNL     1       4.826 -34.585 -21.681  1.00  0.00     0.158 HD
BRANCH  31  35
HETATM   35  O5  UNL     1       6.800 -35.840 -22.388  1.00  0.00    -0.349 OA
ATOM     36  H5  UNL     1       7.129 -35.062 -21.952  1.00  0.00     0.219 HD
ENDBRANCH  31  35
ENDBRANCH  27  31
ENDBRANCH   6  27
TORSDOF 11
ENDMDL