MODEL 3
REMARK VINA RESULT: -7.676397213      1.313      1.451
REMARK  10 active torsions:
REMARK  status: ('A' for Active; 'I' for Inactive)
REMARK    1  A    between atoms: C2_2  and  C3_3
REMARK    2  A    between atoms: C3_3  and  C4_4
REMARK    3  A    between atoms: C4_4  and  O1_5
REMARK    4  A    between atoms: O1_5  and  N1_6
REMARK    5  A    between atoms: N1_6  and  C5_7
REMARK    6  A    between atoms: C5_7  and  C6_8
REMARK    7  A    between atoms: C5_7  and  C21_32
REMARK    8  A    between atoms: C6_8  and  C7_9
REMARK       I    between atoms: C7_9  and  N2_11
REMARK    9  A    between atoms: C15_24  and  O3_25
REMARK   10  A    between atoms: C15_24  and  C16_27
ROOT
HETATM    1  C7  UNL     1      -2.675 -35.153 -25.415  1.00  0.00     0.224 C
HETATM    2  O2  UNL     1      -2.914 -33.953 -25.209  1.00  0.00    -0.273 OA
HETATM    3  N2  UNL     1      -3.309 -35.808 -26.510  1.00  0.00    -0.317 N
HETATM    4  C8  UNL     1      -2.974 -37.175 -26.722  1.00  0.00     0.135 C
HETATM    5  C9  UNL     1      -4.114 -37.886 -27.373  1.00  0.00     0.102 C
HETATM    6  C10 UNL     1      -4.484 -37.241 -28.633  1.00  0.00     0.282 C
HETATM    7  F1  UNL     1      -3.851 -37.901 -29.673  1.00  0.00    -0.203 F
HETATM    8  F2  UNL     1      -5.840 -37.516 -28.900  1.00  0.00    -0.203 F
HETATM    9  C11 UNL     1      -4.239 -35.741 -28.691  1.00  0.00     0.239 C
HETATM   10  C12 UNL     1      -5.033 -35.227 -29.822  1.00  0.00     0.052 C
HETATM   11  C13 UNL     1      -4.238 -34.074 -30.438  1.00  0.00     0.030 C
HETATM   12  C14 UNL     1      -2.837 -34.556 -30.179  1.00  0.00     0.233 C
HETATM   13  N3  UNL     1      -2.889 -35.593 -29.220  1.00  0.00    -0.055 N
ATOM     14  H31 UNL     1      -2.532 -36.472 -29.594  1.00  0.00     0.278 HD
ATOM     15  H32 UNL     1      -2.206 -35.453 -28.475  1.00  0.00     0.278 HD
HETATM   16  C15 UNL     1      -4.251 -35.063 -27.387  1.00  0.00     0.179 C
ENDROOT
BRANCH   1  17
HETATM   17  C6  UNL     1      -1.758 -35.888 -24.555  1.00  0.00     0.136 C
BRANCH  17  18
HETATM   18  C5  UNL     1      -0.455 -35.237 -24.205  1.00  0.00     0.204 C
BRANCH  18  19
HETATM   19  N1  UNL     1       0.548 -36.321 -24.428  1.00  0.00    -0.087 NA
BRANCH  19  20
HETATM   20  O1  UNL     1       1.305 -35.913 -25.470  1.00  0.00    -0.286 OA
BRANCH  20  21
HETATM   21  C4  UNL     1       1.178 -36.741 -26.569  1.00  0.00     0.196 C
BRANCH  21  22
HETATM   22  C3  UNL     1       1.940 -36.245 -27.757  1.00  0.00     0.028 C
BRANCH  22  23
HETATM   23  C2  UNL     1       3.367 -36.732 -27.767  1.00  0.00    -0.002 C
HETATM   24  C1  UNL     1       3.622 -37.720 -28.866  1.00  0.00     0.005 C
ENDBRANCH  22  23
ENDBRANCH  21  22
ENDBRANCH  20  21
ENDBRANCH  19  20
ENDBRANCH  18  19
BRANCH  18  25
HETATM   25  C21 UNL     1      -0.269 -34.864 -22.808  1.00  0.00     0.253 C
HETATM   26  N4  UNL     1      -1.297 -34.692 -21.877  1.00  0.00    -0.061 NA
HETATM   27  O4  UNL     1       0.914 -34.663 -22.353  1.00  0.00    -0.275 OA
ENDBRANCH  18  25
ENDBRANCH  17  18
ENDBRANCH   1  17
BRANCH  16  28
HETATM   28  O3  UNL     1      -3.489 -33.859 -27.589  1.00  0.00    -0.368 OA
ATOM     29  H3  UNL     1      -3.090 -34.062 -28.427  1.00  0.00     0.212 HD
ENDBRANCH  16  28
BRANCH  16  30
HETATM   30  C16 UNL     1      -5.390 -34.638 -26.640  1.00  0.00     0.044 C
HETATM   31  C17 UNL     1      -6.197 -33.430 -27.146  1.00  0.00     0.009 C
HETATM   32  C18 UNL     1      -6.989 -33.174 -25.845  1.00  0.00     0.001 C
HETATM   33  C19 UNL     1      -7.426 -34.568 -25.498  1.00  0.00     0.001 C
HETATM   34  C20 UNL     1      -6.378 -35.539 -26.009  1.00  0.00     0.009 C
ENDBRANCH  16  30
TORSDOF 10
ENDMDL