MODEL 3
REMARK VINA RESULT: -7.417651572      4.170      7.393
REMARK  9 active torsions:
REMARK  status: ('A' for Active; 'I' for Inactive)
REMARK       I    between atoms: C1_2  and  N1_3
REMARK    1  A    between atoms: C1_2  and  C18_29
REMARK    2  A    between atoms: N1_3  and  C2_5
REMARK    3  A    between atoms: C5_10  and  C6_11
REMARK    4  A    between atoms: C6_11  and  N2_12
REMARK    5  A    between atoms: N2_12  and  C7_13
REMARK    6  A    between atoms: N2_12  and  C14_21
REMARK    7  A    between atoms: C7_13  and  C8_14
REMARK    8  A    between atoms: C8_14  and  C9_15
REMARK    9  A    between atoms: C14_21  and  C15_22
ROOT
HETATM    1  C2  UNL     1      -4.400 -36.963 -24.976  1.00  0.00     0.102 C
HETATM    2  C3  UNL     1      -5.003 -38.070 -25.810  1.00  0.00     0.105 C
HETATM    3  C4  UNL     1      -5.094 -37.056 -26.942  1.00  0.00     0.252 C
HETATM    4  F1  UNL     1      -4.906 -37.579 -28.183  1.00  0.00    -0.206 F
HETATM    5  F2  UNL     1      -6.229 -36.250 -26.832  1.00  0.00    -0.206 F
HETATM    6  C5  UNL     1      -3.915 -36.352 -26.307  1.00  0.00     0.109 C
ENDROOT
BRANCH   6   7
HETATM    7  C6  UNL     1      -2.579 -36.876 -26.622  1.00  0.00     0.285 C
BRANCH   7   8
HETATM    8  N2  UNL     1      -1.731 -36.201 -27.544  1.00  0.00     0.094 N
BRANCH   8   9
HETATM    9  C7  UNL     1      -0.448 -36.040 -26.851  1.00  0.00     0.273 C
BRANCH   9  10
HETATM   10  C8  UNL     1       0.647 -35.474 -27.661  1.00  0.00     0.035 C
BRANCH  10  11
HETATM   11  C9  UNL     1       1.956 -35.993 -27.057  1.00  0.00    -0.009 C
HETATM   12  C10 UNL     1       2.787 -34.825 -26.544  1.00  0.00     0.031 C
HETATM   13  C11 UNL     1       3.891 -35.407 -25.686  1.00  0.00     0.168 C
HETATM   14  O2  UNL     1       4.282 -36.652 -26.152  1.00  0.00    -0.391 OA
HETATM   15  C12 UNL     1       4.221 -36.747 -27.552  1.00  0.00     0.168 C
HETATM   16  C13 UNL     1       2.788 -36.745 -28.052  1.00  0.00     0.031 C
ENDBRANCH  10  11
ENDBRANCH   9  10
ENDBRANCH   8   9
BRANCH   8  17
HETATM   17  C14 UNL     1      -2.150 -34.907 -27.931  1.00  0.00     0.330 C
BRANCH  17  18
HETATM   18  C15 UNL     1      -2.693 -34.710 -29.286  1.00  0.00     0.054 A
HETATM   19  C16 UNL     1      -4.031 -34.596 -29.586  1.00  0.00     0.115 A
HETATM   20  N3  UNL     1      -4.115 -34.390 -30.898  1.00  0.00    -0.360 N
HETATM   21  C17 UNL     1      -2.870 -34.369 -31.454  1.00  0.00     0.180 A
ATOM     22  H3  UNL     1      -4.986 -34.267 -31.414  1.00  0.00     0.166 HD
HETATM   23  N4  UNL     1      -2.026 -34.568 -30.425  1.00  0.00    -0.353 N
ATOM     24  H4  UNL     1      -1.010 -34.605 -30.510  1.00  0.00     0.166 HD
ENDBRANCH  17  18
ENDBRANCH   8  17
ENDBRANCH   7   8
ENDBRANCH   6   7
BRANCH   1  25
HETATM   25  N1  UNL     1      -3.390 -37.326 -24.041  1.00  0.00    -0.349 N
HETATM   26  C1  UNL     1      -3.655 -37.057 -22.655  1.00  0.00     0.286 C
HETATM   27  O1  UNL     1      -4.754 -36.513 -22.324  1.00  0.00    -0.264 OA
ATOM     28  H1  UNL     1      -2.517 -37.760 -24.341  1.00  0.00     0.163 HD
BRANCH  26  29
HETATM   29  C18 UNL     1      -2.664 -37.412 -21.673  1.00  0.00     0.175 A
HETATM   30  N5  UNL     1      -2.770 -38.558 -20.933  1.00  0.00    -0.345 N
HETATM   31  C19 UNL     1      -1.716 -38.601 -20.129  1.00  0.00     0.132 A
ATOM     32  H5  UNL     1      -3.519 -39.249 -20.988  1.00  0.00     0.167 HD
HETATM   33  C20 UNL     1      -0.955 -37.498 -20.359  1.00  0.00     0.120 A
HETATM   34 CL1  UNL     1       0.538 -37.150 -19.515  1.00  0.00    -0.063 Cl
HETATM   35  N6  UNL     1      -1.544 -36.765 -21.315  1.00  0.00    -0.327 N
ATOM     36  H6  UNL     1      -1.205 -35.883 -21.697  1.00  0.00     0.168 HD
ENDBRANCH  26  29
ENDBRANCH   1  25
TORSDOF 9
ENDMDL