MODEL 3
REMARK VINA RESULT: -6.314693469      2.841      6.871
REMARK  12 active torsions:
REMARK  status: ('A' for Active; 'I' for Inactive)
REMARK    1  A    between atoms: N1_2  and  C3_4
REMARK    2  A    between atoms: C3_4  and  C4_5
REMARK    3  A    between atoms: C4_5  and  N2_6
REMARK    4  A    between atoms: N2_6  and  C5_8
REMARK    5  A    between atoms: C6_11  and  N4_12
REMARK    6  A    between atoms: N4_12  and  C7_14
REMARK    7  A    between atoms: C12_23  and  C13_24
REMARK    8  A    between atoms: C18_31  and  O1_32
REMARK    9  A    between atoms: O1_32  and  C19_33
REMARK   10  A    between atoms: C19_33  and  C20_34
REMARK   11  A    between atoms: C20_34  and  C21_35
REMARK   12  A    between atoms: C21_35  and  N7_36
ROOT
HETATM    1  C5  UNL     1      -2.350 -35.205 -26.022  1.00  0.00     0.132 A
HETATM    2  N3  UNL     1      -1.035 -35.374 -25.821  1.00  0.00    -0.176 N
ATOM      3  H3  UNL     1      -0.520 -34.678 -25.280  1.00  0.00     0.186 HD
HETATM    4  C6  UNL     1      -0.379 -36.434 -26.314  1.00  0.00     0.681 A
HETATM    5  N5  UNL     1      -1.056 -37.347 -27.024  1.00  0.00    -0.176 N
ATOM      6  H5  UNL     1      -0.552 -38.152 -27.397  1.00  0.00     0.186 HD
HETATM    7  C10 UNL     1      -2.382 -37.239 -27.265  1.00  0.00     0.136 A
HETATM    8  N6  UNL     1      -3.268 -37.998 -27.930  1.00  0.00    -0.350 N
ATOM      9  H6  UNL     1      -3.050 -38.870 -28.410  1.00  0.00     0.166 HD
HETATM   10  C11 UNL     1      -4.494 -37.429 -27.868  1.00  0.00     0.103 A
HETATM   11  C12 UNL     1      -4.380 -36.269 -27.136  1.00  0.00     0.013 A
HETATM   12  C22 UNL     1      -3.065 -36.130 -26.748  1.00  0.00     0.065 A
ENDROOT
BRANCH  11  13
HETATM   13  C13 UNL     1      -5.423 -35.283 -26.776  1.00  0.00     0.049 A
HETATM   14  C14 UNL     1      -6.334 -35.584 -25.794  1.00  0.00     0.133 A
HETATM   15  F1  UNL     1      -6.266 -36.803 -25.155  1.00  0.00    -0.205 F
HETATM   16  C15 UNL     1      -7.313 -34.674 -25.445  1.00  0.00     0.085 A
HETATM   17  C16 UNL     1      -7.346 -33.464 -26.111  1.00  0.00     0.122 A
HETATM   18  F2  UNL     1      -8.302 -32.531 -25.798  1.00  0.00    -0.206 F
HETATM   19  C17 UNL     1      -6.440 -33.157 -27.094  1.00  0.00     0.080 A
HETATM   20  C18 UNL     1      -5.472 -34.058 -27.437  1.00  0.00     0.085 A
BRANCH  20  21
HETATM   21  O1  UNL     1      -4.525 -33.848 -28.402  1.00  0.00    -0.350 OA
BRANCH  21  22
HETATM   22  C19 UNL     1      -4.590 -33.797 -29.767  1.00  0.00     0.177 C
BRANCH  22  23
HETATM   23  C20 UNL     1      -4.856 -35.039 -30.525  1.00  0.00     0.054 C
BRANCH  23  24
HETATM   24  C21 UNL     1      -3.587 -35.685 -31.062  1.00  0.00     0.231 C
BRANCH  24  25
HETATM   25  N7  UNL     1      -2.875 -34.714 -31.852  1.00  0.00    -0.079 N
ATOM     26  H73 UNL     1      -2.030 -35.097 -32.274  1.00  0.00     0.274 HD
ATOM     27  H72 UNL     1      -3.366 -34.476 -32.715  1.00  0.00     0.274 HD
ATOM     28  H71 UNL     1      -2.687 -33.897 -31.271  1.00  0.00     0.274 HD
ENDBRANCH  24  25
ENDBRANCH  23  24
ENDBRANCH  22  23
ENDBRANCH  21  22
ENDBRANCH  20  21
ENDBRANCH  11  13
BRANCH   1  29
HETATM   29  N2  UNL     1      -2.979 -34.174 -25.541  1.00  0.00    -0.373 N
ATOM     30  H2  UNL     1      -3.525 -33.600 -26.183  1.00  0.00     0.161 HD
BRANCH  29  31
HETATM   31  C4  UNL     1      -2.947 -33.801 -24.167  1.00  0.00     0.151 C
BRANCH  31  32
HETATM   32  C3  UNL     1      -4.007 -34.486 -23.331  1.00  0.00     0.290 C
BRANCH  32  33
HETATM   33  N1  UNL     1      -3.422 -35.456 -22.422  1.00  0.00     0.081 N
HETATM   34  C1  UNL     1      -2.026 -35.109 -22.235  1.00  0.00     0.309 C
HETATM   35  C2  UNL     1      -3.492 -36.791 -22.996  1.00  0.00     0.309 C
ENDBRANCH  32  33
ENDBRANCH  31  32
ENDBRANCH  29  31
ENDBRANCH   1  29
BRANCH   4  36
HETATM   36  N4  UNL     1       0.881 -36.593 -26.121  1.00  0.00    -0.221 N
ATOM     37  H4  UNL     1       1.221 -37.150 -25.337  1.00  0.00     0.178 HD
BRANCH  36  38
HETATM   38  C7  UNL     1       1.807 -35.968 -27.036  1.00  0.00     0.099 A
HETATM   39  C8  UNL     1       3.273 -35.969 -26.694  1.00  0.00     0.028 A
HETATM   40  C9  UNL     1       2.779 -36.813 -27.786  1.00  0.00     0.028 A
ENDBRANCH  36  38
ENDBRANCH   4  36
TORSDOF 12
ENDMDL