MODEL 1
REMARK VINA RESULT: -8.071911601      0.000      0.000
REMARK  12 active torsions:
REMARK  status: ('A' for Active; 'I' for Inactive)
REMARK    1  A    between atoms: N1_1  and  C1_5
REMARK    2  A    between atoms: C1_5  and  C2_6
REMARK    3  A    between atoms: C2_6  and  C3_7
REMARK    4  A    between atoms: C3_7  and  N2_8
REMARK    5  A    between atoms: C3_7  and  C4_12
REMARK    6  A    between atoms: C7_17  and  C8_18
REMARK    7  A    between atoms: C8_18  and  N4_19
REMARK    8  A    between atoms: N4_19  and  C9_22
REMARK    9  A    between atoms: C9_22  and  C10_23
REMARK   10  A    between atoms: C10_23  and  O1_24
REMARK   11  A    between atoms: C10_23  and  C11_26
REMARK   12  A    between atoms: C15_31  and  C16_32
ROOT
HETATM    1  C8  UNL     1      -1.844 -35.673 -27.061  1.00  0.00     0.154 C
HETATM    2  C17 UNL     1      -2.457 -37.026 -27.333  1.00  0.00     0.044 C
HETATM    3  C18 UNL     1      -3.075 -36.967 -25.937  1.00  0.00     0.005 C
HETATM    4  C19 UNL     1      -2.879 -35.445 -26.007  1.00  0.00     0.044 C
ENDROOT
BRANCH   1   5
HETATM    5  C7  UNL     1      -0.486 -35.777 -26.436  1.00  0.00    -0.006 A
HETATM    6  C6  UNL     1      -0.418 -35.790 -25.063  1.00  0.00     0.097 A
HETATM    7  N3  UNL     1       0.795 -35.876 -24.435  1.00  0.00    -0.374 N
HETATM    8  C5  UNL     1       1.947 -35.950 -25.147  1.00  0.00     0.096 A
ATOM      9  H3  UNL     1       0.833 -35.884 -23.417  1.00  0.00     0.164 HD
HETATM   10  C4  UNL     1       1.926 -35.942 -26.525  1.00  0.00    -0.012 A
HETATM   11  C20 UNL     1       0.685 -35.853 -27.130  1.00  0.00     0.021 A
BRANCH  10  12
HETATM   12  C3  UNL     1       3.149 -36.016 -27.343  1.00  0.00     0.219 C
BRANCH  12  13
HETATM   13  C2  UNL     1       3.093 -37.246 -28.245  1.00  0.00     0.065 C
BRANCH  13  14
HETATM   14  C1  UNL     1       4.470 -37.849 -28.394  1.00  0.00     0.232 C
BRANCH  14  15
HETATM   15  N1  UNL     1       4.578 -38.721 -29.519  1.00  0.00    -0.079 N
ATOM     16  H13 UNL     1       3.966 -39.530 -29.413  1.00  0.00     0.274 HD
ATOM     17  H12 UNL     1       4.157 -38.300 -30.346  1.00  0.00     0.274 HD
ATOM     18  H11 UNL     1       5.537 -39.013 -29.706  1.00  0.00     0.274 HD
ENDBRANCH  14  15
ENDBRANCH  13  14
ENDBRANCH  12  13
BRANCH  12  19
HETATM   19  N2  UNL     1       4.336 -36.175 -26.499  1.00  0.00    -0.071 N
ATOM     20  H23 UNL     1       4.166 -35.956 -25.518  1.00  0.00     0.275 HD
ATOM     21  H22 UNL     1       4.609 -37.149 -26.365  1.00  0.00     0.275 HD
ATOM     22  H21 UNL     1       5.069 -35.604 -26.920  1.00  0.00     0.275 HD
ENDBRANCH  12  19
ENDBRANCH  10  12
ENDBRANCH   1   5
BRANCH   1  23
HETATM   23  N4  UNL     1      -1.768 -34.779 -28.168  1.00  0.00    -0.060 N
ATOM     24  H42 UNL     1      -2.332 -33.948 -27.990  1.00  0.00     0.278 HD
ATOM     25  H41 UNL     1      -0.841 -34.356 -28.220  1.00  0.00     0.278 HD
BRANCH  23  26
HETATM   26  C9  UNL     1      -2.120 -35.354 -29.424  1.00  0.00     0.265 C
BRANCH  26  27
HETATM   27  C10 UNL     1      -3.004 -34.390 -30.252  1.00  0.00     0.148 C
BRANCH  27  28
HETATM   28  O1  UNL     1      -2.133 -34.067 -31.340  1.00  0.00    -0.394 OA
ATOM     29  H1  UNL     1      -2.729 -33.632 -31.937  1.00  0.00     0.210 HD
ENDBRANCH  27  28
BRANCH  27  30
HETATM   30  C11 UNL     1      -4.084 -35.255 -30.805  1.00  0.00     0.024 C
HETATM   31  C12 UNL     1      -3.603 -36.672 -31.035  1.00  0.00     0.044 C
HETATM   32  C13 UNL     1      -4.882 -37.477 -31.205  1.00  0.00     0.171 C
HETATM   33  F1  UNL     1      -4.786 -38.749 -30.699  1.00  0.00    -0.249 F
HETATM   34  C14 UNL     1      -5.995 -36.670 -30.564  1.00  0.00     0.043 C
HETATM   35  C15 UNL     1      -5.367 -35.354 -30.090  1.00  0.00     0.005 C
BRANCH  35  36
HETATM   36  C16 UNL     1      -5.356 -35.365 -28.606  1.00  0.00     0.090 C
HETATM   37 BR1  UNL     1      -5.638 -33.635 -27.794  1.00  0.00    -0.096 Br
ENDBRANCH  35  36
ENDBRANCH  27  30
ENDBRANCH  26  27
ENDBRANCH  23  26
ENDBRANCH   1  23
TORSDOF 12
ENDMDL