MODEL 2
REMARK VINA RESULT: -8.127372414      1.822      2.962
REMARK  12 active torsions:
REMARK  status: ('A' for Active; 'I' for Inactive)
REMARK    1  A    between atoms: C2_2  and  C3_3
REMARK    2  A    between atoms: C3_3  and  C4_4
REMARK       I    between atoms: C4_4  and  N1_6
REMARK    3  A    between atoms: N1_6  and  C5_8
REMARK    4  A    between atoms: C5_8  and  C6_9
REMARK    5  A    between atoms: N2_12  and  C9_13
REMARK    6  A    between atoms: C10_16  and  N4_17
REMARK    7  A    between atoms: N4_17  and  C11_19
REMARK    8  A    between atoms: C11_19  and  C12_20
REMARK    9  A    between atoms: C13_25  and  N6_26
REMARK   10  A    between atoms: N6_26  and  C14_28
REMARK   11  A    between atoms: C14_28  and  C15_29
REMARK   12  A    between atoms: C15_29  and  C16_30
ROOT
HETATM    1  C9  UNL     1      -0.074 -35.734 -27.030  1.00  0.00     0.709 A
HETATM    2  N3  UNL     1      -0.817 -36.212 -26.029  1.00  0.00    -0.021 N
ATOM      3  H3  UNL     1      -0.373 -36.641 -25.217  1.00  0.00     0.203 HD
HETATM    4  C10 UNL     1      -2.186 -36.119 -26.104  1.00  0.00     0.707 A
HETATM    5  N5  UNL     1      -2.693 -35.545 -27.193  1.00  0.00    -0.022 N
ATOM      6  H5  UNL     1      -3.708 -35.470 -27.258  1.00  0.00     0.203 HD
HETATM    7  C13 UNL     1      -1.966 -35.054 -28.219  1.00  0.00     0.707 A
HETATM    8  N7  UNL     1      -0.630 -35.152 -28.135  1.00  0.00    -0.021 N
ATOM      9  H7  UNL     1      -0.037 -34.796 -28.884  1.00  0.00     0.203 HD
ENDROOT
BRANCH   1  10
HETATM   10  N2  UNL     1       1.347 -35.849 -26.919  1.00  0.00    -0.217 N
HETATM   11  C8  UNL     1       2.030 -37.095 -27.197  1.00  0.00     0.141 C
HETATM   12  C7  UNL     1       3.247 -36.777 -28.042  1.00  0.00     0.027 C
HETATM   13  C6  UNL     1       4.239 -35.955 -27.254  1.00  0.00     0.006 C
HETATM   14  C21 UNL     1       3.547 -35.250 -26.105  1.00  0.00     0.027 C
HETATM   15  C20 UNL     1       2.189 -34.727 -26.523  1.00  0.00     0.141 C
BRANCH  13  16
HETATM   16  C5  UNL     1       5.335 -36.867 -26.775  1.00  0.00     0.127 C
BRANCH  16  17
HETATM   17  N1  UNL     1       5.352 -36.978 -25.325  1.00  0.00    -0.361 N
HETATM   18  C4  UNL     1       6.534 -37.406 -24.659  1.00  0.00     0.217 C
HETATM   19  O1  UNL     1       7.582 -37.694 -25.315  1.00  0.00    -0.274 OA
ATOM     20  H1  UNL     1       4.517 -36.748 -24.786  1.00  0.00     0.162 HD
BRANCH  18  21
HETATM   21  C3  UNL     1       6.530 -37.512 -23.190  1.00  0.00     0.102 C
BRANCH  21  22
HETATM   22  C2  UNL     1       5.390 -36.685 -22.646  1.00  0.00     0.005 C
HETATM   23  C1  UNL     1       5.852 -35.407 -22.012  1.00  0.00     0.005 C
ENDBRANCH  21  22
ENDBRANCH  18  21
ENDBRANCH  16  17
ENDBRANCH  13  16
ENDBRANCH   1  10
BRANCH   4  24
HETATM   24  N4  UNL     1      -2.875 -36.586 -25.125  1.00  0.00    -0.220 N
ATOM     25  H4  UNL     1      -2.395 -36.996 -24.324  1.00  0.00     0.177 HD
BRANCH  24  26
HETATM   26  C11 UNL     1      -4.306 -36.541 -25.141  1.00  0.00     0.209 C
BRANCH  26  27
HETATM   27  C12 UNL     1      -4.922 -37.889 -25.457  1.00  0.00     0.371 C
HETATM   28  F1  UNL     1      -4.319 -38.537 -26.507  1.00  0.00    -0.213 F
HETATM   29  F2  UNL     1      -6.235 -37.626 -25.861  1.00  0.00    -0.213 F
ENDBRANCH  26  27
ENDBRANCH  24  26
ENDBRANCH   4  24
BRANCH   7  30
HETATM   30  N6  UNL     1      -2.518 -34.514 -29.240  1.00  0.00    -0.225 N
ATOM     31  H6  UNL     1      -1.985 -33.801 -29.737  1.00  0.00     0.177 HD
BRANCH  30  32
HETATM   32  C14 UNL     1      -3.816 -34.826 -29.741  1.00  0.00     0.139 C
BRANCH  32  33
HETATM   33  C15 UNL     1      -3.817 -35.982 -30.711  1.00  0.00     0.028 C
BRANCH  33  34
HETATM   34  C16 UNL     1      -4.526 -37.191 -30.138  1.00  0.00    -0.050 C
HETATM   35  C17 UNL     1      -5.335 -37.915 -31.174  1.00  0.00     0.014 C
HETATM   36  C18 UNL     1      -5.515 -36.688 -29.081  1.00  0.00     0.014 C
HETATM   37  C19 UNL     1      -3.604 -38.154 -29.462  1.00  0.00     0.014 C
ENDBRANCH  33  34
ENDBRANCH  32  33
ENDBRANCH  30  32
ENDBRANCH   7  30
TORSDOF 12
ENDMDL