MODEL 1
REMARK VINA RESULT: -7.763042073      0.000      0.000
REMARK  13 active torsions:
REMARK  status: ('A' for Active; 'I' for Inactive)
REMARK    1  A    between atoms: C2_2  and  C3_3
REMARK    2  A    between atoms: C3_3  and  C4_4
REMARK    3  A    between atoms: C4_4  and  C6_7
REMARK    4  A    between atoms: C9_12  and  N2_13
REMARK    5  A    between atoms: N2_13  and  C10_15
REMARK    6  A    between atoms: C10_15  and  C11_16
REMARK    7  A    between atoms: C10_15  and  C12_19
REMARK    8  A    between atoms: C11_16  and  O1_17
REMARK    9  A    between atoms: C12_19  and  O2_20
REMARK   10  A    between atoms: C13_24  and  N4_25
REMARK   11  A    between atoms: N4_25  and  C14_27
REMARK   12  A    between atoms: C14_27  and  C15_28
REMARK   13  A    between atoms: N5_31  and  C18_32
ROOT
HETATM    1  C6  UNL     1      -2.436 -35.225 -25.818  1.00  0.00     0.048 A
HETATM    2  C7  UNL     1      -3.622 -34.556 -25.988  1.00  0.00     0.036 A
HETATM    3  C8  UNL     1      -4.574 -34.392 -24.858  1.00  0.00     0.069 C
HETATM    4  N1  UNL     1      -3.971 -34.042 -27.201  1.00  0.00    -0.195 N
ATOM      5  H1  UNL     1      -4.861 -33.551 -27.290  1.00  0.00     0.184 HD
HETATM    6  C9  UNL     1      -3.188 -34.161 -28.273  1.00  0.00     0.680 A
HETATM    7  N3  UNL     1      -2.026 -34.809 -28.137  1.00  0.00    -0.176 N
ATOM      8  H3  UNL     1      -1.417 -34.909 -28.948  1.00  0.00     0.186 HD
HETATM    9  C13 UNL     1      -1.639 -35.333 -26.963  1.00  0.00     0.128 A
ENDROOT
BRANCH   9  10
HETATM   10  N4  UNL     1      -0.492 -35.946 -26.891  1.00  0.00    -0.375 N
ATOM     11  H4  UNL     1      -0.397 -36.780 -26.311  1.00  0.00     0.161 HD
BRANCH  10  12
HETATM   12  C14 UNL     1       0.648 -35.448 -27.631  1.00  0.00     0.126 C
BRANCH  12  13
HETATM   13  C15 UNL     1       1.921 -36.087 -27.130  1.00  0.00     0.008 C
HETATM   14  C16 UNL     1       2.859 -35.083 -26.568  1.00  0.00     0.026 C
HETATM   15  C17 UNL     1       4.305 -35.441 -26.686  1.00  0.00     0.119 C
HETATM   16  N5  UNL     1       4.582 -36.812 -26.923  1.00  0.00    -0.396 N
HETATM   17  C20 UNL     1       3.787 -37.477 -27.888  1.00  0.00     0.177 C
HETATM   18 CL1  UNL     1       4.691 -37.908 -29.374  1.00  0.00    -0.103 Cl
HETATM   19  C21 UNL     1       2.576 -36.711 -28.342  1.00  0.00     0.047 C
BRANCH  16  20
HETATM   20  C18 UNL     1       5.984 -37.064 -26.952  1.00  0.00     0.114 C
HETATM   21  C19 UNL     1       6.663 -37.033 -25.623  1.00  0.00     0.026 C
ENDBRANCH  16  20
ENDBRANCH  12  13
ENDBRANCH  10  12
ENDBRANCH   9  10
BRANCH   1  22
HETATM   22  C4  UNL     1      -1.985 -35.797 -24.515  1.00  0.00     0.132 C
HETATM   23  C5  UNL     1      -3.008 -36.718 -23.926  1.00  0.00     0.057 C
HETATM   24  F1  UNL     1      -0.928 -36.688 -24.894  1.00  0.00    -0.238 F
BRANCH  22  25
HETATM   25  C3  UNL     1      -1.315 -34.836 -23.611  1.00  0.00     0.048 C
BRANCH  25  26
HETATM   26  C2  UNL     1      -0.223 -35.349 -22.728  1.00  0.00    -0.001 C
HETATM   27  C1  UNL     1       1.143 -34.955 -23.158  1.00  0.00     0.005 C
ENDBRANCH  25  26
ENDBRANCH  22  25
ENDBRANCH   1  22
BRANCH   6  28
HETATM   28  N2  UNL     1      -3.557 -33.663 -29.391  1.00  0.00    -0.217 N
ATOM     29  H2  UNL     1      -3.475 -32.651 -29.492  1.00  0.00     0.178 HD
BRANCH  28  30
HETATM   30  C10 UNL     1      -4.073 -34.379 -30.515  1.00  0.00     0.146 C
BRANCH  30  31
HETATM   31  C11 UNL     1      -4.396 -35.835 -30.176  1.00  0.00     0.192 C
BRANCH  31  32
HETATM   32  O1  UNL     1      -3.758 -36.628 -31.116  1.00  0.00    -0.399 OA
ATOM     33  H1  UNL     1      -2.835 -36.404 -31.094  1.00  0.00     0.209 HD
ENDBRANCH  31  32
ENDBRANCH  30  31
BRANCH  30  34
HETATM   34  C12 UNL     1      -3.050 -34.405 -31.633  1.00  0.00     0.192 C
BRANCH  34  35
HETATM   35  O2  UNL     1      -1.755 -34.297 -31.116  1.00  0.00    -0.399 OA
ATOM     36  H2  UNL     1      -1.167 -33.927 -31.764  1.00  0.00     0.209 HD
ENDBRANCH  34  35
ENDBRANCH  30  34
ENDBRANCH  28  30
ENDBRANCH   6  28
TORSDOF 13
ENDMDL