MODEL 3
REMARK VINA RESULT: -8.407221752      3.720      9.100
REMARK  11 active torsions:
REMARK  status: ('A' for Active; 'I' for Inactive)
REMARK    1  A    between atoms: N1_1  and  C1_5
REMARK    2  A    between atoms: C1_5  and  C2_6
REMARK    3  A    between atoms: C1_5  and  C17_32
REMARK    4  A    between atoms: C2_6  and  N2_7
REMARK       I    between atoms: N2_7  and  C3_9
REMARK    5  A    between atoms: C3_9  and  C4_11
REMARK    6  A    between atoms: C4_11  and  C5_12
REMARK    7  A    between atoms: C5_12  and  N3_13
REMARK    8  A    between atoms: C11_22  and  O2_23
REMARK    9  A    between atoms: C12_25  and  C13_26
REMARK   10  A    between atoms: C13_26  and  C14_27
REMARK   11  A    between atoms: C17_32  and  C18_33
ROOT
HETATM    1  N3  UNL     1       3.149 -35.278 -23.336  1.00  0.00    -0.368 N
HETATM    2  C6  UNL     1       3.138 -34.301 -22.360  1.00  0.00     0.064 C
HETATM    3  C7  UNL     1       4.453 -34.449 -21.595  1.00  0.00     0.060 C
HETATM    4  C8  UNL     1       4.748 -35.915 -21.813  1.00  0.00     0.036 C
HETATM    5  C9  UNL     1       3.892 -36.778 -20.874  1.00  0.00     0.247 C
HETATM    6  N4  UNL     1       4.630 -38.017 -20.734  1.00  0.00    -0.072 N
ATOM      7  H41 UNL     1       4.270 -38.764 -21.328  1.00  0.00     0.277 HD
ATOM      8  H42 UNL     1       4.474 -38.475 -19.836  1.00  0.00     0.277 HD
HETATM    9  C10 UNL     1       6.038 -37.715 -20.985  1.00  0.00     0.264 C
HETATM   10  C11 UNL     1       6.090 -36.240 -21.371  1.00  0.00     0.156 C
HETATM   11  C12 UNL     1       4.307 -36.120 -23.220  1.00  0.00     0.101 C
ENDROOT
BRANCH   1  12
HETATM   12  C5  UNL     1       1.968 -35.804 -23.814  1.00  0.00     0.072 C
BRANCH  12  13
HETATM   13  C4  UNL     1       1.518 -35.484 -25.183  1.00  0.00     0.147 C
BRANCH  13  14
HETATM   14  C3  UNL     1       0.489 -36.313 -25.834  1.00  0.00     0.222 C
HETATM   15  N2  UNL     1      -0.880 -35.874 -25.785  1.00  0.00    -0.359 N
ATOM     16  H2  UNL     1      -1.040 -34.989 -25.304  1.00  0.00     0.162 HD
HETATM   17  O1  UNL     1       0.739 -37.382 -26.428  1.00  0.00    -0.273 OA
BRANCH  15  18
HETATM   18  C2  UNL     1      -2.032 -36.498 -26.309  1.00  0.00     0.155 C
BRANCH  18  19
HETATM   19  C1  UNL     1      -3.010 -35.668 -27.056  1.00  0.00     0.201 C
BRANCH  19  20
HETATM   20  N1  UNL     1      -3.075 -34.290 -26.709  1.00  0.00    -0.073 N
ATOM     21  H13 UNL     1      -4.047 -34.022 -26.554  1.00  0.00     0.274 HD
ATOM     22  H12 UNL     1      -2.692 -34.155 -25.774  1.00  0.00     0.274 HD
ATOM     23  H11 UNL     1      -2.638 -33.634 -27.357  1.00  0.00     0.274 HD
ENDBRANCH  19  20
BRANCH  19  24
HETATM   24  C17 UNL     1      -2.880 -35.867 -28.564  1.00  0.00     0.039 C
BRANCH  24  25
HETATM   25  C18 UNL     1      -4.213 -35.672 -29.230  1.00  0.00    -0.013 C
HETATM   26  C19 UNL     1      -4.069 -35.637 -30.745  1.00  0.00     0.005 C
HETATM   27  C20 UNL     1      -3.783 -37.017 -31.302  1.00  0.00     0.000 C
HETATM   28  C21 UNL     1      -4.871 -37.996 -30.896  1.00  0.00     0.000 C
HETATM   29  C22 UNL     1      -5.917 -37.296 -30.041  1.00  0.00     0.000 C
HETATM   30  C23 UNL     1      -5.188 -36.761 -28.818  1.00  0.00     0.005 C
ENDBRANCH  24  25
ENDBRANCH  19  24
ENDBRANCH  18  19
ENDBRANCH  15  18
ENDBRANCH  13  14
ENDBRANCH  12  13
ENDBRANCH   1  12
BRANCH  11  31
HETATM   31  C13 UNL     1       5.372 -35.852 -24.241  1.00  0.00     0.037 C
BRANCH  31  32
HETATM   32  C14 UNL     1       5.249 -36.673 -25.500  1.00  0.00     0.066 A
HETATM   33  C15 UNL     1       6.086 -36.422 -26.696  1.00  0.00     0.090 A
HETATM   34  C16 UNL     1       4.670 -36.003 -26.761  1.00  0.00     0.248 A
HETATM   35  F1  UNL     1       4.449 -34.637 -26.670  1.00  0.00    -0.206 F
HETATM   36  F2  UNL     1       3.811 -36.755 -27.532  1.00  0.00    -0.206 F
ENDBRANCH  31  32
ENDBRANCH  11  31
BRANCH  10  37
HETATM   37  O2  UNL     1       7.171 -35.874 -22.103  1.00  0.00    -0.393 OA
ATOM     38  H2  UNL     1       7.952 -35.536 -21.682  1.00  0.00     0.210 HD
ENDBRANCH  10  37
TORSDOF 11
ENDMDL