MODEL 2
REMARK VINA RESULT: -7.730166729      3.887      8.826
REMARK  11 active torsions:
REMARK  status: ('A' for Active; 'I' for Inactive)
REMARK    1  A    between atoms: C2_2  and  C3_3
REMARK    2  A    between atoms: C3_3  and  C4_4
REMARK       I    between atoms: C4_4  and  N1_6
REMARK    3  A    between atoms: N1_6  and  C5_8
REMARK    4  A    between atoms: C9_13  and  N2_14
REMARK    5  A    between atoms: N2_14  and  C10_16
REMARK    6  A    between atoms: C10_16  and  C11_17
REMARK    7  A    between atoms: C11_17  and  C13_20
REMARK    8  A    between atoms: C13_20  and  C14_21
REMARK    9  A    between atoms: C14_21  and  C15_22
REMARK   10  A    between atoms: C16_23  and  O2_24
REMARK   11  A    between atoms: C17_26  and  O3_27
ROOT
HETATM    1  C11 UNL     1       1.245 -36.040 -27.266  1.00  0.00     0.115 C
HETATM    2  C12 UNL     1       1.440 -37.469 -26.809  1.00  0.00     0.053 C
HETATM    3  F2  UNL     1       1.659 -35.963 -28.566  1.00  0.00    -0.242 F
ENDROOT
BRANCH   1   4
HETATM    4  C10 UNL     1       2.255 -35.224 -26.427  1.00  0.00     0.157 C
BRANCH   4   5
HETATM    5  N2  UNL     1       2.307 -35.749 -25.106  1.00  0.00    -0.409 N
ATOM      6  H2  UNL     1       2.479 -36.739 -24.930  1.00  0.00     0.153 HD
BRANCH   5   7
HETATM    7  C9  UNL     1       2.108 -34.824 -24.038  1.00  0.00     0.133 C
HETATM    8  C5  UNL     1       0.746 -35.036 -23.433  1.00  0.00     0.109 C
HETATM    9  C6  UNL     1       0.921 -36.414 -22.779  1.00  0.00     0.030 C
HETATM   10  C7  UNL     1       2.246 -36.237 -22.091  1.00  0.00     0.041 C
HETATM   11  C8  UNL     1       3.027 -35.232 -22.903  1.00  0.00     0.194 C
HETATM   12  F1  UNL     1       3.502 -34.176 -22.175  1.00  0.00    -0.247 F
BRANCH   8  13
HETATM   13  N1  UNL     1       0.469 -34.063 -22.386  1.00  0.00    -0.354 N
HETATM   14  C4  UNL     1      -0.842 -33.575 -22.245  1.00  0.00     0.217 C
HETATM   15  O1  UNL     1      -1.745 -33.990 -23.024  1.00  0.00    -0.274 OA
ATOM     16  H1  UNL     1       1.213 -33.742 -21.766  1.00  0.00     0.162 HD
BRANCH  14  17
HETATM   17  C3  UNL     1      -1.169 -32.577 -21.187  1.00  0.00     0.102 C
BRANCH  17  18
HETATM   18  C2  UNL     1      -0.747 -31.190 -21.573  1.00  0.00     0.005 C
HETATM   19  C1  UNL     1      -1.737 -30.469 -22.430  1.00  0.00     0.005 C
ENDBRANCH  17  18
ENDBRANCH  14  17
ENDBRANCH   8  13
ENDBRANCH   5   7
ENDBRANCH   4   5
ENDBRANCH   1   4
BRANCH   1  20
HETATM   20  C13 UNL     1      -0.120 -35.528 -27.041  1.00  0.00     0.045 C
BRANCH  20  21
HETATM   21  C14 UNL     1      -1.120 -36.396 -26.401  1.00  0.00     0.011 C
BRANCH  21  22
HETATM   22  C15 UNL     1      -2.560 -36.212 -26.820  1.00  0.00     0.024 C
HETATM   23  C16 UNL     1      -2.765 -34.703 -26.921  1.00  0.00     0.154 C
HETATM   24  C17 UNL     1      -3.810 -34.575 -27.986  1.00  0.00     0.176 C
HETATM   25  C18 UNL     1      -3.183 -35.470 -29.066  1.00  0.00     0.158 C
HETATM   26  O4  UNL     1      -4.168 -35.821 -29.928  1.00  0.00    -0.373 OA
HETATM   27  C23 UNL     1      -2.762 -36.668 -28.260  1.00  0.00     0.027 C
HETATM   28  C19 UNL     1      -4.525 -37.139 -29.742  1.00  0.00     0.054 C
HETATM   29  C20 UNL     1      -3.947 -37.927 -30.906  1.00  0.00     0.045 C
HETATM   30  C21 UNL     1      -6.031 -37.258 -29.806  1.00  0.00     0.045 C
HETATM   31  C22 UNL     1      -3.951 -37.587 -28.425  1.00  0.00     0.045 C
BRANCH  23  32
HETATM   32  O2  UNL     1      -3.164 -34.159 -25.705  1.00  0.00    -0.393 OA
ATOM     33  H2  UNL     1      -4.099 -33.987 -25.690  1.00  0.00     0.210 HD
ENDBRANCH  23  32
BRANCH  24  34
HETATM   34  O3  UNL     1      -3.928 -33.288 -28.484  1.00  0.00    -0.390 OA
ATOM     35  H3  UNL     1      -4.474 -32.727 -27.944  1.00  0.00     0.210 HD
ENDBRANCH  24  34
ENDBRANCH  21  22
ENDBRANCH  20  21
ENDBRANCH   1  20
TORSDOF 11
ENDMDL