MODEL 2
REMARK VINA RESULT: -5.577723348      1.117      1.423
REMARK  10 active torsions:
REMARK  status: ('A' for Active; 'I' for Inactive)
REMARK    1  A    between atoms: C2_2  and  C4_4
REMARK    2  A    between atoms: C2_2  and  C5_6
REMARK    3  A    between atoms: C5_6  and  C6_7
REMARK    4  A    between atoms: C5_6  and  C7_9
REMARK    5  A    between atoms: C5_6  and  N4_22
REMARK    6  A    between atoms: C7_9  and  O1_10
REMARK    7  A    between atoms: O1_10  and  C8_11
REMARK    8  A    between atoms: C11_18  and  N3_19
REMARK    9  A    between atoms: N4_22  and  C12_24
REMARK   10  A    between atoms: C12_24  and  C13_25
ROOT
HETATM    1  C5  UNL     1      -4.282 -35.430 -28.746  1.00  0.00     0.068 C
ENDROOT
BRANCH   1   2
HETATM    2  C2  UNL     1      -4.823 -36.842 -28.543  1.00  0.00    -0.011 C
HETATM    3  C1  UNL     1      -3.753 -37.906 -28.579  1.00  0.00     0.018 C
HETATM    4  C3  UNL     1      -5.682 -37.184 -29.809  1.00  0.00     0.018 C
BRANCH   2   5
HETATM    5  C4  UNL     1      -5.709 -37.059 -27.391  1.00  0.00     0.096 C
HETATM    6 BR1  UNL     1      -4.661 -38.025 -26.031  1.00  0.00    -0.096 Br
ENDBRANCH   2   5
ENDBRANCH   1   2
BRANCH   1   7
HETATM    7  C6  UNL     1      -4.593 -34.817 -30.063  1.00  0.00     0.119 C
HETATM    8 BR2  UNL     1      -3.080 -34.480 -31.175  1.00  0.00    -0.094 Br
ENDBRANCH   1   7
BRANCH   1   9
HETATM    9  C7  UNL     1      -2.765 -35.502 -28.685  1.00  0.00     0.208 C
BRANCH   9  10
HETATM   10  O1  UNL     1      -2.344 -35.127 -27.397  1.00  0.00    -0.344 OA
BRANCH  10  11
HETATM   11  C8  UNL     1      -1.140 -35.468 -26.850  1.00  0.00     0.127 A
HETATM   12  C9  UNL     1      -0.009 -35.423 -27.684  1.00  0.00     0.129 A
HETATM   13  N1  UNL     1       1.173 -35.754 -27.150  1.00  0.00    -0.359 N
HETATM   14  C10 UNL     1       1.362 -36.130 -25.867  1.00  0.00     0.182 A
ATOM     15  H1  UNL     1       1.993 -35.719 -27.757  1.00  0.00     0.166 HD
HETATM   16  N2  UNL     1       0.289 -36.182 -25.052  1.00  0.00    -0.337 N
HETATM   17  C11 UNL     1      -0.914 -35.855 -25.556  1.00  0.00     0.135 A
ATOM     18  H2  UNL     1       0.388 -36.461 -24.076  1.00  0.00     0.168 HD
BRANCH  17  19
HETATM   19  N3  UNL     1      -1.915 -35.924 -24.744  1.00  0.00    -0.383 N
ATOM     20  H32 UNL     1      -2.638 -36.607 -24.971  1.00  0.00     0.157 HD
ATOM     21  H31 UNL     1      -1.934 -35.303 -23.935  1.00  0.00     0.157 HD
ENDBRANCH  17  19
ENDBRANCH  10  11
ENDBRANCH   9  10
ENDBRANCH   1   9
BRANCH   1  22
HETATM   22  N4  UNL     1      -4.805 -34.687 -27.632  1.00  0.00    -0.389 N
ATOM     23  H4  UNL     1      -4.769 -35.056 -26.682  1.00  0.00     0.159 HD
BRANCH  22  24
HETATM   24  C12 UNL     1      -5.368 -33.431 -27.909  1.00  0.00     0.067 C
BRANCH  24  25
HETATM   25  C13 UNL     1      -5.721 -32.745 -26.605  1.00  0.00     0.130 C
HETATM   26  S1  UNL     1      -5.056 -33.608 -25.162  1.00  0.00    -0.092 SA
ENDBRANCH  24  25
ENDBRANCH  22  24
ENDBRANCH   1  22
TORSDOF 10
ENDMDL