MODEL 2
REMARK VINA RESULT: -6.734556561      2.785      5.101
REMARK  6 active torsions:
REMARK  status: ('A' for Active; 'I' for Inactive)
REMARK    1  A    between atoms: C3_3  and  C4_4
REMARK    2  A    between atoms: C4_4  and  C5_5
REMARK    3  A    between atoms: C5_5  and  N1_6
REMARK    4  A    between atoms: C8_9  and  C9_10
REMARK    5  A    between atoms: C8_9  and  N3_13
REMARK       I    between atoms: N3_13  and  C11_15
REMARK    6  A    between atoms: C11_15  and  C12_17
ROOT
HETATM    1  C1  UNL     1      19.402  11.000  14.099  1.00  0.00     0.096 C
HETATM    2  C2  UNL     1      19.425   9.860  14.767  1.00  0.00    -0.188 C
HETATM    3  C3  UNL     1      19.363   8.702  15.376  1.00  0.00     0.081 C
ENDROOT
BRANCH   3   4
HETATM    4  C4  UNL     1      18.341   7.773  14.915  1.00  0.00     0.031 C
BRANCH   4   5
HETATM    5  C5  UNL     1      18.683   7.120  13.578  1.00  0.00     0.128 C
BRANCH   5   6
HETATM    6  N1  UNL     1      18.127   5.822  13.506  1.00  0.00    -0.374 N
HETATM    7  C6  UNL     1      16.836   5.676  13.001  1.00  0.00     0.065 C
HETATM    8  C7  UNL     1      16.011   4.543  13.497  1.00  0.00     0.077 C
HETATM    9  C8  UNL     1      16.735   3.490  14.249  1.00  0.00     0.053 C
HETATM   10  C15 UNL     1      17.896   4.013  15.061  1.00  0.00     0.077 C
HETATM   11  C16 UNL     1      18.802   4.752  14.103  1.00  0.00     0.065 C
BRANCH   9  12
HETATM   12  C9  UNL     1      17.293   2.476  13.232  1.00  0.00     0.155 C
HETATM   13  C10 UNL     1      16.306   2.085  12.255  1.00  0.00     0.061 C
HETATM   14  N2  UNL     1      15.505   1.772  11.487  1.00  0.00    -0.197 NA
ENDBRANCH   9  12
BRANCH   9  15
HETATM   15  N3  UNL     1      15.880   2.749  15.145  1.00  0.00    -0.350 N
HETATM   16  C11 UNL     1      16.310   1.793  16.093  1.00  0.00     0.222 C
HETATM   17  O1  UNL     1      17.530   1.530  16.198  1.00  0.00    -0.273 OA
ATOM     18  H3  UNL     1      14.878   2.932  15.090  1.00  0.00     0.163 HD
BRANCH  16  19
HETATM   19  C12 UNL     1      15.362   1.081  16.976  1.00  0.00     0.078 A
HETATM   20  C13 UNL     1      14.876   1.806  18.172  1.00  0.00     0.015 A
HETATM   21  C14 UNL     1      13.968   1.544  16.983  1.00  0.00     0.015 A
ENDBRANCH  16  19
ENDBRANCH   9  15
ENDBRANCH   5   6
ENDBRANCH   4   5
ENDBRANCH   3   4
TORSDOF 6
ENDMDL