MODEL 2
REMARK VINA RESULT: -6.018675184      1.277      1.634
REMARK  6 active torsions:
REMARK  status: ('A' for Active; 'I' for Inactive)
REMARK    1  A    between atoms: C3_3  and  N1_4
REMARK    2  A    between atoms: N1_4  and  C4_7
REMARK    3  A    between atoms: C4_7  and  C5_8
REMARK    4  A    between atoms: C5_8  and  N2_9
REMARK    5  A    between atoms: N2_9  and  C6_12
REMARK    6  A    between atoms: C13_19  and  O1_20
ROOT
HETATM    1  C1  UNL     1      18.226  -2.370  11.368  1.00  0.00     0.013 C
HETATM    2  C2  UNL     1      17.570  -1.395  11.609  1.00  0.00    -0.090 C
HETATM    3  C3  UNL     1      16.790  -0.152  11.884  1.00  0.00     0.324 C
ENDROOT
BRANCH   3   4
HETATM    4  N1  UNL     1      17.770   0.836  12.344  1.00  0.00    -0.064 N
ATOM      5  H12 UNL     1      17.357   1.569  12.922  1.00  0.00     0.278 HD
ATOM      6  H11 UNL     1      18.413   0.464  13.043  1.00  0.00     0.278 HD
BRANCH   4   7
HETATM    7  C4  UNL     1      18.436   1.346  11.195  1.00  0.00     0.260 C
BRANCH   7   8
HETATM    8  C5  UNL     1      18.736   2.822  11.296  1.00  0.00     0.260 C
BRANCH   8   9
HETATM    9  N2  UNL     1      18.982   3.261  12.631  1.00  0.00    -0.065 N
ATOM     10  H22 UNL     1      18.721   2.539  13.303  1.00  0.00     0.278 HD
ATOM     11  H21 UNL     1      19.984   3.310  12.817  1.00  0.00     0.278 HD
BRANCH   9  12
HETATM   12  C6  UNL     1      18.342   4.509  12.946  1.00  0.00     0.129 C
HETATM   13  C7  UNL     1      19.109   5.343  13.914  1.00  0.00     0.043 C
HETATM   14  C8  UNL     1      18.310   6.548  14.297  1.00  0.00    -0.009 C
HETATM   15  C9  UNL     1      18.132   7.452  13.076  1.00  0.00     0.009 C
HETATM   16  C15 UNL     1      16.934   6.248  14.799  1.00  0.00     0.043 C
HETATM   17  C10 UNL     1      17.410   6.618  12.032  1.00  0.00    -0.009 C
HETATM   18  C11 UNL     1      18.194   5.385  11.688  1.00  0.00     0.043 C
HETATM   19  C12 UNL     1      16.035   6.286  12.525  1.00  0.00     0.043 C
HETATM   20  C13 UNL     1      16.178   5.443  13.801  1.00  0.00     0.063 C
HETATM   21  C16 UNL     1      16.934   4.216  13.387  1.00  0.00     0.076 C
BRANCH  20  22
HETATM   22  O1  UNL     1      14.915   5.090  14.183  1.00  0.00    -0.385 OA
HETATM   23  C14 UNL     1      14.818   4.167  15.195  1.00  0.00     0.202 C
ENDBRANCH  20  22
ENDBRANCH   9  12
ENDBRANCH   8   9
ENDBRANCH   7   8
ENDBRANCH   4   7
ENDBRANCH   3   4
TORSDOF 6
ENDMDL