MODEL 1
REMARK VINA RESULT: -7.267362094      0.000      0.000
REMARK  7 active torsions:
REMARK  status: ('A' for Active; 'I' for Inactive)
REMARK    1  A    between atoms: C1_2  and  C2_4
REMARK    2  A    between atoms: C2_4  and  O2_5
REMARK    3  A    between atoms: N2_8  and  C4_9
REMARK    4  A    between atoms: C4_9  and  C5_10
REMARK    5  A    between atoms: C6_11  and  C7_12
REMARK    6  A    between atoms: C7_12  and  C8_13
REMARK    7  A    between atoms: C8_13  and  C9_14
ROOT
HETATM    1  C4  UNL     1      17.420   5.124  12.524  1.00  0.00     0.300 C
ENDROOT
BRANCH   1   2
HETATM    2  N2  UNL     1      17.981   3.926  11.917  1.00  0.00     0.098 N
HETATM    3  C3  UNL     1      17.629   3.749  10.523  1.00  0.00     0.322 C
HETATM    4  C2  UNL     1      17.443   2.279  10.814  1.00  0.00     0.188 C
HETATM    5  C15 UNL     1      17.149   2.776  12.214  1.00  0.00     0.322 C
BRANCH   4   6
HETATM    6  C1  UNL     1      18.699   1.505  10.752  1.00  0.00     0.269 C
HETATM    7  N1  UNL     1      19.626   1.713   9.673  1.00  0.00    -0.059 NA
HETATM    8  O1  UNL     1      18.957   0.668  11.638  1.00  0.00    -0.273 OA
ENDBRANCH   4   6
BRANCH   4   9
HETATM    9  O2  UNL     1      16.361   1.691  10.167  1.00  0.00    -0.377 OA
ATOM     10  H2  UNL     1      16.005   2.194   9.444  1.00  0.00     0.211 HD
ENDBRANCH   4   9
ENDBRANCH   1   2
BRANCH   1  11
HETATM   11  C5  UNL     1      17.731   5.159  13.962  1.00  0.00    -0.001 C
HETATM   12  C6  UNL     1      16.840   5.254  14.903  1.00  0.00    -0.029 C
BRANCH  12  13
HETATM   13  C7  UNL     1      15.384   5.343  14.694  1.00  0.00     0.027 C
BRANCH  13  14
HETATM   14  C8  UNL     1      14.801   3.939  14.786  1.00  0.00     0.008 C
BRANCH  14  15
HETATM   15  C9  UNL     1      15.378   3.174  15.945  1.00  0.00    -0.014 C
HETATM   16  C10 UNL     1      14.302   3.011  16.988  1.00  0.00     0.004 C
HETATM   17  C11 UNL     1      13.676   1.618  16.880  1.00  0.00     0.000 C
HETATM   18  C12 UNL     1      14.734   0.620  17.292  1.00  0.00     0.000 C
HETATM   19  C13 UNL     1      16.109   1.005  16.792  1.00  0.00     0.000 C
HETATM   20  C14 UNL     1      16.020   1.891  15.547  1.00  0.00     0.004 C
ENDBRANCH  14  15
ENDBRANCH  13  14
ENDBRANCH  12  13
ENDBRANCH   1  11
TORSDOF 7
ENDMDL