MODEL 4
REMARK VINA RESULT: -6.440483679      3.198      6.510
REMARK  7 active torsions:
REMARK  status: ('A' for Active; 'I' for Inactive)
REMARK    1  A    between atoms: C3_3  and  O1_4
REMARK    2  A    between atoms: O1_4  and  C4_5
REMARK    3  A    between atoms: C4_5  and  C5_6
REMARK    4  A    between atoms: C5_6  and  O2_7
REMARK    5  A    between atoms: C8_11  and  C9_12
REMARK    6  A    between atoms: C9_12  and  C10_13
REMARK       I    between atoms: C10_13  and  N1_15
REMARK    7  A    between atoms: N1_15  and  C11_17
ROOT
HETATM    1  C1  UNL     1      14.794   2.459  18.981  1.00  0.00     0.014 C
HETATM    2  C2  UNL     1      14.975   1.575  18.187  1.00  0.00    -0.091 C
HETATM    3  C3  UNL     1      15.186   0.449  17.205  1.00  0.00     0.260 C
ENDROOT
BRANCH   3   4
HETATM    4  O1  UNL     1      15.090   0.987  15.966  1.00  0.00    -0.377 OA
BRANCH   4   5
HETATM    5  C4  UNL     1      16.123   1.667  15.458  1.00  0.00     0.206 C
BRANCH   5   6
HETATM    6  C5  UNL     1      15.950   3.033  14.948  1.00  0.00     0.079 C
HETATM    7  C6  UNL     1      14.826   3.854  15.547  1.00  0.00     0.040 C
HETATM    8  C7  UNL     1      14.966   5.108  14.644  1.00  0.00     0.008 C
HETATM    9  C8  UNL     1      16.462   5.327  14.665  1.00  0.00    -0.003 C
HETATM   10  C15 UNL     1      17.092   3.965  14.996  1.00  0.00     0.045 C
BRANCH   6  11
HETATM   11  O2  UNL     1      15.521   2.970  13.558  1.00  0.00    -0.388 OA
ATOM     12  H2  UNL     1      14.923   2.240  13.452  1.00  0.00     0.210 HD
ENDBRANCH   6  11
BRANCH   9  13
HETATM   13  C9  UNL     1      16.952   5.752  13.321  1.00  0.00     0.107 C
BRANCH  13  14
HETATM   14  C10 UNL     1      18.203   6.541  13.438  1.00  0.00     0.218 C
HETATM   15  O3  UNL     1      19.192   6.204  12.743  1.00  0.00    -0.274 OA
HETATM   16  N1  UNL     1      18.274   7.650  14.317  1.00  0.00    -0.356 N
ATOM     17  H1  UNL     1      17.469   7.922  14.880  1.00  0.00     0.162 HD
BRANCH  16  18
HETATM   18  C11 UNL     1      19.503   8.383  14.397  1.00  0.00     0.084 C
HETATM   19  C12 UNL     1      19.840   8.947  15.769  1.00  0.00     0.025 C
HETATM   20  C13 UNL     1      20.412  10.153  15.034  1.00  0.00     0.004 C
HETATM   21  C14 UNL     1      19.398   9.842  13.931  1.00  0.00     0.025 C
ENDBRANCH  16  18
ENDBRANCH  13  14
ENDBRANCH   9  13
ENDBRANCH   5   6
ENDBRANCH   4   5
ENDBRANCH   3   4
TORSDOF 7
ENDMDL