MODEL 5
REMARK VINA RESULT: -6.847481694      3.040      5.337
REMARK  7 active torsions:
REMARK  status: ('A' for Active; 'I' for Inactive)
REMARK    1  A    between atoms: C2_2  and  N1_4
REMARK    2  A    between atoms: N1_4  and  C4_6
REMARK    3  A    between atoms: C4_6  and  C5_7
REMARK    4  A    between atoms: C5_7  and  O1_8
REMARK    5  A    between atoms: C5_7  and  C6_10
REMARK    6  A    between atoms: C6_10  and  N2_11
REMARK    7  A    between atoms: N3_16  and  C11_17
ROOT
HETATM    1  N2  UNL     1      17.627   4.050  12.233  1.00  0.00    -0.329 N
HETATM    2  C7  UNL     1      18.411   4.843  13.159  1.00  0.00     0.159 C
HETATM    3  C8  UNL     1      17.539   6.041  13.441  1.00  0.00     0.053 A
HETATM    4  C9  UNL     1      18.015   7.150  14.293  1.00  0.00     0.035 A
HETATM    5  C10 UNL     1      16.874   6.239  14.743  1.00  0.00     0.035 A
HETATM    6  N3  UNL     1      16.900   6.266  12.177  1.00  0.00    -0.319 N
HETATM    7  C14 UNL     1      16.773   5.006  11.562  1.00  0.00     0.321 C
HETATM    8  O2  UNL     1      16.012   4.777  10.568  1.00  0.00    -0.247 OA
ENDROOT
BRANCH   1   9
HETATM    9  C6  UNL     1      17.587   2.672  11.931  1.00  0.00     0.164 C
BRANCH   9  10
HETATM   10  C5  UNL     1      16.372   1.895  12.365  1.00  0.00     0.174 C
BRANCH  10  11
HETATM   11  C4  UNL     1      16.753   0.606  13.032  1.00  0.00     0.089 C
BRANCH  11  12
HETATM   12  N1  UNL     1      16.848   0.663  14.414  1.00  0.00    -0.396 N
ATOM     13  H1  UNL     1      17.489   0.014  14.870  1.00  0.00     0.159 HD
BRANCH  12  14
HETATM   14  C2  UNL     1      16.136   1.536  15.223  1.00  0.00     0.072 C
HETATM   15  C1  UNL     1      15.356   1.021  16.382  1.00  0.00     0.031 C
HETATM   16  C3  UNL     1      17.082   2.608  15.796  1.00  0.00     0.031 C
ENDBRANCH  12  14
ENDBRANCH  11  12
ENDBRANCH  10  11
BRANCH  10  17
HETATM   17  O1  UNL     1      15.476   1.693  11.315  1.00  0.00    -0.389 OA
ATOM     18  H1  UNL     1      15.552   2.367  10.650  1.00  0.00     0.210 HD
ENDBRANCH  10  17
ENDBRANCH   9  10
ENDBRANCH   1   9
BRANCH   6  19
HETATM   19  C11 UNL     1      16.464   7.547  11.628  1.00  0.00     0.081 C
HETATM   20  C12 UNL     1      17.036   7.733  10.234  1.00  0.00     0.032 C
HETATM   21  C13 UNL     1      14.941   7.571  11.456  1.00  0.00     0.032 C
ENDBRANCH   6  19
TORSDOF 7
ENDMDL