MODEL 3
REMARK VINA RESULT: -6.199692491      0.879      1.145
REMARK  6 active torsions:
REMARK  status: ('A' for Active; 'I' for Inactive)
REMARK    1  A    between atoms: C1_2  and  C2_4
REMARK    2  A    between atoms: C2_4  and  C3_5
REMARK    3  A    between atoms: C2_4  and  C8_10
REMARK    4  A    between atoms: C3_5  and  C4_6
REMARK    5  A    between atoms: C8_10  and  C9_11
REMARK    6  A    between atoms: C8_10  and  N1_14
ROOT
HETATM    1  C2  UNL     1      16.535   1.836  13.690  1.00  0.00     0.120 C
ENDROOT
BRANCH   1   2
HETATM    2  C1  UNL     1      16.754   0.373  13.820  1.00  0.00     0.179 C
HETATM    3  O1  UNL     1      17.297  -0.306  12.890  1.00  0.00    -0.648 OA
HETATM    4  O2  UNL     1      16.371  -0.322  14.969  1.00  0.00    -0.648 OA
ENDBRANCH   1   2
BRANCH   1   5
HETATM    5  C3  UNL     1      16.983   2.456  14.975  1.00  0.00     0.022 C
BRANCH   5   6
HETATM    6  C4  UNL     1      16.012   3.005  15.910  1.00  0.00    -0.014 C
HETATM    7  C5  UNL     1      14.667   3.479  15.293  1.00  0.00     0.005 C
HETATM    8  C6  UNL     1      14.178   3.422  16.758  1.00  0.00     0.001 C
HETATM    9  C7  UNL     1      15.196   2.241  16.863  1.00  0.00     0.005 C
ENDBRANCH   5   6
ENDBRANCH   1   5
BRANCH   1  10
HETATM   10  C8  UNL     1      17.369   2.369  12.522  1.00  0.00     0.200 C
BRANCH  10  11
HETATM   11  C9  UNL     1      16.471   2.524  11.332  1.00  0.00     0.197 C
HETATM   12  O3  UNL     1      15.313   2.057  11.408  1.00  0.00    -0.646 OA
HETATM   13  O4  UNL     1      16.839   3.152  10.160  1.00  0.00    -0.646 OA
ENDBRANCH  10  11
BRANCH  10  14
HETATM   14  N1  UNL     1      17.914   3.667  12.816  1.00  0.00    -0.359 N
HETATM   15  C10 UNL     1      19.260   4.200  12.889  1.00  0.00     0.131 C
HETATM   16  C11 UNL     1      18.709   5.199  13.888  1.00  0.00     0.089 C
HETATM   17  C12 UNL     1      17.458   4.970  13.114  1.00  0.00     0.077 C
HETATM   18  S1  UNL     1      16.177   5.923  12.807  1.00  0.00    -0.065 SA
ENDBRANCH  10  14
ENDBRANCH   1  10
TORSDOF 6
ENDMDL