MODEL 2
REMARK VINA RESULT: -6.348336306      2.903      6.323
REMARK  7 active torsions:
REMARK  status: ('A' for Active; 'I' for Inactive)
REMARK    1  A    between atoms: C2_2  and  C3_3
REMARK    2  A    between atoms: C9_10  and  N2_11
REMARK    3  A    between atoms: N2_11  and  C10_13
REMARK    4  A    between atoms: C10_13  and  C11_17
REMARK    5  A    between atoms: C11_17  and  C12_18
REMARK    6  A    between atoms: C13_19  and  C14_20
REMARK    7  A    between atoms: C14_20  and  O1_21
ROOT
HETATM    1  N2  UNL     1      16.780   1.052  13.185  1.00  0.00    -0.373 N
ATOM      2  H2  UNL     1      17.133   0.338  13.822  1.00  0.00     0.161 HD
ENDROOT
BRANCH   1   3
HETATM    3  C9  UNL     1      16.212   2.273  13.756  1.00  0.00     0.122 C
HETATM    4  C3  UNL     1      17.250   3.303  14.024  1.00  0.00     0.038 C
HETATM    5  C4  UNL     1      17.334   3.423  15.530  1.00  0.00     0.280 C
HETATM    6  N1  UNL     1      16.692   2.245  16.064  1.00  0.00     0.100 N
HETATM    7  C5  UNL     1      15.619   2.564  16.991  1.00  0.00     0.221 C
HETATM    8  C8  UNL     1      15.675   1.898  15.095  1.00  0.00     0.248 C
HETATM    9  C6  UNL     1      15.219   1.288  17.727  1.00  0.00     0.043 C
HETATM   10  C7  UNL     1      14.739   2.828  15.762  1.00  0.00     0.073 C
BRANCH   4  11
HETATM   11  C2  UNL     1      16.960   4.640  13.394  1.00  0.00     0.004 C
HETATM   12  C1  UNL     1      16.704   5.724  14.379  1.00  0.00     0.005 C
ENDBRANCH   4  11
ENDBRANCH   1   3
BRANCH   1  13
HETATM   13  C10 UNL     1      16.862   0.815  11.807  1.00  0.00     0.074 C
HETATM   14  N3  UNL     1      15.956   1.232  11.015  1.00  0.00    -0.389 N
ATOM     15  H32 UNL     1      15.159   1.749  11.387  1.00  0.00     0.157 HD
ATOM     16  H31 UNL     1      16.016   1.059  10.011  1.00  0.00     0.157 HD
BRANCH  13  17
HETATM   17  C11 UNL     1      18.010   0.071  11.271  1.00  0.00     0.102 C
BRANCH  17  18
HETATM   18  C12 UNL     1      18.909   0.899  10.455  1.00  0.00    -0.021 C
HETATM   19  C13 UNL     1      19.547   1.927  10.975  1.00  0.00    -0.005 C
BRANCH  19  20
HETATM   20  C14 UNL     1      20.467   2.774  10.142  1.00  0.00     0.194 C
BRANCH  20  21
HETATM   21  O1  UNL     1      20.195   2.483   8.824  1.00  0.00    -0.392 OA
HETATM   22  C15 UNL     1      20.590   3.504   7.961  1.00  0.00     0.201 C
ENDBRANCH  20  21
ENDBRANCH  19  20
ENDBRANCH  17  18
ENDBRANCH  13  17
ENDBRANCH   1  13
TORSDOF 7
ENDMDL