MODEL 4
REMARK VINA RESULT: -6.223117336      0.817      1.170
REMARK  6 active torsions:
REMARK  status: ('A' for Active; 'I' for Inactive)
REMARK    1  A    between atoms: N1_2  and  C2_5
REMARK    2  A    between atoms: N2_7  and  C4_8
REMARK    3  A    between atoms: C4_8  and  C5_9
REMARK    4  A    between atoms: C5_9  and  C6_10
REMARK    5  A    between atoms: C6_10  and  N3_11
REMARK    6  A    between atoms: C12_21  and  C13_22
ROOT
HETATM    1  C2  UNL     1      15.867   1.477  15.061  1.00  0.00     0.219 C
HETATM    2  C3  UNL     1      16.101   2.601  14.062  1.00  0.00     0.305 C
HETATM    3  N2  UNL     1      15.927   3.847  14.749  1.00  0.00     0.091 N
HETATM    4  C11 UNL     1      15.146   3.513  15.898  1.00  0.00     0.279 C
HETATM    5  C12 UNL     1      15.855   2.232  16.360  1.00  0.00     0.050 C
ENDROOT
BRANCH   3   6
HETATM    6  C4  UNL     1      17.142   4.547  14.995  1.00  0.00     0.274 C
BRANCH   6   7
HETATM    7  C5  UNL     1      17.610   5.283  13.780  1.00  0.00     0.050 C
BRANCH   7   8
HETATM    8  C6  UNL     1      19.109   5.079  13.543  1.00  0.00     0.121 C
BRANCH   8   9
HETATM    9  N3  UNL     1      19.308   3.768  13.051  1.00  0.00    -0.395 N
HETATM   10  C7  UNL     1      19.544   3.587  11.814  1.00  0.00     0.009 A
HETATM   11  C8  UNL     1      19.762   2.236  11.231  1.00  0.00     0.081 A
HETATM   12  C10 UNL     1      19.641   4.621  10.778  1.00  0.00     0.284 A
HETATM   13  C9  UNL     1      20.028   2.534   9.796  1.00  0.00     0.238 A
HETATM   14  N4  UNL     1      19.865   3.927   9.549  1.00  0.00    -0.070 N
ATOM     15  H42 UNL     1      20.652   4.317   9.028  1.00  0.00     0.277 HD
ATOM     16  H41 UNL     1      19.129   4.110   8.866  1.00  0.00     0.277 HD
ATOM     17  H3  UNL     1      19.263   2.970  13.685  1.00  0.00     0.159 HD
ENDBRANCH   8   9
ENDBRANCH   7   8
ENDBRANCH   6   7
ENDBRANCH   3   6
BRANCH   1  18
HETATM   18  N1  UNL     1      16.834   0.435  14.987  1.00  0.00    -0.073 N
HETATM   19  C1  UNL     1      16.876  -0.105  13.664  1.00  0.00     0.267 C
ATOM     20  H12 UNL     1      16.671  -0.286  15.688  1.00  0.00     0.277 HD
ATOM     21  H11 UNL     1      17.754   0.745  15.301  1.00  0.00     0.277 HD
ENDBRANCH   1  18
BRANCH   5  22
HETATM   22  C13 UNL     1      15.084   1.542  17.442  1.00  0.00    -0.015 C
HETATM   23  C14 UNL     1      13.753   1.116  16.884  1.00  0.00     0.010 C
HETATM   24  C15 UNL     1      14.963   2.330  18.703  1.00  0.00     0.010 C
ENDBRANCH   5  22
TORSDOF 6
ENDMDL