MODEL 3
REMARK VINA RESULT: -8.082235235      1.278      1.943
REMARK  9 active torsions:
REMARK  status: ('A' for Active; 'I' for Inactive)
REMARK       I    between atoms: N2_6  and  C5_7
REMARK    1  A    between atoms: C5_7  and  C6_9
REMARK    2  A    between atoms: C6_9  and  C7_12
REMARK    3  A    between atoms: C7_12  and  O2_13
REMARK    4  A    between atoms: C7_12  and  C8_16
REMARK    5  A    between atoms: C8_16  and  C9_19
REMARK    6  A    between atoms: C9_19  and  C11_22
REMARK    7  A    between atoms: C11_22  and  O3_23
REMARK    8  A    between atoms: C11_22  and  C12_25
REMARK    9  A    between atoms: C12_25  and  C13_27
ROOT
HETATM    1  C7  UNL     1      17.718   3.472  12.718  1.00  0.00     0.348 C
HETATM    2  F3  UNL     1      17.401   4.738  12.343  1.00  0.00    -0.197 F
ENDROOT
BRANCH   1   3
HETATM    3  C6  UNL     1      17.720   2.628  11.446  1.00  0.00     0.388 C
HETATM    4  F1  UNL     1      16.502   2.040  11.253  1.00  0.00    -0.189 F
HETATM    5  F2  UNL     1      18.746   1.727  11.528  1.00  0.00    -0.189 F
BRANCH   3   6
HETATM    6  C5  UNL     1      18.000   3.516  10.287  1.00  0.00     0.299 C
HETATM    7  N2  UNL     1      19.270   3.840   9.811  1.00  0.00    -0.345 N
HETATM    8  C4  UNL     1      19.303   4.727   8.637  1.00  0.00     0.127 C
HETATM    9  C14 UNL     1      20.402   3.289  10.513  1.00  0.00     0.156 C
HETATM   10  C3  UNL     1      19.964   6.014   9.028  1.00  0.00     0.050 C
HETATM   11  C2  UNL     1      21.471   5.816   8.843  1.00  0.00     0.273 C
HETATM   12  N1  UNL     1      21.981   5.012   9.919  1.00  0.00     0.085 N
HETATM   13  C1  UNL     1      23.422   5.232  10.059  1.00  0.00     0.309 C
HETATM   14  C15 UNL     1      21.687   3.614   9.728  1.00  0.00     0.291 C
HETATM   15  O1  UNL     1      17.014   4.033   9.665  1.00  0.00    -0.266 OA
ENDBRANCH   3   6
ENDBRANCH   1   3
BRANCH   1  16
HETATM   16  O2  UNL     1      18.992   3.492  13.241  1.00  0.00    -0.352 OA
ATOM     17  H2  UNL     1      19.369   4.353  13.099  1.00  0.00     0.213 HD
ENDBRANCH   1  16
BRANCH   1  18
HETATM   18  C8  UNL     1      16.777   2.826  13.701  1.00  0.00     0.347 C
HETATM   19  F4  UNL     1      17.057   1.483  13.694  1.00  0.00    -0.196 F
HETATM   20  F5  UNL     1      15.454   2.964  13.281  1.00  0.00    -0.196 F
BRANCH  18  21
HETATM   21  C9  UNL     1      16.822   3.424  15.080  1.00  0.00     0.199 C
HETATM   22  C10 UNL     1      15.767   4.564  15.061  1.00  0.00     0.061 C
HETATM   23  F6  UNL     1      18.040   4.067  15.203  1.00  0.00    -0.234 F
BRANCH  21  24
HETATM   24  C11 UNL     1      16.480   2.484  16.167  1.00  0.00     0.206 C
BRANCH  24  25
HETATM   25  O3  UNL     1      17.579   1.565  16.358  1.00  0.00    -0.389 OA
ATOM     26  H3  UNL     1      17.263   0.677  16.243  1.00  0.00     0.210 HD
ENDBRANCH  24  25
BRANCH  24  27
HETATM   27  C12 UNL     1      15.287   1.621  16.084  1.00  0.00     0.309 C
HETATM   28  F7  UNL     1      14.215   2.575  15.839  1.00  0.00    -0.237 F
BRANCH  27  29
HETATM   29  C13 UNL     1      14.805   0.984  17.362  1.00  0.00     0.420 C
HETATM   30  F8  UNL     1      14.997   1.821  18.453  1.00  0.00    -0.168 F
HETATM   31  F9  UNL     1      13.384   0.885  17.297  1.00  0.00    -0.168 F
HETATM   32  F10 UNL     1      15.228  -0.280  17.551  1.00  0.00    -0.168 F
ENDBRANCH  27  29
ENDBRANCH  24  27
ENDBRANCH  21  24
ENDBRANCH  18  21
ENDBRANCH   1  18
TORSDOF 9
ENDMDL