MODEL 2
REMARK VINA RESULT: -8.208488491      2.965      4.546
REMARK  9 active torsions:
REMARK  status: ('A' for Active; 'I' for Inactive)
REMARK    1  A    between atoms: C2_2  and  C3_4
REMARK    2  A    between atoms: C2_2  and  C6_12
REMARK    3  A    between atoms: C3_4  and  C4_6
REMARK    4  A    between atoms: C4_6  and  C5_8
REMARK    5  A    between atoms: C6_12  and  C7_15
REMARK    6  A    between atoms: C7_15  and  N1_16
REMARK    7  A    between atoms: C7_15  and  O1_20
REMARK    8  A    between atoms: C7_15  and  C8_22
REMARK    9  A    between atoms: C8_22  and  C9_24
REMARK       I    between atoms: C9_24  and  N2_26
ROOT
HETATM    1  C7  UNL     1      17.972   4.904  12.815  1.00  0.00     0.317 C
ENDROOT
BRANCH   1   2
HETATM    2  C6  UNL     1      17.492   5.376  11.500  1.00  0.00     0.342 C
HETATM    3  F6  UNL     1      16.482   4.502  11.114  1.00  0.00    -0.197 F
HETATM    4  F7  UNL     1      18.611   5.087  10.640  1.00  0.00    -0.197 F
BRANCH   2   5
HETATM    5  C2  UNL     1      17.149   6.761  11.228  1.00  0.00     0.207 C
HETATM    6  C1  UNL     1      17.870   7.213   9.908  1.00  0.00     0.065 C
HETATM    7  F1  UNL     1      17.464   7.717  12.155  1.00  0.00    -0.231 F
BRANCH   5   8
HETATM    8  C3  UNL     1      15.686   6.995  10.907  1.00  0.00     0.077 C
HETATM    9 CL1  UNL     1      14.605   6.942  12.295  1.00  0.00    -0.086 Cl
BRANCH   8  10
HETATM   10  C4  UNL     1      15.309   8.050   9.972  1.00  0.00     0.321 C
HETATM   11  F2  UNL     1      14.852   9.242  10.420  1.00  0.00    -0.234 F
BRANCH  10  12
HETATM   12  C5  UNL     1      14.231   7.560   8.984  1.00  0.00     0.422 C
HETATM   13  F3  UNL     1      14.183   6.162   9.158  1.00  0.00    -0.168 F
HETATM   14  F4  UNL     1      12.998   8.044   9.286  1.00  0.00    -0.168 F
HETATM   15  F5  UNL     1      14.599   7.822   7.679  1.00  0.00    -0.168 F
ENDBRANCH  10  12
ENDBRANCH   8  10
ENDBRANCH   5   8
ENDBRANCH   2   5
ENDBRANCH   1   2
BRANCH   1  16
HETATM   16  N1  UNL     1      19.315   5.363  13.130  1.00  0.00    -0.039 N
ATOM     17  H13 UNL     1      19.617   5.007  14.037  1.00  0.00     0.278 HD
ATOM     18  H12 UNL     1      20.005   4.906  12.533  1.00  0.00     0.278 HD
ATOM     19  H11 UNL     1      19.413   6.377  13.087  1.00  0.00     0.278 HD
ENDBRANCH   1  16
BRANCH   1  20
HETATM   20  O1  UNL     1      18.192   3.484  12.588  1.00  0.00    -0.359 OA
ATOM     21  H1  UNL     1      18.893   3.279  13.196  1.00  0.00     0.212 HD
ENDBRANCH   1  20
BRANCH   1  22
HETATM   22  C8  UNL     1      17.094   4.962  13.998  1.00  0.00     0.243 C
HETATM   23 CL2  UNL     1      17.203   6.437  14.960  1.00  0.00    -0.110 Cl
BRANCH  22  24
HETATM   24  C9  UNL     1      17.359   3.810  14.927  1.00  0.00     0.243 C
HETATM   25  O2  UNL     1      18.568   3.548  15.262  1.00  0.00    -0.272 OA
HETATM   26  N2  UNL     1      16.377   2.981  15.468  1.00  0.00    -0.342 N
HETATM   27  C10 UNL     1      16.592   1.885  16.381  1.00  0.00     0.169 C
HETATM   28  C13 UNL     1      14.964   3.010  15.235  1.00  0.00     0.208 C
HETATM   29  C11 UNL     1      15.527   2.173  17.442  1.00  0.00     0.261 C
HETATM   30  F8  UNL     1      15.251   1.050  18.192  1.00  0.00    -0.241 F
HETATM   31  C12 UNL     1      14.373   2.628  16.603  1.00  0.00     0.291 C
HETATM   32  F9  UNL     1      13.510   1.542  16.413  1.00  0.00    -0.201 F
HETATM   33  F10 UNL     1      13.752   3.682  17.201  1.00  0.00    -0.201 F
ENDBRANCH  22  24
ENDBRANCH   1  22
TORSDOF 9
ENDMDL