MODEL 1
REMARK VINA RESULT: -7.013994034      0.000      0.000
REMARK  10 active torsions:
REMARK  status: ('A' for Active; 'I' for Inactive)
REMARK    1  A    between atoms: O1_2  and  C2_3
REMARK    2  A    between atoms: C2_3  and  C3_4
REMARK    3  A    between atoms: N1_8  and  C4_9
REMARK    4  A    between atoms: C4_9  and  C5_10
REMARK    5  A    between atoms: C5_10  and  N2_11
REMARK    6  A    between atoms: C5_10  and  C6_15
REMARK    7  A    between atoms: C6_15  and  N3_16
REMARK    8  A    between atoms: C6_15  and  C7_21
REMARK    9  A    between atoms: C7_21  and  C8_24
REMARK   10  A    between atoms: C8_24  and  C9_26
ROOT
HETATM    1  C5  UNL     1      16.683   3.177  13.558  1.00  0.00     0.275 C
ENDROOT
BRANCH   1   2
HETATM    2  C4  UNL     1      17.127   4.352  12.788  1.00  0.00     0.167 C
BRANCH   2   3
HETATM    3  N1  UNL     1      18.425   4.292  12.190  1.00  0.00    -0.315 N
HETATM    4  C2  UNL     1      19.029   4.264  10.877  1.00  0.00     0.263 C
HETATM    5  C11 UNL     1      20.166   3.340  11.069  1.00  0.00     0.084 C
HETATM    6  N4  UNL     1      20.630   3.581  12.402  1.00  0.00    -0.353 N
HETATM    7  C12 UNL     1      21.269   3.336  10.064  1.00  0.00     0.043 C
HETATM    8  C13 UNL     1      19.625   1.918  11.081  1.00  0.00     0.043 C
HETATM    9  C10 UNL     1      19.598   4.232  13.083  1.00  0.00     0.173 C
ATOM     10  H4  UNL     1      21.541   3.326  12.782  1.00  0.00     0.162 HD
HETATM   11  S1  UNL     1      19.693   4.817  14.607  1.00  0.00    -0.041 SA
BRANCH   4  12
HETATM   12  O1  UNL     1      18.116   3.868   9.967  1.00  0.00    -0.356 OA
HETATM   13  C1  UNL     1      16.922   4.453   9.804  1.00  0.00     0.205 C
ENDBRANCH   4  12
BRANCH   4  14
HETATM   14  C3  UNL     1      19.424   5.720  10.681  1.00  0.00     0.440 C
HETATM   15  F1  UNL     1      19.415   5.931   9.303  1.00  0.00    -0.166 F
HETATM   16  F2  UNL     1      20.599   6.121  11.169  1.00  0.00    -0.166 F
HETATM   17  F3  UNL     1      18.466   6.606  11.166  1.00  0.00    -0.166 F
ENDBRANCH   4  14
ENDBRANCH   2   3
ENDBRANCH   1   2
BRANCH   1  18
HETATM   18  N2  UNL     1      16.213   2.122  12.644  1.00  0.00    -0.068 N
ATOM     19  H23 UNL     1      15.980   2.492  11.722  1.00  0.00     0.275 HD
ATOM     20  H22 UNL     1      16.967   1.493  12.367  1.00  0.00     0.275 HD
ATOM     21  H21 UNL     1      15.430   1.620  13.063  1.00  0.00     0.275 HD
ENDBRANCH   1  18
BRANCH   1  22
HETATM   22  C6  UNL     1      15.594   3.357  14.557  1.00  0.00     0.359 C
HETATM   23  F4  UNL     1      14.474   2.637  14.062  1.00  0.00    -0.202 F
BRANCH  22  24
HETATM   24  N3  UNL     1      15.152   4.747  14.632  1.00  0.00    -0.034 N
ATOM     25  H33 UNL     1      15.906   5.390  14.391  1.00  0.00     0.278 HD
ATOM     26  H32 UNL     1      14.504   4.972  13.877  1.00  0.00     0.278 HD
ATOM     27  H31 UNL     1      14.752   4.968  15.544  1.00  0.00     0.278 HD
ENDBRANCH  22  24
BRANCH  22  28
HETATM   28  C7  UNL     1      15.816   2.819  15.930  1.00  0.00     0.345 C
HETATM   29  F5  UNL     1      15.066   3.458  16.858  1.00  0.00    -0.197 F
HETATM   30  F6  UNL     1      17.195   2.925  16.236  1.00  0.00    -0.197 F
BRANCH  28  31
HETATM   31  C8  UNL     1      15.575   1.305  15.962  1.00  0.00     0.354 C
HETATM   32  F7  UNL     1      16.772   0.618  15.938  1.00  0.00    -0.233 F
BRANCH  31  33
HETATM   33  C9  UNL     1      14.854   0.999  17.254  1.00  0.00     0.423 C
HETATM   34  F8  UNL     1      15.031  -0.329  17.623  1.00  0.00    -0.168 F
HETATM   35  F9  UNL     1      13.497   1.251  17.120  1.00  0.00    -0.168 F
HETATM   36  F10 UNL     1      15.318   1.750  18.314  1.00  0.00    -0.168 F
ENDBRANCH  31  33
ENDBRANCH  28  31
ENDBRANCH  22  28
ENDBRANCH   1  22
TORSDOF 10
ENDMDL