MODEL 3
REMARK VINA RESULT: -7.301963860      1.029      1.420
REMARK  9 active torsions:
REMARK  status: ('A' for Active; 'I' for Inactive)
REMARK    1  A    between atoms: C2_5  and  C3_6
REMARK    2  A    between atoms: C3_6  and  C4_8
REMARK    3  A    between atoms: C4_8  and  C5_11
REMARK    4  A    between atoms: C5_11  and  O2_12
REMARK    5  A    between atoms: C5_11  and  C6_14
REMARK    6  A    between atoms: C6_14  and  C7_17
REMARK    7  A    between atoms: C7_17  and  C8_20
REMARK    8  A    between atoms: C8_20  and  C9_23
REMARK    9  A    between atoms: C10_26  and  C11_27
ROOT
HETATM    1  C11 UNL     1      15.835   1.948  16.102  1.00  0.00    -0.042 C
HETATM    2  C12 UNL     1      15.371   2.143  17.226  1.00  0.00     0.010 C
HETATM    3 CL2  UNL     1      14.721   2.460  18.801  1.00  0.00    -0.023 Cl
ENDROOT
BRANCH   1   4
HETATM    4  C10 UNL     1      16.326   1.725  14.765  1.00  0.00     0.116 A
HETATM    5  C2  UNL     1      16.425   2.798  13.879  1.00  0.00     0.101 A
HETATM    6  N1  UNL     1      16.825   2.422  12.635  1.00  0.00    -0.304 N
HETATM    7  C1  UNL     1      17.105   1.130  12.291  1.00  0.00     0.327 A
ATOM      8  H1  UNL     1      16.922   3.144  11.920  1.00  0.00     0.171 HD
HETATM    9  O1  UNL     1      17.469   0.897  11.104  1.00  0.00    -0.247 OA
HETATM   10  N2  UNL     1      17.006   0.121  13.158  1.00  0.00    -0.274 N
HETATM   11  C13 UNL     1      16.617   0.421  14.388  1.00  0.00     0.270 A
ATOM     12  H2  UNL     1      17.220  -0.838  12.885  1.00  0.00     0.173 HD
HETATM   13  O3  UNL     1      16.497  -0.497  15.281  1.00  0.00    -0.266 OA
BRANCH   5  14
HETATM   14  C3  UNL     1      16.250   4.191  14.294  1.00  0.00     0.196 C
HETATM   15  F1  UNL     1      15.227   4.875  13.740  1.00  0.00    -0.202 F
BRANCH  14  16
HETATM   16  C4  UNL     1      17.482   5.014  14.543  1.00  0.00     0.330 C
HETATM   17  F2  UNL     1      18.296   4.279  15.323  1.00  0.00    -0.195 F
HETATM   18  F3  UNL     1      17.146   6.130  15.308  1.00  0.00    -0.195 F
BRANCH  16  19
HETATM   19  C5  UNL     1      18.051   5.535  13.251  1.00  0.00     0.276 C
BRANCH  19  20
HETATM   20  O2  UNL     1      17.867   6.915  13.206  1.00  0.00    -0.383 OA
ATOM     21  H2  UNL     1      18.390   7.270  12.497  1.00  0.00     0.210 HD
ENDBRANCH  19  20
BRANCH  19  22
HETATM   22  C6  UNL     1      19.293   5.018  12.705  1.00  0.00     0.345 C
HETATM   23  F4  UNL     1      20.273   5.860  13.474  1.00  0.00    -0.196 F
HETATM   24  F5  UNL     1      19.720   3.786  13.077  1.00  0.00    -0.196 F
BRANCH  22  25
HETATM   25  C7  UNL     1      19.740   5.497  11.332  1.00  0.00     0.378 C
HETATM   26  F6  UNL     1      20.367   6.764  11.435  1.00  0.00    -0.192 F
HETATM   27  F7  UNL     1      18.703   5.755  10.458  1.00  0.00    -0.192 F
BRANCH  25  28
HETATM   28  C8  UNL     1      20.672   4.592  10.620  1.00  0.00     0.357 C
HETATM   29  F8  UNL     1      21.147   5.367   9.518  1.00  0.00    -0.195 F
HETATM   30  F9  UNL     1      21.767   4.163  11.278  1.00  0.00    -0.195 F
BRANCH  28  31
HETATM   31  C9  UNL     1      19.954   3.470   9.838  1.00  0.00     0.344 C
HETATM   32  F10 UNL     1      20.296   2.260  10.443  1.00  0.00    -0.226 F
HETATM   33 CL1  UNL     1      20.572   3.393   8.149  1.00  0.00    -0.083 Cl
ENDBRANCH  28  31
ENDBRANCH  25  28
ENDBRANCH  22  25
ENDBRANCH  19  22
ENDBRANCH  16  19
ENDBRANCH  14  16
ENDBRANCH   5  14
ENDBRANCH   1   4
TORSDOF 9
ENDMDL