MODEL 1
REMARK VINA RESULT: -7.734889036      0.000      0.000
REMARK  12 active torsions:
REMARK  status: ('A' for Active; 'I' for Inactive)
REMARK    1  A    between atoms: C2_2  and  O1_3
REMARK    2  A    between atoms: C2_2  and  C3_5
REMARK    3  A    between atoms: C2_2  and  C13_29
REMARK    4  A    between atoms: C3_5  and  O2_6
REMARK    5  A    between atoms: C3_5  and  C4_8
REMARK    6  A    between atoms: C4_8  and  N1_9
REMARK    7  A    between atoms: C4_8  and  C9_15
REMARK    8  A    between atoms: C9_15  and  C10_18
REMARK    9  A    between atoms: C10_18  and  O4_19
REMARK   10  A    between atoms: C10_18  and  C11_21
REMARK   11  A    between atoms: C10_18  and  C12_25
REMARK   12  A    between atoms: C13_29  and  C14_32
ROOT
HETATM    1  C4  UNL     1      17.041   3.569  12.952  1.00  0.00     0.122 C
ENDROOT
BRANCH   1   2
HETATM    2  C3  UNL     1      17.872   2.549  12.305  1.00  0.00     0.112 C
BRANCH   2   3
HETATM    3  C2  UNL     1      17.718   1.873  11.051  1.00  0.00     0.175 C
HETATM    4  C1  UNL     1      18.972   1.310  10.393  1.00  0.00     0.060 C
BRANCH   3   5
HETATM    5  O1  UNL     1      17.063   2.522  10.016  1.00  0.00    -0.377 OA
ATOM      6  H1  UNL     1      16.653   3.267  10.439  1.00  0.00     0.211 HD
ENDBRANCH   3   5
BRANCH   3   7
HETATM    7  C13 UNL     1      16.836   0.637  11.288  1.00  0.00     0.337 C
HETATM    8  F9  UNL     1      15.671   1.095  11.867  1.00  0.00    -0.196 F
HETATM    9  F10 UNL     1      16.429   0.121  10.053  1.00  0.00    -0.196 F
BRANCH   7  10
HETATM   10  C14 UNL     1      17.442  -0.407  12.141  1.00  0.00     0.428 C
HETATM   11  F11 UNL     1      17.198  -1.661  11.564  1.00  0.00    -0.208 F
HETATM   12  F12 UNL     1      16.756  -0.496  13.377  1.00  0.00    -0.208 F
ENDBRANCH   7  10
ENDBRANCH   3   7
ENDBRANCH   2   3
BRANCH   2  13
HETATM   13  O2  UNL     1      19.245   2.902  12.452  1.00  0.00    -0.360 OA
ATOM     14  H2  UNL     1      19.472   3.503  11.752  1.00  0.00     0.217 HD
ENDBRANCH   2  13
ENDBRANCH   1   2
BRANCH   1  15
HETATM   15  N1  UNL     1      17.341   4.945  12.557  1.00  0.00    -0.314 N
HETATM   16  C5  UNL     1      18.351   5.883  12.950  1.00  0.00     0.133 C
HETATM   17  C6  UNL     1      17.699   7.279  12.952  1.00  0.00     0.029 C
HETATM   18  C7  UNL     1      16.761   7.163  11.802  1.00  0.00     0.105 C
HETATM   19  C8  UNL     1      16.595   5.707  11.573  1.00  0.00     0.224 C
HETATM   20  O3  UNL     1      15.881   5.235  10.624  1.00  0.00    -0.273 OA
ENDBRANCH   1  15
BRANCH   1  21
HETATM   21  C9  UNL     1      16.776   3.409  14.402  1.00  0.00     0.336 C
HETATM   22  F1  UNL     1      17.688   4.045  15.196  1.00  0.00    -0.195 F
HETATM   23  F2  UNL     1      17.098   2.014  14.635  1.00  0.00    -0.195 F
BRANCH  21  24
HETATM   24  C10 UNL     1      15.397   3.483  14.920  1.00  0.00     0.326 C
BRANCH  24  25
HETATM   25  O4  UNL     1      14.376   3.201  14.030  1.00  0.00    -0.369 OA
ATOM     26  H4  UNL     1      13.516   3.036  14.398  1.00  0.00     0.211 HD
ENDBRANCH  24  25
BRANCH  24  27
HETATM   27  C11 UNL     1      15.103   2.736  16.190  1.00  0.00     0.433 C
HETATM   28  F3  UNL     1      13.900   3.037  16.771  1.00  0.00    -0.167 F
HETATM   29  F4  UNL     1      14.999   1.353  15.927  1.00  0.00    -0.167 F
HETATM   30  F5  UNL     1      16.098   2.792  17.139  1.00  0.00    -0.167 F
ENDBRANCH  24  27
BRANCH  24  31
HETATM   31  C12 UNL     1      15.119   4.965  15.290  1.00  0.00     0.433 C
HETATM   32  F6  UNL     1      16.286   5.673  15.488  1.00  0.00    -0.167 F
HETATM   33  F7  UNL     1      14.514   5.616  14.234  1.00  0.00    -0.167 F
HETATM   34  F8  UNL     1      14.370   4.958  16.418  1.00  0.00    -0.167 F
ENDBRANCH  24  31
ENDBRANCH  21  24
ENDBRANCH   1  21
TORSDOF 12
ENDMDL