MODEL 1
REMARK VINA RESULT: -7.906518487      0.000      0.000
REMARK  9 active torsions:
REMARK  status: ('A' for Active; 'I' for Inactive)
REMARK    1  A    between atoms: C3_5  and  C4_6
REMARK    2  A    between atoms: C4_6  and  C5_9
REMARK    3  A    between atoms: C5_9  and  O1_10
REMARK    4  A    between atoms: N2_17  and  C8_18
REMARK    5  A    between atoms: C8_18  and  C9_19
REMARK    6  A    between atoms: C8_18  and  C12_25
REMARK    7  A    between atoms: C9_19  and  C10_20
REMARK    8  A    between atoms: C10_20  and  C11_21
REMARK    9  A    between atoms: C13_28  and  C14_29
ROOT
HETATM    1  C1  UNL     1      16.662   2.632  15.886  1.00  0.00     0.034 C
HETATM    2  C2  UNL     1      16.875   3.103  14.494  1.00  0.00     0.109 C
HETATM    3  N1  UNL     1      16.841   1.898  13.643  1.00  0.00    -0.379 N
ATOM      4  H1  UNL     1      16.811   1.017  14.155  1.00  0.00     0.160 HD
HETATM    5  C3  UNL     1      16.843   1.762  12.229  1.00  0.00     0.128 C
HETATM    6  C6  UNL     1      16.820   2.737  11.336  1.00  0.00     0.212 C
HETATM    7  F4  UNL     1      16.828   2.339  10.056  1.00  0.00    -0.198 F
HETATM    8  C7  UNL     1      16.790   4.198  11.623  1.00  0.00     0.286 C
HETATM    9  O2  UNL     1      17.086   4.848  10.604  1.00  0.00    -0.265 OA
HETATM   10  N2  UNL     1      16.478   4.839  12.859  1.00  0.00    -0.316 N
HETATM   11  C13 UNL     1      15.896   4.141  13.990  1.00  0.00     0.218 C
ENDROOT
BRANCH  10  12
HETATM   12  C8  UNL     1      16.812   6.234  12.881  1.00  0.00     0.189 C
BRANCH  12  13
HETATM   13  C9  UNL     1      18.305   6.367  12.790  1.00  0.00     0.045 C
BRANCH  13  14
HETATM   14  C10 UNL     1      19.029   6.502  14.096  1.00  0.00     0.120 C
BRANCH  14  15
HETATM   15  C11 UNL     1      18.990   7.963  14.582  1.00  0.00     0.388 C
HETATM   16  F5  UNL     1      18.759   8.812  13.531  1.00  0.00    -0.171 F
HETATM   17  F6  UNL     1      20.191   8.318  15.165  1.00  0.00    -0.171 F
HETATM   18  F7  UNL     1      18.007   8.158  15.511  1.00  0.00    -0.171 F
ENDBRANCH  14  15
ENDBRANCH  13  14
ENDBRANCH  12  13
BRANCH  12  19
HETATM   19  C12 UNL     1      16.029   7.049  11.936  1.00  0.00     0.197 C
HETATM   20  O3  UNL     1      14.800   6.927  11.707  1.00  0.00    -0.646 OA
HETATM   21  O4  UNL     1      16.636   8.055  11.197  1.00  0.00    -0.646 OA
ENDBRANCH  12  19
ENDBRANCH  10  12
BRANCH  11  22
HETATM   22  C14 UNL     1      15.250   4.952  15.024  1.00  0.00     0.409 C
HETATM   23  F8  UNL     1      16.136   5.863  15.559  1.00  0.00    -0.169 F
HETATM   24  F9  UNL     1      14.531   4.296  15.993  1.00  0.00    -0.169 F
HETATM   25  F10 UNL     1      14.312   5.783  14.376  1.00  0.00    -0.169 F
ENDBRANCH  11  22
BRANCH   5  26
HETATM   26  C4  UNL     1      16.872   0.388  11.685  1.00  0.00     0.341 C
HETATM   27  F1  UNL     1      15.798   0.117  10.883  1.00  0.00    -0.193 F
HETATM   28  F2  UNL     1      16.790  -0.482  12.780  1.00  0.00    -0.193 F
BRANCH  26  29
HETATM   29  C5  UNL     1      18.170   0.080  10.978  1.00  0.00     0.384 C
HETATM   30  F3  UNL     1      18.723  -1.030  11.608  1.00  0.00    -0.213 F
BRANCH  29  31
HETATM   31  O1  UNL     1      17.959  -0.254   9.657  1.00  0.00    -0.362 OA
ATOM     32  H1  UNL     1      18.258  -1.136   9.469  1.00  0.00     0.213 HD
ENDBRANCH  29  31
ENDBRANCH  26  29
ENDBRANCH   5  26
TORSDOF 9
ENDMDL