MODEL 4
REMARK VINA RESULT: -7.514334279      2.007      3.445
REMARK  9 active torsions:
REMARK  status: ('A' for Active; 'I' for Inactive)
REMARK    1  A    between atoms: C2_2  and  O1_3
REMARK    2  A    between atoms: C2_2  and  N1_5
REMARK    3  A    between atoms: C2_2  and  C7_18
REMARK       I    between atoms: N1_5  and  C3_7
REMARK    4  A    between atoms: C3_7  and  C4_9
REMARK    5  A    between atoms: C4_9  and  C5_12
REMARK    6  A    between atoms: C5_12  and  C6_14
REMARK    7  A    between atoms: C7_18  and  C8_21
REMARK    8  A    between atoms: C8_21  and  C9_24
REMARK    9  A    between atoms: C9_24  and  C10_26
ROOT
HETATM    1  C1  UNL     1      16.871  -0.330  12.392  1.00  0.00     0.077 C
HETATM    2  C2  UNL     1      17.071   1.133  12.155  1.00  0.00     0.204 C
ENDROOT
BRANCH   2   3
HETATM    3  O1  UNL     1      15.950   1.740  11.583  1.00  0.00    -0.366 OA
ATOM      4  H1  UNL     1      15.244   1.863  12.206  1.00  0.00     0.212 HD
ENDBRANCH   2   3
BRANCH   2   5
HETATM    5  N1  UNL     1      17.325   1.822  13.386  1.00  0.00    -0.319 N
HETATM    6  C3  UNL     1      16.222   2.387  14.080  1.00  0.00     0.294 C
HETATM    7  O2  UNL     1      15.032   2.314  13.665  1.00  0.00    -0.267 OA
ATOM      8  H1  UNL     1      18.273   1.904  13.753  1.00  0.00     0.165 HD
BRANCH   6   9
HETATM    9  C4  UNL     1      16.417   3.120  15.377  1.00  0.00     0.343 C
HETATM   10  F1  UNL     1      15.727   4.296  15.404  1.00  0.00    -0.194 F
HETATM   11  F2  UNL     1      17.778   3.461  15.388  1.00  0.00    -0.194 F
BRANCH   9  12
HETATM   12  C5  UNL     1      16.190   2.232  16.551  1.00  0.00     0.218 C
HETATM   13 CL1  UNL     1      16.362   0.514  16.179  1.00  0.00    -0.114 Cl
BRANCH  12  14
HETATM   14  C6  UNL     1      14.845   2.458  17.152  1.00  0.00     0.211 C
HETATM   15 CL2  UNL     1      14.969   2.352  18.944  1.00  0.00    -0.082 Cl
HETATM   16 CL3  UNL     1      13.714   1.163  16.655  1.00  0.00    -0.082 Cl
HETATM   17 CL4  UNL     1      14.142   4.035  16.723  1.00  0.00    -0.082 Cl
ENDBRANCH  12  14
ENDBRANCH   9  12
ENDBRANCH   6   9
ENDBRANCH   2   5
BRANCH   2  18
HETATM   18  C7  UNL     1      18.199   1.299  11.157  1.00  0.00     0.363 C
HETATM   19  F3  UNL     1      17.879   0.593  10.042  1.00  0.00    -0.193 F
HETATM   20  F4  UNL     1      19.363   0.696  11.671  1.00  0.00    -0.193 F
BRANCH  18  21
HETATM   21  C8  UNL     1      18.564   2.733  10.931  1.00  0.00     0.377 C
HETATM   22  F5  UNL     1      18.770   3.360  12.169  1.00  0.00    -0.190 F
HETATM   23  F6  UNL     1      17.586   3.479  10.310  1.00  0.00    -0.190 F
BRANCH  21  24
HETATM   24  C9  UNL     1      19.801   2.902  10.136  1.00  0.00     0.268 C
HETATM   25  O3  UNL     1      19.993   2.470   9.018  1.00  0.00    -0.285 OA
BRANCH  24  26
HETATM   26  C10 UNL     1      20.909   3.671  10.761  1.00  0.00     0.428 C
HETATM   27  F7  UNL     1      22.056   3.430   9.992  1.00  0.00    -0.206 F
HETATM   28  F8  UNL     1      20.663   5.030  10.709  1.00  0.00    -0.206 F
ENDBRANCH  24  26
ENDBRANCH  21  24
ENDBRANCH  18  21
ENDBRANCH   2  18
TORSDOF 9
ENDMDL