MODEL 5
REMARK VINA RESULT: -7.966783737      1.236      2.594
REMARK  8 active torsions:
REMARK  status: ('A' for Active; 'I' for Inactive)
REMARK    1  A    between atoms: C2_2  and  C3_4
REMARK    2  A    between atoms: C2_2  and  C9_15
REMARK       I    between atoms: C3_4  and  N1_6
REMARK    3  A    between atoms: N1_6  and  C4_8
REMARK    4  A    between atoms: C4_8  and  C5_9
REMARK    5  A    between atoms: C5_9  and  C6_10
REMARK    6  A    between atoms: C6_10  and  C7_11
REMARK    7  A    between atoms: C7_11  and  C8_12
REMARK    8  A    between atoms: C12_22  and  C13_23
ROOT
HETATM    1  C9  UNL     1      17.813   4.361  13.561  1.00  0.00     0.192 C
HETATM    2  C10 UNL     1      17.232   3.309  12.610  1.00  0.00     0.321 C
HETATM    3  F2  UNL     1      15.859   3.223  12.670  1.00  0.00    -0.199 F
HETATM    4  F3  UNL     1      17.638   2.045  13.084  1.00  0.00    -0.199 F
HETATM    5  C11 UNL     1      17.762   3.356  11.223  1.00  0.00     0.326 C
HETATM    6  F4  UNL     1      17.561   4.479  10.507  1.00  0.00    -0.199 F
HETATM    7  F5  UNL     1      17.083   2.335  10.535  1.00  0.00    -0.199 F
HETATM    8  C12 UNL     1      19.210   2.954  11.335  1.00  0.00     0.250 C
HETATM    9  C14 UNL     1      19.952   3.906  12.193  1.00  0.00     0.326 C
HETATM   10  F9  UNL     1      20.966   3.113  12.789  1.00  0.00    -0.199 F
HETATM   11  F10 UNL     1      20.780   4.742  11.400  1.00  0.00    -0.199 F
HETATM   12  C15 UNL     1      19.203   4.670  13.218  1.00  0.00     0.321 C
HETATM   13  F11 UNL     1      19.392   6.019  12.848  1.00  0.00    -0.199 F
HETATM   14  F12 UNL     1      20.035   4.586  14.367  1.00  0.00    -0.199 F
ENDROOT
BRANCH   1  15
HETATM   15  C2  UNL     1      16.843   5.402  13.923  1.00  0.00     0.195 C
HETATM   16  C1  UNL     1      17.273   6.576  14.752  1.00  0.00     0.063 C
HETATM   17  F1  UNL     1      16.397   6.049  12.709  1.00  0.00    -0.232 F
BRANCH  15  18
HETATM   18  C3  UNL     1      15.551   4.994  14.508  1.00  0.00     0.258 C
HETATM   19  O1  UNL     1      14.457   5.414  14.079  1.00  0.00    -0.270 OA
HETATM   20  N1  UNL     1      15.480   4.081  15.609  1.00  0.00    -0.358 N
ATOM     21  H1  UNL     1      16.353   3.714  15.987  1.00  0.00     0.162 HD
BRANCH  20  22
HETATM   22  C4  UNL     1      14.258   3.658  16.207  1.00  0.00     0.122 C
BRANCH  22  23
HETATM   23  C5  UNL     1      14.394   2.741  17.382  1.00  0.00     0.020 C
BRANCH  23  24
HETATM   24  C6  UNL     1      14.137   1.285  17.039  1.00  0.00     0.010 C
BRANCH  24  25
HETATM   25  C7  UNL     1      15.339   0.424  17.340  1.00  0.00     0.099 C
BRANCH  25  26
HETATM   26  C8  UNL     1      16.298   0.494  16.220  1.00  0.00     0.231 C
HETATM   27  N2  UNL     1      17.367   1.410  16.251  1.00  0.00    -0.062 NA
HETATM   28  O2  UNL     1      16.164  -0.265  15.238  1.00  0.00    -0.277 OA
ENDBRANCH  25  26
ENDBRANCH  24  25
ENDBRANCH  23  24
ENDBRANCH  22  23
ENDBRANCH  20  22
ENDBRANCH  15  18
ENDBRANCH   1  15
BRANCH   8  29
HETATM   29  C13 UNL     1      19.872   2.783   9.997  1.00  0.00     0.403 C
HETATM   30  F6  UNL     1      19.558   1.528   9.469  1.00  0.00    -0.170 F
HETATM   31  F7  UNL     1      19.517   3.705   9.071  1.00  0.00    -0.170 F
HETATM   32  F8  UNL     1      21.243   2.787  10.165  1.00  0.00    -0.170 F
ENDBRANCH   8  29
TORSDOF 8
ENDMDL