MODEL 5
REMARK VINA RESULT: -6.468376948      1.644      2.717
REMARK  8 active torsions:
REMARK  status: ('A' for Active; 'I' for Inactive)
REMARK    1  A    between atoms: C3_3  and  N1_4
REMARK    2  A    between atoms: N1_4  and  C4_5
REMARK    3  A    between atoms: N1_4  and  C7_12
REMARK    4  A    between atoms: C4_5  and  C5_6
REMARK    5  A    between atoms: C5_6  and  C6_7
REMARK    6  A    between atoms: C6_7  and  N2_8
REMARK    7  A    between atoms: C7_12  and  C8_13
REMARK    8  A    between atoms: C8_13  and  C9_14
ROOT
HETATM    1  C1  UNL     1      16.506   2.519  11.387  1.00  0.00     0.013 C
HETATM    2  C2  UNL     1      17.157   3.492  11.092  1.00  0.00    -0.087 C
HETATM    3  C3  UNL     1      17.946   4.700  10.745  1.00  0.00     0.364 C
ENDROOT
BRANCH   3   4
HETATM    4  N1  UNL     1      18.767   5.032  11.863  1.00  0.00     0.099 N
BRANCH   4   5
HETATM    5  C4  UNL     1      19.665   3.950  12.184  1.00  0.00     0.275 C
BRANCH   5   6
HETATM    6  C5  UNL     1      20.954   4.010  11.409  1.00  0.00     0.057 C
BRANCH   6   7
HETATM    7  C6  UNL     1      21.458   5.450  11.457  1.00  0.00     0.231 C
BRANCH   7   8
HETATM    8  N2  UNL     1      22.864   5.493  11.833  1.00  0.00    -0.079 N
ATOM      9  H23 UNL     1      23.123   6.401  12.221  1.00  0.00     0.274 HD
ATOM     10  H22 UNL     1      23.053   4.916  12.652  1.00  0.00     0.274 HD
ATOM     11  H21 UNL     1      23.458   5.236  11.044  1.00  0.00     0.274 HD
ENDBRANCH   7   8
ENDBRANCH   6   7
ENDBRANCH   5   6
ENDBRANCH   4   5
BRANCH   4  12
HETATM   12  C7  UNL     1      18.093   5.599  12.982  1.00  0.00     0.275 C
BRANCH  12  13
HETATM   13  C8  UNL     1      18.359   4.804  14.216  1.00  0.00     0.063 C
BRANCH  13  14
HETATM   14  C9  UNL     1      17.126   4.274  14.883  1.00  0.00     0.188 C
HETATM   15  C10 UNL     1      15.849   4.821  14.328  1.00  0.00     0.033 C
HETATM   16  C11 UNL     1      14.688   4.117  14.995  1.00  0.00     0.009 C
HETATM   17  C12 UNL     1      15.100   3.435  16.282  1.00  0.00     0.016 C
HETATM   18  C13 UNL     1      13.922   2.641  16.805  1.00  0.00     0.007 C
HETATM   19  C17 UNL     1      16.243   2.473  16.070  1.00  0.00     0.190 C
HETATM   20  C14 UNL     1      14.413   1.725  17.917  1.00  0.00     0.001 C
HETATM   21  C15 UNL     1      15.331   0.649  17.408  1.00  0.00     0.002 C
HETATM   22  C16 UNL     1      15.747   1.046  15.987  1.00  0.00     0.033 C
HETATM   23  N3  UNL     1      17.043   2.837  14.915  1.00  0.00    -0.066 N
ATOM     24  H32 UNL     1      16.689   2.440  14.045  1.00  0.00     0.278 HD
ATOM     25  H31 UNL     1      17.957   2.386  14.905  1.00  0.00     0.278 HD
ENDBRANCH  13  14
ENDBRANCH  12  13
ENDBRANCH   4  12
ENDBRANCH   3   4
TORSDOF 8
ENDMDL