MODEL 3
REMARK VINA RESULT: -5.390209901      1.516      2.471
REMARK  10 active torsions:
REMARK  status: ('A' for Active; 'I' for Inactive)
REMARK    1  A    between atoms: S1_2  and  C2_3
REMARK    2  A    between atoms: C2_3  and  C3_4
REMARK    3  A    between atoms: C2_3  and  C5_10
REMARK    4  A    between atoms: C3_4  and  C4_5
REMARK    5  A    between atoms: C4_5  and  N1_6
REMARK    6  A    between atoms: C5_10  and  N2_12
REMARK    7  A    between atoms: N2_12  and  C7_14
REMARK    8  A    between atoms: C7_14  and  C8_15
REMARK    9  A    between atoms: C9_16  and  C10_17
REMARK   10  A    between atoms: C10_17  and  N3_18
ROOT
HETATM    1  N2  UNL     1      18.233   6.222  13.265  1.00  0.00    -0.385 N
ATOM      2  H2  UNL     1      19.248   6.115  13.247  1.00  0.00     0.160 HD
ENDROOT
BRANCH   1   3
HETATM    3  C5  UNL     1      17.423   5.920  12.122  1.00  0.00    -0.007 C
HETATM    4  C6  UNL     1      16.912   7.137  11.409  1.00  0.00     0.064 C
BRANCH   3   5
HETATM    5  C2  UNL     1      17.883   4.796  11.288  1.00  0.00     0.093 C
BRANCH   5   6
HETATM    6  S1  UNL     1      19.271   3.966  12.139  1.00  0.00    -0.163 SA
HETATM    7  C1  UNL     1      20.845   4.344  11.291  1.00  0.00     0.090 C
ENDBRANCH   5   6
BRANCH   5   8
HETATM    8  C3  UNL     1      16.884   3.785  10.864  1.00  0.00     0.048 C
BRANCH   8   9
HETATM    9  C4  UNL     1      16.738   2.541  11.634  1.00  0.00     0.231 C
BRANCH   9  10
HETATM   10  N1  UNL     1      15.783   1.669  10.963  1.00  0.00    -0.079 N
ATOM     11  H13 UNL     1      14.857   1.711  11.387  1.00  0.00     0.274 HD
ATOM     12  H12 UNL     1      15.533   2.011  10.035  1.00  0.00     0.274 HD
ATOM     13  H11 UNL     1      16.155   0.719  10.937  1.00  0.00     0.274 HD
ENDBRANCH   9  10
ENDBRANCH   8   9
ENDBRANCH   5   8
ENDBRANCH   3   5
ENDBRANCH   1   3
BRANCH   1  14
HETATM   14  C7  UNL     1      17.539   6.685  14.441  1.00  0.00     0.214 C
BRANCH  14  15
HETATM   15  C8  UNL     1      16.486   5.702  14.821  1.00  0.00    -0.081 C
HETATM   16  C9  UNL     1      15.641   4.913  15.164  1.00  0.00    -0.060 C
BRANCH  16  17
HETATM   17  C10 UNL     1      14.626   3.958  15.624  1.00  0.00     0.151 C
BRANCH  17  18
HETATM   18  N3  UNL     1      15.063   2.703  15.970  1.00  0.00    -0.379 N
HETATM   19  C11 UNL     1      16.007   1.967  15.267  1.00  0.00     0.123 C
HETATM   20  C12 UNL     1      16.194   0.630  15.996  1.00  0.00     0.022 C
HETATM   21  C13 UNL     1      15.116   0.604  17.031  1.00  0.00     0.026 C
HETATM   22  C14 UNL     1      14.475   1.959  17.010  1.00  0.00     0.080 C
HETATM   23  C15 UNL     1      14.598   2.545  18.389  1.00  0.00     0.032 C
ENDBRANCH  17  18
ENDBRANCH  16  17
ENDBRANCH  14  15
ENDBRANCH   1  14
TORSDOF 10
ENDMDL