MODEL 3
REMARK VINA RESULT: -5.859068243      1.336      1.796
REMARK  8 active torsions:
REMARK  status: ('A' for Active; 'I' for Inactive)
REMARK    1  A    between atoms: C2_2  and  C3_3
REMARK    2  A    between atoms: C2_2  and  N1_6
REMARK    3  A    between atoms: C3_3  and  O1_4
REMARK       I    between atoms: N1_6  and  C4_8
REMARK       I    between atoms: C4_8  and  N2_10
REMARK    4  A    between atoms: N2_10  and  C6_12
REMARK    5  A    between atoms: C8_14  and  C9_15
REMARK    6  A    between atoms: C9_15  and  O3_16
REMARK    7  A    between atoms: C9_15  and  C13_20
REMARK    8  A    between atoms: O3_16  and  C10_17
ROOT
HETATM    1  C6  UNL     1      15.955   4.843  14.678  1.00  0.00     0.095 A
HETATM    2  C7  UNL     1      16.522   6.274  14.975  1.00  0.00     0.035 A
HETATM    3  C8  UNL     1      15.875   5.889  13.704  1.00  0.00     0.040 A
ENDROOT
BRANCH   1   4
HETATM    4  N2  UNL     1      16.959   3.888  14.976  1.00  0.00    -0.333 N
HETATM    5  C4  UNL     1      16.692   2.904  15.963  1.00  0.00     0.318 C
HETATM    6  N1  UNL     1      15.528   2.713  16.700  1.00  0.00    -0.337 N
HETATM    7  O2  UNL     1      17.645   2.078  16.212  1.00  0.00    -0.247 OA
ATOM      8  H1  UNL     1      14.733   3.335  16.549  1.00  0.00     0.164 HD
HETATM    9  C5  UNL     1      18.277   3.832  14.369  1.00  0.00     0.155 C
BRANCH   6  10
HETATM   10  C2  UNL     1      15.422   1.639  17.689  1.00  0.00     0.105 C
HETATM   11  C1  UNL     1      14.678   2.107  18.920  1.00  0.00     0.034 C
BRANCH  10  12
HETATM   12  C3  UNL     1      14.645   0.482  17.098  1.00  0.00     0.189 C
BRANCH  12  13
HETATM   13  O1  UNL     1      15.476  -0.347  16.349  1.00  0.00    -0.399 OA
ATOM     14  H1  UNL     1      15.305  -0.251  15.419  1.00  0.00     0.209 HD
ENDBRANCH  12  13
ENDBRANCH  10  12
ENDBRANCH   6  10
ENDBRANCH   1   4
BRANCH   3  15
HETATM   15  C9  UNL     1      16.494   5.970  12.347  1.00  0.00     0.131 C
BRANCH  15  16
HETATM   16  O3  UNL     1      16.205   4.933  11.531  1.00  0.00    -0.381 OA
BRANCH  16  17
HETATM   17  C10 UNL     1      17.126   4.027  11.154  1.00  0.00     0.114 C
HETATM   18  C11 UNL     1      17.635   4.325   9.766  1.00  0.00     0.039 C
HETATM   19  C12 UNL     1      16.508   2.609  11.036  1.00  0.00     0.039 C
ENDBRANCH  16  17
ENDBRANCH  15  16
BRANCH  15  20
HETATM   20  C13 UNL     1      16.073   7.272  11.652  1.00  0.00     0.007 C
HETATM   21  C14 UNL     1      17.310   7.940  11.041  1.00  0.00     0.012 C
HETATM   22  C15 UNL     1      15.082   7.031  10.536  1.00  0.00     0.012 C
ENDBRANCH  15  20
ENDBRANCH   3  15
TORSDOF 8
ENDMDL