MODEL 4
REMARK VINA RESULT: -7.110775952      2.582      3.597
REMARK  7 active torsions:
REMARK  status: ('A' for Active; 'I' for Inactive)
REMARK    1  A    between atoms: O1_2  and  C2_3
REMARK    2  A    between atoms: C2_3  and  C3_4
REMARK    3  A    between atoms: C2_3  and  C13_16
REMARK    4  A    between atoms: C4_5  and  C5_6
REMARK    5  A    between atoms: C6_7  and  O2_8
REMARK    6  A    between atoms: C13_16  and  C14_17
REMARK    7  A    between atoms: C15_18  and  C16_19
ROOT
HETATM    1  C3  UNL     1      16.329   2.084  13.572  1.00  0.00     0.001 C
HETATM    2  C4  UNL     1      15.934   2.895  14.546  1.00  0.00    -0.021 C
ENDROOT
BRANCH   2   3
HETATM    3  C5  UNL     1      16.229   2.491  15.940  1.00  0.00     0.041 C
HETATM    4  C6  UNL     1      16.000   0.977  16.043  1.00  0.00     0.130 C
HETATM    5  C7  UNL     1      15.040   0.785  17.198  1.00  0.00     0.019 C
HETATM    6  C8  UNL     1      13.683   1.203  16.732  1.00  0.00     0.008 C
HETATM    7  C11 UNL     1      15.434   1.994  18.062  1.00  0.00    -0.007 C
HETATM    8  C9  UNL     1      13.832   2.715  16.522  1.00  0.00     0.006 C
HETATM    9  C10 UNL     1      15.254   3.030  16.941  1.00  0.00    -0.000 C
HETATM   10  C12 UNL     1      14.517   2.215  19.203  1.00  0.00     0.011 C
BRANCH   4  11
HETATM   11  O2  UNL     1      17.205   0.336  16.247  1.00  0.00    -0.394 OA
ATOM     12  H2  UNL     1      17.748   0.853  16.831  1.00  0.00     0.210 HD
ENDBRANCH   4  11
ENDBRANCH   2   3
BRANCH   1  13
HETATM   13  C2  UNL     1      16.080   2.400  12.135  1.00  0.00     0.146 C
BRANCH  13  14
HETATM   14  O1  UNL     1      16.310   1.333  11.306  1.00  0.00    -0.387 OA
HETATM   15  C1  UNL     1      16.646   0.166  11.984  1.00  0.00     0.202 C
ENDBRANCH  13  14
BRANCH  13  16
HETATM   16  C13 UNL     1      16.854   3.634  11.759  1.00  0.00     0.063 C
BRANCH  16  17
HETATM   17  C14 UNL     1      17.107   3.709  10.315  1.00  0.00    -0.019 C
HETATM   18  C15 UNL     1      18.071   4.477   9.841  1.00  0.00     0.067 C
BRANCH  18  19
HETATM   19  C16 UNL     1      18.336   4.564   8.414  1.00  0.00     0.254 C
HETATM   20  N1  UNL     1      17.295   5.056   7.556  1.00  0.00    -0.058 NA
HETATM   21  O3  UNL     1      19.445   4.220   7.938  1.00  0.00    -0.272 OA
ENDBRANCH  18  19
ENDBRANCH  16  17
ENDBRANCH  13  16
ENDBRANCH   1  13
TORSDOF 7
ENDMDL