MODEL 2
REMARK VINA RESULT: -6.143924621      0.882      1.665
REMARK  7 active torsions:
REMARK  status: ('A' for Active; 'I' for Inactive)
REMARK    1  A    between atoms: N1_4  and  C4_5
REMARK    2  A    between atoms: C4_5  and  C5_6
REMARK    3  A    between atoms: C5_6  and  N2_7
REMARK    4  A    between atoms: N2_7  and  C6_10
REMARK    5  A    between atoms: C6_10  and  C7_11
REMARK    6  A    between atoms: C7_11  and  N3_12
REMARK    7  A    between atoms: N3_12  and  C8_15
ROOT
HETATM    1  N3  UNL     1      18.016   2.840  12.318  1.00  0.00    -0.067 N
ATOM      2  H31 UNL     1      18.856   2.427  11.912  1.00  0.00     0.277 HD
ATOM      3  H32 UNL     1      18.020   2.380  13.228  1.00  0.00     0.277 HD
ENDROOT
BRANCH   1   4
HETATM    4  C7  UNL     1      16.861   2.461  11.572  1.00  0.00     0.260 C
BRANCH   4   5
HETATM    5  C6  UNL     1      16.237   1.236  12.215  1.00  0.00     0.259 C
BRANCH   5   6
HETATM    6  N2  UNL     1      17.178   0.659  13.120  1.00  0.00    -0.072 N
ATOM      7  H22 UNL     1      17.998   1.256  13.222  1.00  0.00     0.277 HD
ATOM      8  H21 UNL     1      17.619  -0.164  12.711  1.00  0.00     0.277 HD
BRANCH   6   9
HETATM    9  C5  UNL     1      16.594   0.346  14.423  1.00  0.00     0.262 C
BRANCH   9  10
HETATM   10  C4  UNL     1      15.936   1.554  15.007  1.00  0.00     0.299 C
BRANCH  10  11
HETATM   11  N1  UNL     1      16.092   1.528  16.449  1.00  0.00     0.090 N
HETATM   12  C3  UNL     1      15.193   0.538  17.038  1.00  0.00     0.272 C
HETATM   13  C2  UNL     1      13.826   1.137  16.967  1.00  0.00     0.032 C
HETATM   14  C1  UNL     1      14.142   2.604  17.225  1.00  0.00     0.032 C
HETATM   15  C17 UNL     1      15.623   2.786  16.977  1.00  0.00     0.272 C
ENDBRANCH  10  11
ENDBRANCH   9  10
ENDBRANCH   6   9
ENDBRANCH   5   6
ENDBRANCH   4   5
ENDBRANCH   1   4
BRANCH   1  16
HETATM   16  C8  UNL     1      18.175   4.248  12.469  1.00  0.00     0.218 C
HETATM   17  C9  UNL     1      16.930   5.068  12.414  1.00  0.00     0.021 C
HETATM   18  C10 UNL     1      17.406   6.512  12.172  1.00  0.00     0.011 C
HETATM   19  C14 UNL     1      16.158   5.025  13.719  1.00  0.00     0.038 C
HETATM   20  C11 UNL     1      18.299   6.906  13.328  1.00  0.00    -0.009 C
HETATM   21  C12 UNL     1      17.532   6.880  14.645  1.00  0.00     0.036 C
HETATM   22  C16 UNL     1      19.491   5.999  13.505  1.00  0.00     0.039 C
HETATM   23  C13 UNL     1      17.074   5.457  14.848  1.00  0.00     0.122 C
HETATM   24  O1  UNL     1      18.136   4.587  14.863  1.00  0.00    -0.378 OA
HETATM   25  C15 UNL     1      18.924   4.593  13.741  1.00  0.00     0.153 C
ENDBRANCH   1  16
TORSDOF 7
ENDMDL