MODEL 3
REMARK VINA RESULT: -6.198477975      2.849      4.454
REMARK  7 active torsions:
REMARK  status: ('A' for Active; 'I' for Inactive)
REMARK    1  A    between atoms: C2_2  and  C4_4
REMARK    2  A    between atoms: C4_4  and  C5_5
REMARK    3  A    between atoms: C5_5  and  C6_6
REMARK    4  A    between atoms: C7_7  and  C8_8
REMARK       I    between atoms: C8_8  and  N1_10
REMARK    5  A    between atoms: C9_12  and  C10_13
REMARK    6  A    between atoms: C10_13  and  N2_14
REMARK    7  A    between atoms: C14_18  and  C15_19
ROOT
HETATM    1  C6  UNL     1      16.084   4.024  14.738  1.00  0.00    -0.011 C
HETATM    2  C7  UNL     1      17.151   4.685  14.390  1.00  0.00     0.071 C
ENDROOT
BRANCH   1   3
HETATM    3  C5  UNL     1      16.110   2.507  15.021  1.00  0.00    -0.008 A
HETATM    4  C13 UNL     1      17.172   2.162  15.984  1.00  0.00     0.030 A
HETATM    5  C14 UNL     1      15.689   2.258  16.390  1.00  0.00     0.100 A
BRANCH   3   6
HETATM    6  C4  UNL     1      15.864   1.838  13.761  1.00  0.00     0.018 C
BRANCH   6   7
HETATM    7  C2  UNL     1      16.774   1.642  12.656  1.00  0.00    -0.022 C
HETATM    8  C1  UNL     1      16.917   0.079  12.565  1.00  0.00     0.009 C
HETATM    9  C3  UNL     1      16.217   1.981  11.286  1.00  0.00     0.009 C
ENDBRANCH   6   7
ENDBRANCH   3   6
BRANCH   5  10
HETATM   10  C15 UNL     1      15.058   1.108  16.996  1.00  0.00     0.178 C
HETATM   11  O2  UNL     1      14.022   0.558  16.573  1.00  0.00    -0.648 OA
HETATM   12  O3  UNL     1      15.602   0.516  18.157  1.00  0.00    -0.648 OA
ENDBRANCH   5  10
ENDBRANCH   1   3
BRANCH   2  13
HETATM   13  C8  UNL     1      17.068   6.108  14.138  1.00  0.00     0.244 C
HETATM   14  O1  UNL     1      17.435   6.947  15.013  1.00  0.00    -0.268 OA
HETATM   15  N1  UNL     1      16.573   6.589  12.909  1.00  0.00    -0.336 N
HETATM   16  C9  UNL     1      16.757   6.036  11.767  1.00  0.00     0.094 C
ATOM     17  H1  UNL     1      16.023   7.447  12.930  1.00  0.00     0.168 HD
BRANCH  16  18
HETATM   18  C10 UNL     1      16.160   6.686  10.586  1.00  0.00     0.315 C
BRANCH  18  19
HETATM   19  N2  UNL     1      15.377   7.855  10.886  1.00  0.00     0.084 N
HETATM   20  C11 UNL     1      15.982   9.042  10.364  1.00  0.00     0.309 C
HETATM   21  C12 UNL     1      14.063   7.693  10.280  1.00  0.00     0.309 C
ENDBRANCH  18  19
ENDBRANCH  16  18
ENDBRANCH   2  13
TORSDOF 7
ENDMDL