MODEL 4
REMARK VINA RESULT: -6.477352955      2.078      3.998
REMARK  6 active torsions:
REMARK  status: ('A' for Active; 'I' for Inactive)
REMARK    1  A    between atoms: C1_2  and  C2_4
REMARK    2  A    between atoms: C2_4  and  C3_5
REMARK    3  A    between atoms: C3_5  and  C4_6
REMARK       I    between atoms: C4_6  and  N1_8
REMARK    4  A    between atoms: N1_8  and  C5_10
REMARK    5  A    between atoms: C5_10  and  C6_11
REMARK    6  A    between atoms: C5_10  and  C11_17
ROOT
HETATM    1  C4  UNL     1      16.239   2.724  15.052  1.00  0.00     0.227 C
HETATM    2  O3  UNL     1      17.430   2.903  15.375  1.00  0.00    -0.273 OA
HETATM    3  N1  UNL     1      16.000   2.503  13.610  1.00  0.00    -0.351 N
ATOM      4  H1  UNL     1      15.056   2.375  13.248  1.00  0.00     0.163 HD
ENDROOT
BRANCH   3   5
HETATM    5  C5  UNL     1      17.135   2.473  12.737  1.00  0.00     0.127 C
BRANCH   5   6
HETATM    6  C6  UNL     1      17.183   3.553  11.684  1.00  0.00     0.083 C
HETATM    7  N2  UNL     1      17.098   4.846  11.982  1.00  0.00    -0.391 N
HETATM    8  C7  UNL     1      17.966   5.699  12.636  1.00  0.00     0.122 C
HETATM    9  C10 UNL     1      16.391   5.676  10.981  1.00  0.00     0.122 C
HETATM   10  C8  UNL     1      17.408   7.128  12.515  1.00  0.00     0.021 C
HETATM   11  C9  UNL     1      16.091   6.920  11.826  1.00  0.00     0.021 C
ENDBRANCH   5   6
BRANCH   5  12
HETATM   12  C11 UNL     1      17.334   1.091  12.147  1.00  0.00     0.013 A
HETATM   13  C12 UNL     1      16.779  -0.135  12.712  1.00  0.00     0.007 A
HETATM   14  C13 UNL     1      16.189   0.477  11.409  1.00  0.00     0.007 A
ENDBRANCH   5  12
ENDBRANCH   3   5
BRANCH   1  15
HETATM   15  C3  UNL     1      15.140   2.739  16.025  1.00  0.00     0.050 A
HETATM   16  C14 UNL     1      14.438   1.477  16.416  1.00  0.00     0.021 A
HETATM   17  C15 UNL     1      15.399   2.053  17.366  1.00  0.00     0.021 A
BRANCH  15  18
HETATM   18  C2  UNL     1      14.508   4.126  16.336  1.00  0.00     0.132 C
BRANCH  18  19
HETATM   19  C1  UNL     1      14.898   5.087  15.265  1.00  0.00     0.173 C
HETATM   20  O1  UNL     1      14.330   5.017  14.150  1.00  0.00    -0.648 OA
HETATM   21  O2  UNL     1      15.857   6.032  15.497  1.00  0.00    -0.648 OA
ENDBRANCH  18  19
ENDBRANCH  15  18
ENDBRANCH   1  15
TORSDOF 6
ENDMDL