MODEL 4
REMARK VINA RESULT: -6.534744213      1.104      1.182
REMARK  8 active torsions:
REMARK  status: ('A' for Active; 'I' for Inactive)
REMARK    1  A    between atoms: N1_1  and  C1_5
REMARK    2  A    between atoms: C1_5  and  C2_6
REMARK    3  A    between atoms: N2_9  and  C5_10
REMARK    4  A    between atoms: C5_10  and  C6_11
REMARK    5  A    between atoms: C5_10  and  C8_16
REMARK    6  A    between atoms: C6_11  and  N3_12
REMARK    7  A    between atoms: N3_12  and  C7_14
REMARK    8  A    between atoms: C8_16  and  C9_17
ROOT
HETATM    1  C5  UNL     1      16.848   3.308  13.903  1.00  0.00     0.106 C
ENDROOT
BRANCH   1   2
HETATM    2  N2  UNL     1      17.780   4.192  13.382  1.00  0.00    -0.368 N
HETATM    3  C4  UNL     1      17.469   5.056  12.322  1.00  0.00     0.064 C
HETATM    4  C3  UNL     1      18.789   5.541  11.728  1.00  0.00     0.051 C
HETATM    5  C2  UNL     1      19.337   6.587  12.666  1.00  0.00     0.020 C
HETATM    6  C16 UNL     1      19.189   6.082  14.074  1.00  0.00     0.051 C
HETATM    7  C15 UNL     1      18.905   4.601  14.125  1.00  0.00     0.064 C
BRANCH   5   8
HETATM    8  C1  UNL     1      20.777   6.931  12.352  1.00  0.00     0.234 C
BRANCH   8   9
HETATM    9  N1  UNL     1      21.569   5.755  12.137  1.00  0.00    -0.079 N
ATOM     10  H13 UNL     1      22.186   5.573  12.928  1.00  0.00     0.274 HD
ATOM     11  H12 UNL     1      20.999   4.910  12.181  1.00  0.00     0.274 HD
ATOM     12  H11 UNL     1      22.091   5.806  11.263  1.00  0.00     0.274 HD
ENDBRANCH   8   9
ENDBRANCH   5   8
ENDBRANCH   1   2
BRANCH   1  13
HETATM   13  C6  UNL     1      16.368   2.234  12.935  1.00  0.00     0.147 C
BRANCH  13  14
HETATM   14  N3  UNL     1      17.325   1.219  12.658  1.00  0.00    -0.366 N
ATOM     15  H3  UNL     1      18.303   1.463  12.501  1.00  0.00     0.161 HD
BRANCH  14  16
HETATM   16  C7  UNL     1      16.911  -0.129  12.603  1.00  0.00     0.348 C
HETATM   17  O1  UNL     1      16.898  -0.721  11.501  1.00  0.00    -0.284 OA
ENDBRANCH  14  16
ENDBRANCH  13  14
ENDBRANCH   1  13
BRANCH   1  18
HETATM   18  C8  UNL     1      17.221   2.564  15.145  1.00  0.00     0.032 C
BRANCH  18  19
HETATM   19  C9  UNL     1      16.210   2.425  16.197  1.00  0.00    -0.013 C
HETATM   20  C10 UNL     1      15.935   0.929  16.361  1.00  0.00     0.005 C
HETATM   21  C11 UNL     1      14.931   0.650  17.420  1.00  0.00     0.000 C
HETATM   22  C12 UNL     1      13.627   1.331  16.982  1.00  0.00     0.000 C
HETATM   23  C13 UNL     1      13.911   2.809  17.041  1.00  0.00     0.000 C
HETATM   24  C14 UNL     1      14.969   3.229  16.039  1.00  0.00     0.005 C
ENDBRANCH  18  19
ENDBRANCH   1  18
TORSDOF 8
ENDMDL