MODEL 3
REMARK VINA RESULT: -6.160406441      1.501      1.948
REMARK  9 active torsions:
REMARK  status: ('A' for Active; 'I' for Inactive)
REMARK    1  A    between atoms: C2_2  and  N1_3
REMARK    2  A    between atoms: N1_3  and  C3_4
REMARK    3  A    between atoms: N1_3  and  C5_8
REMARK    4  A    between atoms: C3_4  and  C4_5
REMARK    5  A    between atoms: C5_8  and  O3_9
REMARK    6  A    between atoms: C5_8  and  C6_11
REMARK    7  A    between atoms: C6_11  and  N2_12
REMARK    8  A    between atoms: N2_12  and  C7_14
REMARK    9  A    between atoms: C7_14  and  S1_16
ROOT
HETATM    1  C6  UNL     1      17.829   4.661  13.634  1.00  0.00     0.092 C
HETATM    2  C10 UNL     1      17.022   5.963  13.596  1.00  0.00     0.039 C
HETATM    3  C11 UNL     1      17.973   7.093  13.473  1.00  0.00     0.003 C
HETATM    4  C12 UNL     1      19.319   6.595  13.834  1.00  0.00     0.003 C
HETATM    5  C13 UNL     1      19.179   5.158  14.146  1.00  0.00     0.039 C
ENDROOT
BRANCH   1   6
HETATM    6  C5  UNL     1      17.315   3.712  14.603  1.00  0.00     0.146 C
BRANCH   6   7
HETATM    7  N1  UNL     1      16.121   2.980  14.661  1.00  0.00    -0.330 N
BRANCH   7   8
HETATM    8  C2  UNL     1      14.867   3.503  14.919  1.00  0.00     0.083 C
HETATM    9  C1  UNL     1      14.614   4.196  16.025  1.00  0.00     0.030 C
ENDBRANCH   7   8
BRANCH   7  10
HETATM   10  C3  UNL     1      16.231   1.528  14.427  1.00  0.00     0.243 C
BRANCH  10  11
HETATM   11  C4  UNL     1      16.256   0.787  15.690  1.00  0.00     0.191 C
HETATM   12  O1  UNL     1      17.334   0.603  16.301  1.00  0.00    -0.647 OA
HETATM   13  O2  UNL     1      15.107   0.261  16.262  1.00  0.00    -0.647 OA
ENDBRANCH  10  11
ENDBRANCH   7  10
ENDBRANCH   6   7
BRANCH   6  14
HETATM   14  O3  UNL     1      18.082   3.469  15.626  1.00  0.00    -0.347 OA
ATOM     15  H3  UNL     1      17.718   3.818  16.432  1.00  0.00     0.219 HD
ENDBRANCH   6  14
ENDBRANCH   1   6
BRANCH   1  16
HETATM   16  N2  UNL     1      18.006   4.172  12.337  1.00  0.00    -0.393 N
ATOM     17  H2  UNL     1      18.964   3.909  12.108  1.00  0.00     0.155 HD
BRANCH  16  18
HETATM   18  C7  UNL     1      17.113   3.991  11.334  1.00  0.00     0.135 C
HETATM   19  C8  UNL     1      16.500   2.714  10.903  1.00  0.00     0.043 C
BRANCH  18  20
HETATM   20  S1  UNL     1      17.838   4.645   9.718  1.00  0.00    -0.149 SA
HETATM   21  C9  UNL     1      19.547   5.107  10.066  1.00  0.00     0.091 C
ENDBRANCH  18  20
ENDBRANCH  16  18
ENDBRANCH   1  16
TORSDOF 9
ENDMDL