MODEL 1
REMARK VINA RESULT: -7.838399054      0.000      0.000
REMARK  2 active torsions:
REMARK  status: ('A' for Active; 'I' for Inactive)
REMARK    1  A    between atoms: C2_2  and  C3_3
REMARK    2  A    between atoms: C5_5  and  C6_6
ROOT
HETATM    1  C6  UNL     1      -8.151  -7.545  11.275  1.00  0.00     0.008 C
HETATM    2  C7  UNL     1      -9.082  -7.278  12.433  1.00  0.00     0.008 C
HETATM    3  C8  UNL     1      -9.306  -8.290  13.438  1.00  0.00     0.003 C
HETATM    4  C9  UNL     1      -9.665  -9.686  13.200  1.00  0.00     0.033 C
HETATM    5  C10 UNL     1     -10.971  -9.956  12.511  1.00  0.00     0.186 C
HETATM    6  C11 UNL     1     -10.911 -11.152  11.553  1.00  0.00     0.035 C
HETATM    7  C12 UNL     1     -10.869 -10.527  10.137  1.00  0.00     0.035 C
HETATM    8  C13 UNL     1     -10.223  -9.223  10.586  1.00  0.00     0.186 C
HETATM    9  C14 UNL     1      -9.991  -8.197   9.621  1.00  0.00     0.034 C
HETATM   10  C15 UNL     1      -8.802  -7.338   9.972  1.00  0.00     0.010 C
HETATM   11  N1  UNL     1     -11.262  -8.885  11.579  1.00  0.00    -0.067 N
ATOM     12  H11 UNL     1     -11.257  -7.934  11.949  1.00  0.00     0.278 HD
ATOM     13  H12 UNL     1     -12.221  -8.811  11.241  1.00  0.00     0.278 HD
ENDROOT
BRANCH   1  14
HETATM   14  C5  UNL     1      -6.926  -6.722  11.389  1.00  0.00    -0.020 C
HETATM   15  C3  UNL     1      -6.494  -5.601  11.013  1.00  0.00    -0.087 C
HETATM   16  C4  UNL     1      -7.140  -4.573  10.202  1.00  0.00     0.043 C
BRANCH  15  17
HETATM   17  C2  UNL     1      -5.063  -5.223  11.440  1.00  0.00     0.029 C
HETATM   18  C1  UNL     1      -4.390  -6.453  11.995  1.00  0.00     0.010 C
ENDBRANCH  15  17
ENDBRANCH   1  14
TORSDOF 2
ENDMDL