MODEL 1
REMARK VINA RESULT: -5.556436646      0.000      0.000
REMARK  3 active torsions:
REMARK  status: ('A' for Active; 'I' for Inactive)
REMARK    1  A    between atoms: C2_2  and  N1_4
REMARK    2  A    between atoms: C2_2  and  C4_8
REMARK    3  A    between atoms: C5_9  and  C6_10
ROOT
HETATM    1  C6  UNL     1      -9.453  -7.550  11.217  1.00  0.00     0.023 C
HETATM    2  C7  UNL     1      -8.727  -6.435  10.484  1.00  0.00    -0.040 C
HETATM    3  C8  UNL     1      -8.485  -6.793   9.026  1.00  0.00     0.015 C
HETATM    4  C9  UNL     1      -9.575  -5.180  10.438  1.00  0.00     0.015 C
HETATM    5  C10 UNL     1      -7.403  -6.059  11.065  1.00  0.00     0.009 C
HETATM    6  C11 UNL     1      -6.536  -7.182  11.506  1.00  0.00     0.002 C
HETATM    7  C12 UNL     1      -7.229  -8.415  11.972  1.00  0.00     0.009 C
HETATM    8  C13 UNL     1      -8.686  -8.111  12.352  1.00  0.00    -0.040 C
HETATM    9  C14 UNL     1      -8.567  -7.030  13.447  1.00  0.00     0.015 C
HETATM   10  C15 UNL     1      -9.222  -9.318  13.013  1.00  0.00     0.015 C
ENDROOT
BRANCH   1  11
HETATM   11  C5  UNL     1     -10.032  -8.453  10.226  1.00  0.00    -0.022 C
HETATM   12  C4  UNL     1     -11.126  -9.158  10.209  1.00  0.00     0.007 C
BRANCH  12  13
HETATM   13  C2  UNL     1     -11.441 -10.014   8.995  1.00  0.00     0.134 C
HETATM   14  C1  UNL     1     -11.323 -11.480   9.339  1.00  0.00     0.050 C
HETATM   15  C3  UNL     1     -10.435  -9.736   7.884  1.00  0.00     0.050 C
BRANCH  13  16
HETATM   16  N1  UNL     1     -12.744  -9.730   8.472  1.00  0.00    -0.068 N
ATOM     17  H13 UNL     1     -12.935 -10.258   7.620  1.00  0.00     0.275 HD
ATOM     18  H12 UNL     1     -13.484 -10.118   9.058  1.00  0.00     0.275 HD
ATOM     19  H11 UNL     1     -12.857  -8.726   8.332  1.00  0.00     0.275 HD
ENDBRANCH  13  16
ENDBRANCH  12  13
ENDBRANCH   1  11
TORSDOF 3
ENDMDL