MODEL 2
REMARK VINA RESULT: -5.185704185      2.007      4.970
REMARK  2 active torsions:
REMARK  status: ('A' for Active; 'I' for Inactive)
REMARK    1  A    between atoms: C4_4  and  C5_5
REMARK    2  A    between atoms: C5_5  and  C6_6
ROOT
HETATM    1  C6  UNL     1      -7.935  -6.851  10.747  1.00  0.00    -0.017 C
HETATM    2  C7  UNL     1      -7.956  -7.178   9.243  1.00  0.00     0.018 C
HETATM    3  C8  UNL     1      -7.469  -8.188  11.352  1.00  0.00     0.014 C
HETATM    4  C9  UNL     1      -8.561  -9.214  11.298  1.00  0.00     0.031 C
HETATM    5  C10 UNL     1      -9.752  -8.690  12.028  1.00  0.00     0.019 C
HETATM    6  C11 UNL     1      -9.718  -9.194  13.481  1.00  0.00     0.037 C
HETATM    7  C12 UNL     1     -10.977  -9.373  11.393  1.00  0.00     0.037 C
HETATM    8  N1  UNL     1      -9.982  -7.329  12.045  1.00  0.00    -0.405 N
ATOM      9  H1  UNL     1     -10.717  -6.966  12.651  1.00  0.00     0.154 HD
HETATM   10  C13 UNL     1      -9.240  -6.414  11.256  1.00  0.00     0.026 C
HETATM   11  C14 UNL     1     -10.153  -6.190  10.023  1.00  0.00     0.038 C
HETATM   12  C15 UNL     1      -9.285  -5.096  11.986  1.00  0.00     0.038 C
ENDROOT
BRANCH   1  13
HETATM   13  C5  UNL     1      -6.762  -5.925  10.978  1.00  0.00     0.039 C
BRANCH  13  14
HETATM   14  C4  UNL     1      -5.496  -6.572  11.305  1.00  0.00    -0.024 C
HETATM   15  C2  UNL     1      -4.466  -5.858  11.742  1.00  0.00    -0.091 C
HETATM   16  C1  UNL     1      -3.152  -6.489  12.087  1.00  0.00     0.042 C
HETATM   17  C3  UNL     1      -4.614  -4.403  11.891  1.00  0.00     0.042 C
ENDBRANCH  13  14
ENDBRANCH   1  13
TORSDOF 2
ENDMDL