MODEL 1
REMARK VINA RESULT: -6.589055920      0.000      0.000
REMARK  4 active torsions:
REMARK  status: ('A' for Active; 'I' for Inactive)
REMARK    1  A    between atoms: C2_2  and  C5_5
REMARK    2  A    between atoms: C5_5  and  C6_6
REMARK    3  A    between atoms: C6_6  and  C7_7
REMARK    4  A    between atoms: C9_9  and  O1_10
ROOT
HETATM    1  C7  UNL     1      -9.097  -7.422   9.366  1.00  0.00    -0.012 C
HETATM    2  C8  UNL     1      -9.860  -6.372   8.599  1.00  0.00     0.036 C
HETATM    3  C9  UNL     1      -9.230  -5.024   8.598  1.00  0.00     0.119 C
HETATM    4  C10 UNL     1      -8.917  -4.543   9.993  1.00  0.00     0.040 C
HETATM    5  C11 UNL     1      -8.133  -5.549  10.789  1.00  0.00    -0.045 C
HETATM    6  C12 UNL     1      -8.674  -5.654  12.207  1.00  0.00     0.015 C
HETATM    7  C13 UNL     1      -6.734  -4.926  10.959  1.00  0.00     0.015 C
HETATM    8  C14 UNL     1      -7.922  -6.848  10.118  1.00  0.00     0.013 C
ENDROOT
BRANCH   1   9
HETATM    9  C6  UNL     1      -9.940  -8.184  10.326  1.00  0.00     0.005 C
BRANCH   9  10
HETATM   10  C5  UNL     1      -9.312  -9.127  11.257  1.00  0.00     0.008 C
BRANCH  10  11
HETATM   11  C2  UNL     1      -9.922  -9.400  12.579  1.00  0.00    -0.051 C
HETATM   12  C1  UNL     1     -10.761  -8.121  12.895  1.00  0.00     0.014 C
HETATM   13  C3  UNL     1     -10.873 -10.528  12.717  1.00  0.00     0.014 C
HETATM   14  C4  UNL     1      -8.851  -9.407  13.655  1.00  0.00     0.014 C
ENDBRANCH  10  11
ENDBRANCH   9  10
ENDBRANCH   1   9
BRANCH   3  15
HETATM   15  O1  UNL     1      -8.096  -4.970   7.798  1.00  0.00    -0.396 OA
ATOM     16  H1  UNL     1      -7.379  -4.507   8.215  1.00  0.00     0.210 HD
ENDBRANCH   3  15
TORSDOF 4
ENDMDL