MODEL 2
REMARK VINA RESULT: -7.326511957      1.327      1.649
REMARK  3 active torsions:
REMARK  status: ('A' for Active; 'I' for Inactive)
REMARK    1  A    between atoms: O1_1  and  C1_3
REMARK    2  A    between atoms: C1_3  and  C2_4
REMARK    3  A    between atoms: C2_4  and  C3_5
ROOT
HETATM    1  C3  UNL     1      -9.096  -6.487   9.761  1.00  0.00    -0.013 C
HETATM    2  C4  UNL     1      -8.137  -6.152  10.847  1.00  0.00     0.005 C
HETATM    3  C5  UNL     1      -7.101  -7.176  11.137  1.00  0.00     0.000 C
HETATM    4  C6  UNL     1      -7.438  -8.146  12.210  1.00  0.00     0.000 C
HETATM    5  C7  UNL     1      -8.774  -8.020  12.823  1.00  0.00     0.000 C
HETATM    6  C8  UNL     1      -9.205  -9.402  13.337  1.00  0.00     0.000 C
HETATM    7  C9  UNL     1     -10.587  -9.761  12.854  1.00  0.00     0.000 C
HETATM    8  C10 UNL     1     -10.587 -10.412  11.497  1.00  0.00     0.000 C
HETATM    9  C11 UNL     1     -11.281  -9.576  10.446  1.00  0.00     0.000 C
HETATM   10  C12 UNL     1     -10.587  -9.658   9.102  1.00  0.00     0.000 C
HETATM   11  C13 UNL     1     -10.238  -8.285   8.565  1.00  0.00     0.000 C
HETATM   12  C14 UNL     1      -8.889  -7.805   9.106  1.00  0.00     0.005 C
ENDROOT
BRANCH   1  13
HETATM   13  C2  UNL     1      -9.138  -5.427   8.659  1.00  0.00     0.030 C
BRANCH  13  14
HETATM   14  C1  UNL     1     -10.083  -4.330   9.009  1.00  0.00     0.164 C
BRANCH  14  15
HETATM   15  O1  UNL     1     -10.832  -3.991   7.900  1.00  0.00    -0.401 OA
ATOM     16  H1  UNL     1     -11.316  -3.192   8.075  1.00  0.00     0.209 HD
ENDBRANCH  14  15
ENDBRANCH  13  14
ENDBRANCH   1  13
TORSDOF 3
ENDMDL