MODEL 2
REMARK VINA RESULT: -7.141157136      1.376      3.107
REMARK  2 active torsions:
REMARK  status: ('A' for Active; 'I' for Inactive)
REMARK    1  A    between atoms: C11_12  and  C12_13
REMARK    2  A    between atoms: C12_13  and  C13_14
ROOT
HETATM    1  C13 UNL     1      -9.171  -5.072   8.991  1.00  0.00     0.126 C
HETATM    2  C14 UNL     1     -10.291  -4.287   8.408  1.00  0.00     0.059 C
HETATM    3  N2  UNL     1     -11.169  -3.693   7.946  1.00  0.00    -0.197 NA
ENDROOT
BRANCH   1   4
HETATM    4  C12 UNL     1      -9.130  -6.454   8.417  1.00  0.00     0.050 C
BRANCH   4   5
HETATM    5  C11 UNL     1      -9.222  -7.563   9.423  1.00  0.00     0.223 C
HETATM    6  N1  UNL     1     -10.232  -8.527   9.049  1.00  0.00     0.088 N
HETATM    7  C1  UNL     1      -9.957  -8.921   7.656  1.00  0.00     0.310 C
HETATM    8  C2  UNL     1     -10.214  -9.740   9.815  1.00  0.00     0.272 C
HETATM    9  C3  UNL     1     -11.438  -9.928  10.688  1.00  0.00     0.030 C
HETATM   10  C4  UNL     1     -11.112 -10.828  11.883  1.00  0.00     0.002 C
HETATM   11  C5  UNL     1     -10.844  -9.985  13.102  1.00  0.00     0.000 C
HETATM   12  C6  UNL     1      -9.378  -9.802  13.394  1.00  0.00     0.000 C
HETATM   13  C7  UNL     1      -8.956  -8.346  13.451  1.00  0.00     0.000 C
HETATM   14  C8  UNL     1      -7.860  -8.027  12.489  1.00  0.00     0.000 C
HETATM   15  C9  UNL     1      -8.111  -6.872  11.581  1.00  0.00     0.002 C
HETATM   16  C10 UNL     1      -9.391  -6.963  10.782  1.00  0.00     0.036 C
ENDBRANCH   4   5
ENDBRANCH   1   4
TORSDOF 2
ENDMDL