MODEL 4
REMARK VINA RESULT: -5.852393225      2.447      5.445
REMARK  3 active torsions:
REMARK  status: ('A' for Active; 'I' for Inactive)
REMARK    1  A    between atoms: C4_4  and  C5_5
REMARK    2  A    between atoms: C5_5  and  C6_6
REMARK    3  A    between atoms: C14_14  and  N1_15
ROOT
HETATM    1  C6  UNL     1      -8.336  -7.532  10.669  1.00  0.00    -0.009 C
HETATM    2  C7  UNL     1      -9.150  -8.186  11.648  1.00  0.00     0.005 C
HETATM    3  C8  UNL     1      -9.034  -8.495  13.054  1.00  0.00     0.004 C
HETATM    4  C9  UNL     1     -10.352  -9.326  13.245  1.00  0.00     0.027 C
HETATM    5  C10 UNL     1     -10.355 -10.594  12.494  1.00  0.00    -0.031 C
HETATM    6  C11 UNL     1     -11.103 -10.877  11.291  1.00  0.00    -0.031 C
HETATM    7  C12 UNL     1     -11.956  -9.916  10.562  1.00  0.00     0.029 C
HETATM    8  C13 UNL     1     -11.360  -9.004   9.552  1.00  0.00     0.036 C
HETATM    9  C14 UNL     1      -9.922  -8.973   9.208  1.00  0.00     0.184 C
HETATM   10  C15 UNL     1      -9.187  -7.686   9.383  1.00  0.00     0.037 C
ENDROOT
BRANCH   1  11
HETATM   11  C5  UNL     1      -8.227  -6.042  10.949  1.00  0.00     0.032 C
BRANCH  11  12
HETATM   12  C4  UNL     1      -9.403  -5.324  10.433  1.00  0.00    -0.024 C
HETATM   13  C2  UNL     1      -9.324  -4.635   9.302  1.00  0.00    -0.091 C
HETATM   14  C1  UNL     1      -8.037  -4.593   8.559  1.00  0.00     0.042 C
HETATM   15  C3  UNL     1     -10.518  -3.896   8.764  1.00  0.00     0.042 C
ENDBRANCH  11  12
ENDBRANCH   1  11
BRANCH   9  16
HETATM   16  N1  UNL     1      -9.870  -9.110   7.705  1.00  0.00    -0.075 N
ATOM     17  H13 UNL     1     -10.417  -9.890   7.344  1.00  0.00     0.274 HD
ATOM     18  H12 UNL     1     -10.370  -8.373   7.207  1.00  0.00     0.274 HD
ATOM     19  H11 UNL     1      -8.877  -9.161   7.475  1.00  0.00     0.274 HD
ENDBRANCH   9  16
TORSDOF 3
ENDMDL