MODEL 3
REMARK VINA RESULT: -6.292562640      1.638      4.903
REMARK  2 active torsions:
REMARK  status: ('A' for Active; 'I' for Inactive)
REMARK    1  A    between atoms: C2_2  and  C3_3
REMARK    2  A    between atoms: C3_3  and  O1_4
ROOT
HETATM    1  C3  UNL     1      -9.412  -8.860  12.082  1.00  0.00     0.057 C
HETATM    2  C4  UNL     1      -9.410  -9.444  10.713  1.00  0.00     0.038 C
HETATM    3  C5  UNL     1     -10.512  -9.024   9.816  1.00  0.00     0.003 C
HETATM    4  C6  UNL     1     -10.144  -8.108   8.704  1.00  0.00     0.000 C
HETATM    5  C7  UNL     1      -8.855  -7.398   8.811  1.00  0.00     0.000 C
HETATM    6  C8  UNL     1      -8.991  -5.971   8.257  1.00  0.00     0.000 C
HETATM    7  C9  UNL     1      -8.376  -4.953   9.192  1.00  0.00     0.000 C
HETATM    8  C10 UNL     1      -9.278  -4.589  10.337  1.00  0.00     0.000 C
HETATM    9  C11 UNL     1      -8.704  -4.945  11.686  1.00  0.00     0.000 C
HETATM   10  C12 UNL     1      -9.758  -5.257  12.713  1.00  0.00     0.000 C
HETATM   11  C13 UNL     1      -9.650  -6.663  13.260  1.00  0.00     0.003 C
HETATM   12  C14 UNL     1     -10.286  -7.689  12.309  1.00  0.00     0.038 C
ENDROOT
BRANCH   1  13
HETATM   13  C2  UNL     1      -9.757  -9.906  13.157  1.00  0.00     0.033 C
HETATM   14  C1  UNL     1     -10.993 -10.646  12.763  1.00  0.00     0.008 C
ENDBRANCH   1  13
BRANCH   1  15
HETATM   15  O1  UNL     1      -8.075  -8.515  12.401  1.00  0.00    -0.390 OA
ATOM     16  H1  UNL     1      -8.184  -7.784  12.998  1.00  0.00     0.210 HD
ENDBRANCH   1  15
TORSDOF 2
ENDMDL