MODEL 3
REMARK VINA RESULT: -6.672982065      1.340      1.900
REMARK  2 active torsions:
REMARK  status: ('A' for Active; 'I' for Inactive)
REMARK    1  A    between atoms: C4_5  and  C6_7
REMARK    2  A    between atoms: C6_7  and  C7_8
ROOT
HETATM    1  C7  UNL     1      -8.917  -8.594  11.659  1.00  0.00    -0.013 C
HETATM    2  C8  UNL     1      -8.889  -9.561  12.743  1.00  0.00     0.005 C
HETATM    3  C9  UNL     1     -10.224  -9.960  13.347  1.00  0.00     0.000 C
HETATM    4  C10 UNL     1     -11.097 -10.776  12.480  1.00  0.00     0.000 C
HETATM    5  C11 UNL     1     -10.891 -10.608  11.003  1.00  0.00     0.000 C
HETATM    6  C12 UNL     1     -11.077  -9.185  10.548  1.00  0.00     0.000 C
HETATM    7  C13 UNL     1     -10.388  -8.179  11.393  1.00  0.00     0.005 C
ENDROOT
BRANCH   1   8
HETATM    8  C6  UNL     1      -8.056  -7.419  11.586  1.00  0.00     0.026 C
BRANCH   8   9
HETATM    9  C4  UNL     1      -8.119  -6.444  10.481  1.00  0.00     0.022 A
HETATM   10  C2  UNL     1      -8.814  -5.109  10.721  1.00  0.00     0.018 A
HETATM   11  C1  UNL     1      -9.424  -4.814  12.056  1.00  0.00     0.028 C
HETATM   12  C3  UNL     1      -9.545  -4.437   9.580  1.00  0.00     0.028 C
HETATM   13  S1  UNL     1      -7.031  -5.039  10.586  1.00  0.00    -0.147 SA
HETATM   14  C5  UNL     1      -8.523  -6.997   9.129  1.00  0.00     0.028 C
ENDBRANCH   8   9
ENDBRANCH   1   8
TORSDOF 2
ENDMDL