MODEL 4
REMARK VINA RESULT: -5.534438229      1.994      3.298
REMARK  5 active torsions:
REMARK  status: ('A' for Active; 'I' for Inactive)
REMARK    1  A    between atoms: C2_2  and  C3_3
REMARK    2  A    between atoms: C3_3  and  C4_4
REMARK    3  A    between atoms: C4_4  and  N1_5
REMARK    4  A    between atoms: N1_5  and  C5_8
REMARK    5  A    between atoms: C5_8  and  C6_9
ROOT
HETATM    1  N1  UNL     1       7.758  14.076  30.850  1.00  0.00    -0.071 N
ATOM      2  H11 UNL     1       7.618  15.069  30.664  1.00  0.00     0.277 HD
ATOM      3  H12 UNL     1       7.674  13.732  29.894  1.00  0.00     0.277 HD
ENDROOT
BRANCH   1   4
HETATM    4  C4  UNL     1       6.736  13.538  31.711  1.00  0.00     0.236 C
BRANCH   4   5
HETATM    5  C3  UNL     1       5.740  12.666  30.986  1.00  0.00     0.054 C
BRANCH   5   6
HETATM    6  C2  UNL     1       5.509  11.418  31.768  1.00  0.00    -0.035 C
HETATM    7  C1  UNL     1       6.055  10.297  31.370  1.00  0.00     0.007 C
ENDBRANCH   5   6
ENDBRANCH   4   5
ENDBRANCH   1   4
BRANCH   1   8
HETATM    8  C5  UNL     1       9.057  13.810  31.406  1.00  0.00     0.270 C
BRANCH   8   9
HETATM    9  C6  UNL     1       9.394  12.356  31.307  1.00  0.00    -0.033 A
HETATM   10  C7  UNL     1       9.247  11.728  30.077  1.00  0.00     0.009 A
HETATM   11  C8  UNL     1       9.545  10.396  29.930  1.00  0.00     0.001 A
HETATM   12  C9  UNL     1       9.994   9.678  31.019  1.00  0.00     0.000 A
HETATM   13  C10 UNL     1      10.153  10.261  32.253  1.00  0.00     0.001 A
HETATM   14  C11 UNL     1       9.842  11.607  32.362  1.00  0.00     0.009 A
ENDBRANCH   8   9
ENDBRANCH   1   8
TORSDOF 5
ENDMDL