MODEL 4
REMARK VINA RESULT: -5.359518238      0.729      1.291
REMARK  5 active torsions:
REMARK  status: ('A' for Active; 'I' for Inactive)
REMARK    1  A    between atoms: C1_2  and  N1_3
REMARK    2  A    between atoms: N1_3  and  C2_4
REMARK    3  A    between atoms: C2_4  and  C3_5
REMARK    4  A    between atoms: C3_5  and  C4_6
REMARK    5  A    between atoms: C4_6  and  C5_7
ROOT
HETATM    1  C4  UNL     1       7.706  13.280  30.533  1.00  0.00     0.007 C
ENDROOT
BRANCH   1   2
HETATM    2  C3  UNL     1       8.201  14.470  31.246  1.00  0.00     0.034 C
BRANCH   2   3
HETATM    3  C2  UNL     1       7.782  14.716  32.645  1.00  0.00     0.221 C
BRANCH   3   4
HETATM    4  N1  UNL     1       8.661  14.179  33.632  1.00  0.00    -0.423 NA
BRANCH   4   5
HETATM    5  C1  UNL     1       9.473  13.683  34.542  1.00  0.00     0.435 C
HETATM    6  O1  UNL     1      10.360  14.230  35.295  1.00  0.00    -0.269 OA
ENDBRANCH   4   5
ENDBRANCH   3   4
ENDBRANCH   2   3
ENDBRANCH   1   2
BRANCH   1   7
HETATM    7  C5  UNL     1       8.312  11.986  30.847  1.00  0.00    -0.014 C
HETATM    8  C6  UNL     1       8.306  11.105  29.537  1.00  0.00     0.004 C
HETATM    9  C7  UNL     1       9.275   9.982  29.854  1.00  0.00     0.000 C
HETATM   10  C8  UNL     1       9.899  10.354  31.183  1.00  0.00     0.000 C
HETATM   11  C9  UNL     1       9.786  11.904  31.092  1.00  0.00     0.004 C
ENDBRANCH   1   7
TORSDOF 5
ENDMDL