MODEL 1
REMARK VINA RESULT: -5.590987241      0.000      0.000
REMARK  6 active torsions:
REMARK  status: ('A' for Active; 'I' for Inactive)
REMARK    1  A    between atoms: C2_2  and  C3_3
REMARK    2  A    between atoms: C3_3  and  C4_4
REMARK    3  A    between atoms: C4_4  and  C5_5
REMARK    4  A    between atoms: C6_6  and  C7_7
REMARK    5  A    between atoms: C7_7  and  C8_8
REMARK    6  A    between atoms: C8_8  and  C9_9
ROOT
HETATM    1  C7  UNL     1       7.191  13.168  31.081  1.00  0.00     0.029 C
ENDROOT
BRANCH   1   2
HETATM    2  C6  UNL     1       7.927  13.219  29.822  1.00  0.00    -0.031 C
HETATM    3  C5  UNL     1       8.412  12.182  29.179  1.00  0.00    -0.030 C
BRANCH   3   4
HETATM    4  C4  UNL     1       8.334  10.761  29.558  1.00  0.00     0.030 C
BRANCH   4   5
HETATM    5  C3  UNL     1       9.572  10.192  30.162  1.00  0.00     0.030 C
BRANCH   5   6
HETATM    6  C2  UNL     1       9.868  10.574  31.548  1.00  0.00    -0.037 C
HETATM    7  C1  UNL     1       9.163  10.362  32.626  1.00  0.00     0.007 C
ENDBRANCH   5   6
ENDBRANCH   4   5
ENDBRANCH   3   4
ENDBRANCH   1   2
BRANCH   1   8
HETATM    8  C8  UNL     1       7.389  14.407  31.930  1.00  0.00     0.038 C
BRANCH   8   9
HETATM    9  C9  UNL     1       8.337  14.007  33.063  1.00  0.00     0.211 A
HETATM   10  C10 UNL     1       9.561  14.804  33.287  1.00  0.00     0.265 A
HETATM   11  N1  UNL     1       8.438  14.876  34.196  1.00  0.00    -0.067 N
ATOM     12  H12 UNL     1       7.866  15.640  34.556  1.00  0.00     0.277 HD
ATOM     13  H11 UNL     1       8.330  14.744  35.202  1.00  0.00     0.277 HD
ENDBRANCH   8   9
ENDBRANCH   1   8
TORSDOF 6
ENDMDL