MODEL 5
REMARK VINA RESULT: -5.583281595      1.839      2.676
REMARK  6 active torsions:
REMARK  status: ('A' for Active; 'I' for Inactive)
REMARK    1  A    between atoms: C1_2  and  N1_3
REMARK    2  A    between atoms: N1_3  and  C2_4
REMARK    3  A    between atoms: C2_4  and  C3_5
REMARK    4  A    between atoms: C3_5  and  C4_6
REMARK    5  A    between atoms: C4_6  and  C5_7
REMARK    6  A    between atoms: C5_7  and  C6_8
ROOT
HETATM    1  C4  UNL     1       7.940  14.680  32.579  1.00  0.00     0.010 C
ENDROOT
BRANCH   1   2
HETATM    2  C3  UNL     1       9.258  14.484  33.190  1.00  0.00     0.060 C
BRANCH   2   3
HETATM    3  C2  UNL     1       9.239  13.664  34.511  1.00  0.00     0.158 C
BRANCH   3   4
HETATM    4  N1  UNL     1       9.748  12.444  34.437  1.00  0.00    -0.395 NA
BRANCH   4   5
HETATM    5  C1  UNL     1      10.290  11.142  34.358  1.00  0.00     0.440 C
HETATM    6  O1  UNL     1      10.725  10.454  35.260  1.00  0.00    -0.268 OA
ENDBRANCH   4   5
ENDBRANCH   3   4
ENDBRANCH   2   3
ENDBRANCH   1   2
BRANCH   1   7
HETATM    7  C5  UNL     1       7.585  13.970  31.331  1.00  0.00     0.034 C
BRANCH   7   8
HETATM    8  C6  UNL     1       6.959  12.636  31.497  1.00  0.00    -0.084 C
HETATM    9  C7  UNL     1       5.662  12.423  31.334  1.00  0.00    -0.024 C
HETATM   10  C8  UNL     1       5.371  10.988  31.581  1.00  0.00     0.027 C
HETATM   11  C9  UNL     1       6.648  10.292  31.198  1.00  0.00     0.008 C
HETATM   12  C10 UNL     1       7.655  11.339  31.724  1.00  0.00     0.034 C
ENDBRANCH   7   8
ENDBRANCH   1   7
TORSDOF 6
ENDMDL