MODEL 3
REMARK VINA RESULT: -5.862140816      1.534      3.186
REMARK  6 active torsions:
REMARK  status: ('A' for Active; 'I' for Inactive)
REMARK    1  A    between atoms: C1_2  and  N1_3
REMARK    2  A    between atoms: N1_3  and  C2_5
REMARK    3  A    between atoms: C2_5  and  C3_6
REMARK    4  A    between atoms: C3_6  and  C4_7
REMARK    5  A    between atoms: C5_8  and  C6_9
REMARK    6  A    between atoms: C6_9  and  C7_10
ROOT
HETATM    1  C4  UNL     1      10.504  10.367  32.407  1.00  0.00    -0.029 C
HETATM    2  C5  UNL     1       9.567  10.042  31.524  1.00  0.00    -0.030 C
ENDROOT
BRANCH   1   3
HETATM    3  C3  UNL     1      10.514   9.866  33.809  1.00  0.00     0.046 C
BRANCH   3   4
HETATM    4  C2  UNL     1      10.636  11.001  34.780  1.00  0.00     0.126 C
BRANCH   4   5
HETATM    5  N1  UNL     1       9.454  11.835  34.730  1.00  0.00    -0.368 N
ATOM      6  H1  UNL     1       8.546  11.400  34.896  1.00  0.00     0.161 HD
BRANCH   5   7
HETATM    7  C1  UNL     1       9.497  13.221  34.464  1.00  0.00     0.348 C
HETATM    8  O1  UNL     1      10.181  13.984  35.201  1.00  0.00    -0.284 OA
ENDBRANCH   5   7
ENDBRANCH   4   5
ENDBRANCH   3   4
ENDBRANCH   1   3
BRANCH   2   9
HETATM    9  C6  UNL     1       9.651  10.589  30.173  1.00  0.00     0.031 C
BRANCH   9  10
HETATM   10  C7  UNL     1       8.360  10.981  29.548  1.00  0.00    -0.011 C
HETATM   11  C8  UNL     1       8.185  12.355  29.048  1.00  0.00     0.005 C
HETATM   12  C9  UNL     1       7.447  12.744  30.321  1.00  0.00     0.001 C
HETATM   13  C10 UNL     1       7.313  11.258  30.634  1.00  0.00     0.005 C
ENDBRANCH   9  10
ENDBRANCH   2   9
TORSDOF 6
ENDMDL