MODEL 4
REMARK VINA RESULT: -6.007393837      2.351      3.370
REMARK  5 active torsions:
REMARK  status: ('A' for Active; 'I' for Inactive)
REMARK    1  A    between atoms: C1_2  and  N1_3
REMARK    2  A    between atoms: N1_3  and  C2_5
REMARK    3  A    between atoms: C2_5  and  C3_6
REMARK    4  A    between atoms: C3_6  and  C4_7
REMARK    5  A    between atoms: C4_7  and  C5_8
ROOT
HETATM    1  C4  UNL     1       9.492  10.981  31.791  1.00  0.00     0.040 C
ENDROOT
BRANCH   1   2
HETATM    2  C3  UNL     1       9.655  10.303  33.118  1.00  0.00     0.024 C
BRANCH   2   3
HETATM    3  C2  UNL     1      10.376  11.142  34.128  1.00  0.00     0.122 C
BRANCH   3   4
HETATM    4  N1  UNL     1       9.516  12.031  34.848  1.00  0.00    -0.368 N
ATOM      5  H1  UNL     1       8.870  11.650  35.540  1.00  0.00     0.161 HD
BRANCH   4   6
HETATM    6  C1  UNL     1       9.542  13.423  34.620  1.00  0.00     0.348 C
HETATM    7  O1  UNL     1      10.307  14.194  35.247  1.00  0.00    -0.284 OA
ENDBRANCH   4   6
ENDBRANCH   3   4
ENDBRANCH   2   3
ENDBRANCH   1   2
BRANCH   1   8
HETATM    8  C5  UNL     1       8.061  11.369  31.638  1.00  0.00    -0.058 A
HETATM    9  C6  UNL     1       7.677  12.687  31.471  1.00  0.00     0.007 A
HETATM   10  C7  UNL     1       6.347  13.031  31.331  1.00  0.00     0.001 A
HETATM   11  C8  UNL     1       5.347  12.073  31.354  1.00  0.00     0.000 A
HETATM   12  C9  UNL     1       5.719  10.755  31.522  1.00  0.00     0.001 A
HETATM   13  C10 UNL     1       7.050  10.414  31.660  1.00  0.00     0.007 A
ENDBRANCH   1   8
TORSDOF 5
ENDMDL