MODEL 2
REMARK VINA RESULT: -5.628537161      1.845      2.197
REMARK  5 active torsions:
REMARK  status: ('A' for Active; 'I' for Inactive)
REMARK    1  A    between atoms: C2_2  and  C3_3
REMARK    2  A    between atoms: C3_3  and  C4_4
REMARK    3  A    between atoms: C7_7  and  C8_8
REMARK    4  A    between atoms: C8_8  and  N1_9
REMARK    5  A    between atoms: N1_9  and  C9_11
ROOT
HETATM    1  C4  UNL     1       7.546  12.726  31.137  1.00  0.00    -0.009 A
HETATM    2  C5  UNL     1       8.091  13.307  29.879  1.00  0.00     0.005 A
HETATM    3  C6  UNL     1       8.940  14.290  30.656  1.00  0.00     0.007 A
HETATM    4  C7  UNL     1       8.430  13.654  31.934  1.00  0.00     0.007 A
ENDROOT
BRANCH   4   5
HETATM    5  C8  UNL     1       7.723  14.685  32.747  1.00  0.00     0.127 C
BRANCH   5   6
HETATM    6  N1  UNL     1       8.386  14.792  34.030  1.00  0.00    -0.368 N
ATOM      7  H1  UNL     1       8.186  15.620  34.591  1.00  0.00     0.161 HD
BRANCH   6   8
HETATM    8  C9  UNL     1       9.283  13.850  34.570  1.00  0.00     0.348 C
HETATM    9  O1  UNL     1      10.275  14.176  35.276  1.00  0.00    -0.284 OA
ENDBRANCH   6   8
ENDBRANCH   5   6
ENDBRANCH   4   5
BRANCH   1  10
HETATM   10  C3  UNL     1       6.068  12.889  31.376  1.00  0.00     0.005 C
BRANCH  10  11
HETATM   11  C2  UNL     1       5.362  11.564  31.547  1.00  0.00    -0.004 C
HETATM   12  C1  UNL     1       6.450  10.490  31.473  1.00  0.00     0.005 C
ENDBRANCH  10  11
ENDBRANCH   1  10
TORSDOF 5
ENDMDL