MODEL 2
REMARK VINA RESULT: -5.418944595      1.081      1.113
REMARK  5 active torsions:
REMARK  status: ('A' for Active; 'I' for Inactive)
REMARK    1  A    between atoms: N1_1  and  N2_4
REMARK    2  A    between atoms: N2_4  and  N3_5
REMARK    3  A    between atoms: N3_5  and  C1_7
REMARK    4  A    between atoms: C1_7  and  C2_8
REMARK    5  A    between atoms: C2_8  and  C3_9
ROOT
HETATM    1  C1  UNL     1       3.057 -11.356 -11.863  1.00  0.00     0.069 C
HETATM    2  C4  UNL     1       2.147 -10.336 -12.471  1.00  0.00     0.034 C
HETATM    3  C5  UNL     1       3.020  -9.521 -13.440  1.00  0.00     0.003 C
HETATM    4  C6  UNL     1       4.365  -9.619 -12.720  1.00  0.00     0.003 C
HETATM    5  C7  UNL     1       4.420 -11.136 -12.531  1.00  0.00     0.034 C
ENDROOT
BRANCH   1   6
HETATM    6  N3  UNL     1       3.298 -11.194 -10.461  1.00  0.00    -0.242 N
ATOM      7  H3  UNL     1       4.075 -11.710 -10.049  1.00  0.00     0.198 HD
BRANCH   6   8
HETATM    8  N2  UNL     1       2.634 -10.478  -9.723  1.00  0.00    -0.248 NA
BRANCH   8   9
HETATM    9  N1  UNL     1       2.192  -9.980  -8.696  1.00  0.00    -0.261 N
ATOM     10  H12 UNL     1       1.214 -10.221  -8.857  1.00  0.00     0.193 HD
ATOM     11  H11 UNL     1       2.165  -9.490  -7.802  1.00  0.00     0.193 HD
ENDBRANCH   8   9
ENDBRANCH   6   8
ENDBRANCH   1   6
BRANCH   1  12
HETATM   12  C2  UNL     1       2.582 -12.782 -12.181  1.00  0.00     0.146 C
BRANCH  12  13
HETATM   13  C3  UNL     1       3.003 -13.706 -11.094  1.00  0.00     0.175 C
HETATM   14  O1  UNL     1       4.143 -14.220 -11.058  1.00  0.00    -0.648 OA
HETATM   15  O2  UNL     1       2.114 -14.021 -10.069  1.00  0.00    -0.648 OA
ENDBRANCH  12  13
ENDBRANCH   1  12
TORSDOF 5
ENDMDL