MODEL 5
REMARK VINA RESULT: -5.479315382      0.860      4.221
REMARK  4 active torsions:
REMARK  status: ('A' for Active; 'I' for Inactive)
REMARK    1  A    between atoms: C2_2  and  N1_4
REMARK    2  A    between atoms: N1_4  and  N2_5
REMARK    3  A    between atoms: N2_5  and  C4_6
REMARK    4  A    between atoms: N2_5  and  C7_9
ROOT
HETATM    1  N2  UNL     1       2.794 -11.041 -11.140  1.00  0.00    -0.226 NA
ENDROOT
BRANCH   1   2
HETATM    2  N1  UNL     1       3.133  -9.985 -10.286  1.00  0.00    -0.160 NA
BRANCH   2   3
HETATM    3  C2  UNL     1       2.033  -9.475  -9.506  1.00  0.00     0.085 C
HETATM    4  C1  UNL     1       1.613  -8.072  -9.873  1.00  0.00     0.029 C
HETATM    5  C3  UNL     1       2.519  -9.494  -8.040  1.00  0.00     0.029 C
ENDBRANCH   2   3
ENDBRANCH   1   2
BRANCH   1   6
HETATM    6  C4  UNL     1       3.256 -10.754 -12.492  1.00  0.00     0.068 C
HETATM    7  C5  UNL     1       4.402  -9.809 -12.568  1.00  0.00     0.027 C
HETATM    8  C6  UNL     1       2.116 -10.219 -13.318  1.00  0.00     0.027 C
ENDBRANCH   1   6
BRANCH   1   9
HETATM    9  C7  UNL     1       3.406 -12.231 -10.615  1.00  0.00     0.076 C
HETATM   10  C8  UNL     1       3.126 -13.502 -11.415  1.00  0.00     0.021 C
HETATM   11  C9  UNL     1       3.346 -14.219 -10.097  1.00  0.00     0.003 C
HETATM   12  C10 UNL     1       2.703 -12.956  -9.494  1.00  0.00     0.021 C
ENDBRANCH   1   9
TORSDOF 4
ENDMDL