MODEL 1
REMARK VINA RESULT: -6.186284983      0.000      0.000
REMARK  4 active torsions:
REMARK  status: ('A' for Active; 'I' for Inactive)
REMARK    1  A    between atoms: N1_1  and  N2_4
REMARK    2  A    between atoms: N3_6  and  C1_8
REMARK    3  A    between atoms: C1_8  and  C2_9
REMARK    4  A    between atoms: C2_9  and  C3_10
ROOT
HETATM    1  C1  UNL     1       3.864 -13.498 -11.406  1.00  0.00     0.143 C
ENDROOT
BRANCH   1   2
HETATM    2  N3  UNL     1       3.541 -14.291 -10.263  1.00  0.00    -0.323 N
HETATM    3  N2  UNL     1       3.202 -13.795  -9.189  1.00  0.00    -0.254 N
ATOM      4  H2  UNL     1       4.021 -13.225  -8.978  1.00  0.00     0.207 HD
ATOM      5  H3  UNL     1       3.593 -15.306 -10.339  1.00  0.00     0.181 HD
BRANCH   3   6
HETATM    6  N1  UNL     1       2.496 -13.551  -8.207  1.00  0.00    -0.331 N
ATOM      7  H12 UNL     1       2.496 -14.488  -7.804  1.00  0.00     0.178 HD
ATOM      8  H11 UNL     1       1.923 -13.011  -7.559  1.00  0.00     0.178 HD
ENDBRANCH   3   6
ENDBRANCH   1   2
BRANCH   1   9
HETATM    9  C2  UNL     1       2.740 -13.246 -12.357  1.00  0.00     0.046 C
BRANCH   9  10
HETATM   10  C3  UNL     1       2.445 -11.803 -12.647  1.00  0.00     0.078 C
HETATM   11  C4  UNL     1       3.263 -11.313 -13.781  1.00  0.00     0.025 C
HETATM   12  C5  UNL     1       3.576  -9.829 -13.689  1.00  0.00     0.004 C
HETATM   13  C6  UNL     1       2.474  -9.146 -12.939  1.00  0.00     0.019 C
HETATM   14  C7  UNL     1       2.475  -9.671 -11.524  1.00  0.00     0.114 C
HETATM   15  N4  UNL     1       2.639 -11.076 -11.418  1.00  0.00    -0.417 N
ATOM     16  H4  UNL     1       2.877 -11.536 -10.539  1.00  0.00     0.153 HD
ENDBRANCH   9  10
ENDBRANCH   1   9
TORSDOF 4
ENDMDL