MODEL 4
REMARK VINA RESULT: -4.577988273      1.125      1.263
REMARK  3 active torsions:
REMARK  status: ('A' for Active; 'I' for Inactive)
REMARK    1  A    between atoms: C1_2  and  C2_3
REMARK    2  A    between atoms: C2_3  and  C3_4
REMARK    3  A    between atoms: C3_4  and  N1_5
ROOT
HETATM    1  N1  UNL     1       3.759 -11.284 -12.179  1.00  0.00     0.088 N
HETATM    2  C4  UNL     1       2.661 -10.776 -11.424  1.00  0.00     0.272 C
HETATM    3  C5  UNL     1       2.344  -9.347 -11.751  1.00  0.00     0.030 C
HETATM    4  C6  UNL     1       2.605  -8.894 -13.121  1.00  0.00     0.003 C
HETATM    5  C7  UNL     1       3.366  -9.794 -14.021  1.00  0.00     0.030 C
HETATM    6  C8  UNL     1       3.417 -11.228 -13.573  1.00  0.00     0.272 C
ENDROOT
BRANCH   1   7
HETATM    7  C3  UNL     1       4.189 -12.536 -11.684  1.00  0.00     0.273 C
BRANCH   7   8
HETATM    8  C2  UNL     1       3.092 -13.577 -11.532  1.00  0.00     0.041 C
BRANCH   8   9
HETATM    9  C1  UNL     1       3.358 -14.190 -10.150  1.00  0.00     0.088 C
HETATM   10  S1  UNL     1       2.641 -13.224  -8.828  1.00  0.00    -0.098 SA
ENDBRANCH   8   9
ENDBRANCH   7   8
ENDBRANCH   1   7
TORSDOF 3
ENDMDL