MODEL 1
REMARK VINA RESULT: -6.323518612      0.000      0.000
REMARK  3 active torsions:
REMARK  status: ('A' for Active; 'I' for Inactive)
REMARK    1  A    between atoms: C2_2  and  C4_4
REMARK    2  A    between atoms: C4_4  and  C5_5
REMARK    3  A    between atoms: C5_5  and  C6_6
ROOT
HETATM    1  C5  UNL     1       3.280 -11.031 -11.452  1.00  0.00     0.112 C
HETATM    2  C9  UNL     1       4.575 -11.622 -11.903  1.00  0.00     0.182 C
HETATM    3  N1  UNL     1       4.337 -13.075 -11.878  1.00  0.00    -0.314 N
ATOM      4  H1  UNL     1       4.950 -13.781 -12.288  1.00  0.00     0.182 HD
HETATM    5  N2  UNL     1       3.245 -13.313 -11.263  1.00  0.00    -0.211 N
ATOM      6  H2  UNL     1       2.857 -14.244 -11.111  1.00  0.00     0.215 HD
HETATM    7  O1  UNL     1       2.660 -12.141 -10.833  1.00  0.00    -0.252 OA
ENDROOT
BRANCH   1   8
HETATM    8  C4  UNL     1       3.390  -9.910 -10.489  1.00  0.00     0.047 C
BRANCH   8   9
HETATM    9  C2  UNL     1       2.190  -9.620  -9.673  1.00  0.00    -0.020 C
HETATM   10  C1  UNL     1       1.617  -8.251  -9.834  1.00  0.00     0.009 C
HETATM   11  C3  UNL     1       2.610  -9.724  -8.197  1.00  0.00     0.009 C
ENDBRANCH   8   9
ENDBRANCH   1   8
BRANCH   1  12
HETATM   12  C6  UNL     1       2.486 -10.663 -12.686  1.00  0.00     0.025 A
HETATM   13  C7  UNL     1       3.121 -10.586 -14.015  1.00  0.00     0.008 A
HETATM   14  C8  UNL     1       2.744  -9.300 -13.297  1.00  0.00     0.008 A
ENDBRANCH   1  12
TORSDOF 3
ENDMDL