MODEL 4
REMARK VINA RESULT: -5.508940184      2.426      3.572
REMARK  3 active torsions:
REMARK  status: ('A' for Active; 'I' for Inactive)
REMARK    1  A    between atoms: C2_3  and  C3_4
REMARK    2  A    between atoms: C3_4  and  N2_5
REMARK    3  A    between atoms: N2_5  and  C4_7
ROOT
HETATM    1  N1  UNL     1       1.583  -7.817 -10.107  1.00  0.00    -0.197 NA
HETATM    2  C1  UNL     1       1.860  -8.587  -9.295  1.00  0.00     0.064 C
HETATM    3  C2  UNL     1       2.208  -9.608  -8.256  1.00  0.00     0.167 C
ENDROOT
BRANCH   3   4
HETATM    4  C3  UNL     1       2.682 -10.829  -8.986  1.00  0.00     0.070 C
BRANCH   4   5
HETATM    5  N2  UNL     1       3.732 -10.585  -9.859  1.00  0.00    -0.397 N
ATOM      6  H2  UNL     1       4.609 -10.239  -9.470  1.00  0.00     0.159 HD
BRANCH   5   7
HETATM    7  C4  UNL     1       3.658 -10.788 -11.243  1.00  0.00     0.080 C
HETATM    8  C5  UNL     1       3.966 -12.204 -11.687  1.00  0.00     0.025 C
HETATM    9  C6  UNL     1       2.965 -12.589 -12.745  1.00  0.00     0.002 C
HETATM   10  C7  UNL     1       3.192 -11.770 -14.011  1.00  0.00     0.000 C
HETATM   11  C8  UNL     1       2.620 -10.396 -13.887  1.00  0.00     0.000 C
HETATM   12  C9  UNL     1       3.509  -9.365 -13.296  1.00  0.00     0.002 C
HETATM   13  C10 UNL     1       4.373  -9.843 -12.147  1.00  0.00     0.025 C
ENDBRANCH   5   7
ENDBRANCH   4   5
ENDBRANCH   3   4
TORSDOF 3
ENDMDL