MODEL 5
REMARK VINA RESULT: -5.043407400      1.703      2.478
REMARK  4 active torsions:
REMARK  status: ('A' for Active; 'I' for Inactive)
REMARK    1  A    between atoms: N1_1  and  C1_5
REMARK    2  A    between atoms: C1_5  and  C2_6
REMARK    3  A    between atoms: C2_6  and  S1_7
REMARK    4  A    between atoms: S1_7  and  C3_8
ROOT
HETATM    1  S1  UNL     1       2.663 -10.645  -9.156  1.00  0.00    -0.163 SA
ENDROOT
BRANCH   1   2
HETATM    2  C2  UNL     1       2.672 -12.405  -8.714  1.00  0.00     0.101 C
BRANCH   2   3
HETATM    3  C1  UNL     1       2.836 -13.277  -9.944  1.00  0.00     0.239 C
BRANCH   3   4
HETATM    4  N1  UNL     1       3.479 -14.512  -9.581  1.00  0.00    -0.079 N
ATOM      5  H13 UNL     1       4.034 -14.895 -10.345  1.00  0.00     0.274 HD
ATOM      6  H12 UNL     1       4.233 -14.370  -8.909  1.00  0.00     0.274 HD
ATOM      7  H11 UNL     1       2.782 -15.175  -9.242  1.00  0.00     0.274 HD
ENDBRANCH   3   4
ENDBRANCH   2   3
ENDBRANCH   1   2
BRANCH   1   8
HETATM    8  C3  UNL     1       2.908 -10.527 -10.938  1.00  0.00     0.047 C
HETATM    9  C4  UNL     1       4.368 -10.249 -11.276  1.00  0.00     0.015 C
HETATM   10  C5  UNL     1       4.489 -10.456 -12.786  1.00  0.00     0.001 C
HETATM   11  C6  UNL     1       3.660  -9.395 -13.442  1.00  0.00     0.000 C
HETATM   12  C7  UNL     1       2.196  -9.579 -13.060  1.00  0.00     0.001 C
HETATM   13  C8  UNL     1       2.113  -9.396 -11.556  1.00  0.00     0.015 C
ENDBRANCH   1   8
TORSDOF 4
ENDMDL