MODEL 1
REMARK VINA RESULT: -5.831934648      0.000      0.000
REMARK  3 active torsions:
REMARK  status: ('A' for Active; 'I' for Inactive)
REMARK    1  A    between atoms: N1_1  and  N2_4
REMARK    2  A    between atoms: N3_6  and  C1_8
REMARK    3  A    between atoms: C4_11  and  C5_12
ROOT
HETATM    1  C1  UNL     1       2.984 -10.888  -9.292  1.00  0.00     0.101 C
HETATM    2  C2  UNL     1       2.034  -9.757  -9.089  1.00  0.00     0.028 C
HETATM    3  C3  UNL     1       1.979  -9.023 -10.413  1.00  0.00     0.017 C
HETATM    4  C4  UNL     1       2.955  -9.736 -11.332  1.00  0.00     0.089 C
HETATM    5  C6  UNL     1       2.984 -11.141 -10.768  1.00  0.00     0.042 C
ENDROOT
BRANCH   1   6
HETATM    6  N3  UNL     1       2.664 -12.063  -8.517  1.00  0.00    -0.318 N
HETATM    7  N2  UNL     1       3.202 -13.118  -8.857  1.00  0.00    -0.253 N
ATOM      8  H2  UNL     1       4.193 -12.888  -8.786  1.00  0.00     0.207 HD
ATOM      9  H3  UNL     1       2.023 -12.021  -7.725  1.00  0.00     0.182 HD
BRANCH   7  10
HETATM   10  N1  UNL     1       3.233 -14.303  -9.237  1.00  0.00    -0.331 N
ATOM     11  H12 UNL     1       2.686 -14.735  -8.492  1.00  0.00     0.178 HD
ATOM     12  H11 UNL     1       3.488 -15.074  -9.854  1.00  0.00     0.178 HD
ENDBRANCH   7  10
ENDBRANCH   1   6
BRANCH   4  13
HETATM   13  C5  UNL     1       2.549  -9.688 -12.733  1.00  0.00     0.177 C
HETATM   14  O1  UNL     1       2.875  -8.720 -13.453  1.00  0.00    -0.648 OA
HETATM   15  O2  UNL     1       1.801 -10.711 -13.277  1.00  0.00    -0.648 OA
ENDBRANCH   4  13
TORSDOF 3
ENDMDL