MODEL 1
REMARK VINA RESULT: -5.988846102      0.000      0.000
REMARK  3 active torsions:
REMARK  status: ('A' for Active; 'I' for Inactive)
REMARK    1  A    between atoms: N1_4  and  N2_6
REMARK    2  A    between atoms: N2_6  and  C4_8
REMARK    3  A    between atoms: C4_8  and  C6_10
ROOT
HETATM    1  N2  UNL     1       4.245  -9.840 -11.193  1.00  0.00    -0.332 N
ATOM      2  H2  UNL     1       5.084 -10.007 -10.638  1.00  0.00     0.180 HD
ENDROOT
BRANCH   1   3
HETATM    3  N1  UNL     1       3.130  -9.225 -10.638  1.00  0.00    -0.314 N
HETATM    4  C2  UNL     1       2.445  -9.686  -9.663  1.00  0.00    -0.005 C
HETATM    5  C1  UNL     1       2.751 -10.958  -8.980  1.00  0.00     0.064 C
HETATM    6  C3  UNL     1       1.278  -8.883  -9.203  1.00  0.00     0.064 C
ATOM      7  H1  UNL     1       2.835  -8.335 -11.040  1.00  0.00     0.185 HD
ENDBRANCH   1   3
BRANCH   1   8
HETATM    8  C4  UNL     1       4.177 -10.235 -12.581  1.00  0.00     0.099 C
HETATM    9  C5  UNL     1       3.068  -9.448 -13.263  1.00  0.00     0.034 C
BRANCH   8  10
HETATM   10  C6  UNL     1       3.880 -11.689 -12.776  1.00  0.00     0.009 C
HETATM   11  C7  UNL     1       2.403 -12.004 -12.636  1.00  0.00     0.007 C
HETATM   12  C8  UNL     1       2.446 -13.530 -12.617  1.00  0.00     0.000 C
HETATM   13  C9  UNL     1       3.787 -13.897 -12.015  1.00  0.00     0.000 C
HETATM   14  C10 UNL     1       4.482 -12.571 -11.711  1.00  0.00     0.007 C
ENDBRANCH   8  10
ENDBRANCH   1   8
TORSDOF 3
ENDMDL