MODEL 2
REMARK VINA RESULT: -7.000296449      2.293      5.593
REMARK  9 active torsions:
REMARK  status: ('A' for Active; 'I' for Inactive)
REMARK    1  A    between atoms: C3_3  and  C5_5
REMARK    2  A    between atoms: C5_5  and  O2_7
REMARK    3  A    between atoms: O2_7  and  C6_8
REMARK    4  A    between atoms: C6_8  and  C7_9
REMARK    5  A    between atoms: C8_10  and  O3_11
REMARK    6  A    between atoms: C9_13  and  O4_14
REMARK    7  A    between atoms: C12_20  and  C13_21
REMARK    8  A    between atoms: C14_23  and  O6_24
REMARK    9  A    between atoms: C14_23  and  O7_26
ROOT
HETATM    1  C7  UNL     1      43.651  58.473   4.222  1.00  0.00     0.046 C
HETATM    2  C8  UNL     1      43.190  57.317   3.402  1.00  0.00     0.155 C
HETATM    3  C9  UNL     1      44.209  56.647   2.561  1.00  0.00     0.170 C
HETATM    4  C10 UNL     1      45.559  56.469   3.190  1.00  0.00     0.112 C
HETATM    5  N1  UNL     1      46.610  57.090   2.430  1.00  0.00    -0.409 N
ATOM      6  H1  UNL     1      47.392  56.561   2.046  1.00  0.00     0.154 HD
HETATM    7  C11 UNL     1      46.481  58.487   2.254  1.00  0.00     0.102 A
HETATM    8  C12 UNL     1      47.750  59.281   2.508  1.00  0.00     0.133 A
HETATM    9  C14 UNL     1      47.034  60.042   3.601  1.00  0.00     0.180 A
HETATM   10  C17 UNL     1      45.787  59.251   3.295  1.00  0.00     0.077 A
HETATM   11  C18 UNL     1      45.173  58.499   4.418  1.00  0.00     0.011 C
HETATM   12  C19 UNL     1      45.588  57.088   4.573  1.00  0.00     0.012 C
HETATM   13  C20 UNL     1      46.875  56.853   5.278  1.00  0.00     0.012 C
ENDROOT
BRANCH   1  14
HETATM   14  C6  UNL     1      43.018  58.475   5.597  1.00  0.00     0.186 C
BRANCH  14  15
HETATM   15  O2  UNL     1      43.216  59.637   6.331  1.00  0.00    -0.317 OA
BRANCH  15  16
HETATM   16  C5  UNL     1      43.750  59.775   7.582  1.00  0.00     0.288 C
HETATM   17  O1  UNL     1      42.995  59.556   8.558  1.00  0.00    -0.260 OA
BRANCH  16  18
HETATM   18  C3  UNL     1      45.129  60.157   7.843  1.00  0.00     0.009 C
HETATM   19  C2  UNL     1      46.055  59.269   8.151  1.00  0.00    -0.018 C
HETATM   20  C1  UNL     1      47.444  59.689   8.411  1.00  0.00     0.036 C
HETATM   21  C4  UNL     1      45.511  61.582   7.763  1.00  0.00     0.054 C
ENDBRANCH  16  18
ENDBRANCH  15  16
ENDBRANCH  14  15
ENDBRANCH   1  14
BRANCH   2  22
HETATM   22  O3  UNL     1      42.157  57.768   2.576  1.00  0.00    -0.392 OA
ATOM     23  H3  UNL     1      41.437  58.037   3.135  1.00  0.00     0.210 HD
ENDBRANCH   2  22
BRANCH   3  24
HETATM   24  O4  UNL     1      43.740  55.382   2.203  1.00  0.00    -0.391 OA
ATOM     25  H4  UNL     1      43.068  55.480   1.541  1.00  0.00     0.210 HD
ENDBRANCH   3  24
BRANCH   9  26
HETATM   26  O6  UNL     1      47.548  59.883   4.868  1.00  0.00    -0.359 OA
HETATM   27  C15 UNL     1      48.810  60.425   4.969  1.00  0.00     0.205 C
ENDBRANCH   9  26
BRANCH   9  28
HETATM   28  O7  UNL     1      46.986  61.394   3.264  1.00  0.00    -0.359 OA
HETATM   29  C16 UNL     1      46.120  62.099   4.099  1.00  0.00     0.205 C
ENDBRANCH   9  28
BRANCH   8  30
HETATM   30  C13 UNL     1      48.244  60.083   1.382  1.00  0.00     0.243 C
HETATM   31  O5  UNL     1      49.360  59.936   0.904  1.00  0.00    -0.306 OA
ENDBRANCH   8  30
TORSDOF 9
ENDMDL