MODEL 5
REMARK VINA RESULT: -6.627546773      1.201      1.443
REMARK  9 active torsions:
REMARK  status: ('A' for Active; 'I' for Inactive)
REMARK    1  A    between atoms: O1_2  and  C2_3
REMARK    2  A    between atoms: C3_4  and  O2_5
REMARK    3  A    between atoms: O2_5  and  C4_6
REMARK    4  A    between atoms: C7_10  and  O4_11
REMARK    5  A    between atoms: C9_13  and  O5_14
REMARK    6  A    between atoms: C10_16  and  O6_17
REMARK    7  A    between atoms: C12_20  and  O7_21
REMARK    8  A    between atoms: C13_23  and  O8_24
REMARK    9  A    between atoms: O8_24  and  C14_25
ROOT
HETATM    1  C2  UNL     1      46.256  59.455   7.526  1.00  0.00     0.156 C
HETATM    2  C3  UNL     1      45.155  58.516   7.138  1.00  0.00     0.156 C
HETATM    3  C11 UNL     1      43.963  58.563   8.068  1.00  0.00     0.069 C
HETATM    4  C12 UNL     1      44.357  58.496   9.522  1.00  0.00     0.150 C
HETATM    5  C13 UNL     1      45.412  59.480   9.898  1.00  0.00     0.157 C
HETATM    6  C18 UNL     1      45.961  60.263   8.760  1.00  0.00     0.045 C
HETATM    7  C19 UNL     1      45.008  61.394   8.439  1.00  0.00     0.015 C
ENDROOT
BRANCH   2   8
HETATM    8  O2  UNL     1      44.631  58.836   5.864  1.00  0.00    -0.351 OA
BRANCH   8   9
HETATM    9  C4  UNL     1      44.478  57.708   5.061  1.00  0.00     0.292 C
HETATM   10  O3  UNL     1      45.683  57.615   4.330  1.00  0.00    -0.351 OA
HETATM   11  C5  UNL     1      45.567  56.561   3.427  1.00  0.00     0.152 C
HETATM   12  C6  UNL     1      46.893  56.068   2.936  1.00  0.00     0.042 C
HETATM   13  C7  UNL     1      44.698  57.103   2.284  1.00  0.00     0.180 C
HETATM   14  C9  UNL     1      43.330  57.301   2.848  1.00  0.00     0.183 C
HETATM   15  C10 UNL     1      43.282  57.908   4.201  1.00  0.00     0.204 C
BRANCH  13  16
HETATM   16  O4  UNL     1      45.221  58.333   1.942  1.00  0.00    -0.385 OA
HETATM   17  C8  UNL     1      45.763  58.345   0.657  1.00  0.00     0.202 C
ENDBRANCH  13  16
BRANCH  14  18
HETATM   18  O5  UNL     1      42.656  56.082   2.765  1.00  0.00    -0.390 OA
ATOM     19  H5  UNL     1      41.753  56.266   2.536  1.00  0.00     0.210 HD
ENDBRANCH  14  18
BRANCH  15  20
HETATM   20  O6  UNL     1      42.164  57.342   4.860  1.00  0.00    -0.388 OA
ATOM     21  H6  UNL     1      41.899  57.933   5.556  1.00  0.00     0.210 HD
ENDBRANCH  15  20
ENDBRANCH   8   9
ENDBRANCH   2   8
BRANCH   1  22
HETATM   22  O1  UNL     1      47.483  58.832   7.664  1.00  0.00    -0.388 OA
HETATM   23  C1  UNL     1      48.229  58.850   6.491  1.00  0.00     0.202 C
ENDBRANCH   1  22
BRANCH   4  24
HETATM   24  O7  UNL     1      44.788  57.176   9.787  1.00  0.00    -0.393 OA
ATOM     25  H7  UNL     1      44.139  56.769  10.348  1.00  0.00     0.210 HD
ENDBRANCH   4  24
BRANCH   5  26
HETATM   26  O8  UNL     1      44.819  60.402  10.790  1.00  0.00    -0.378 OA
BRANCH  26  27
HETATM   27  C14 UNL     1      45.340  60.319  12.058  1.00  0.00     0.122 C
HETATM   28  C15 UNL     1      44.393  59.626  13.008  1.00  0.00     0.032 C
HETATM   29  C16 UNL     1      44.593  60.791  13.965  1.00  0.00     0.005 C
HETATM   30  C17 UNL     1      45.121  61.616  12.805  1.00  0.00     0.032 C
ENDBRANCH  26  27
ENDBRANCH   5  26
TORSDOF 9
ENDMDL