MODEL 5
REMARK VINA RESULT: -6.083733829      1.203      1.998
REMARK  10 active torsions:
REMARK  status: ('A' for Active; 'I' for Inactive)
REMARK    1  A    between atoms: O1_2  and  C2_3
REMARK    2  A    between atoms: C2_3  and  C3_4
REMARK    3  A    between atoms: C3_4  and  C4_5
REMARK    4  A    between atoms: C3_4  and  C7_9
REMARK    5  A    between atoms: C4_5  and  O2_7
REMARK    6  A    between atoms: C9_11  and  C10_12
REMARK    7  A    between atoms: C10_12  and  C11_14
REMARK    8  A    between atoms: C11_14  and  O4_15
REMARK    9  A    between atoms: C14_19  and  O5_20
REMARK   10  A    between atoms: C19_27  and  O7_29
ROOT
HETATM    1  C7  UNL     1      46.732  59.495   6.233  1.00  0.00     0.008 C
HETATM    2  C8  UNL     1      46.576  60.766   5.371  1.00  0.00     0.020 C
HETATM    3  C9  UNL     1      46.148  59.880   7.579  1.00  0.00     0.104 C
HETATM    4  C12 UNL     1      44.851  59.189   7.765  1.00  0.00     0.085 C
HETATM    5  C13 UNL     1      44.888  57.997   8.674  1.00  0.00     0.077 C
HETATM    6  C14 UNL     1      43.637  58.184   9.564  1.00  0.00     0.186 C
HETATM    7  C15 UNL     1      42.861  58.884   8.494  1.00  0.00     0.218 A
HETATM    8  O6  UNL     1      41.679  58.688   7.995  1.00  0.00    -0.340 OA
HETATM    9  C16 UNL     1      42.584  57.888   7.398  1.00  0.00     0.191 A
HETATM   10  C17 UNL     1      43.294  58.111   6.131  1.00  0.00     0.048 C
HETATM   11  C18 UNL     1      44.494  58.907   6.346  1.00  0.00     0.059 C
HETATM   12  C19 UNL     1      45.792  58.483   5.686  1.00  0.00     0.069 C
HETATM   13  C20 UNL     1      45.425  58.490   4.250  1.00  0.00     0.047 C
HETATM   14  O8  UNL     1      43.758  59.887   8.207  1.00  0.00    -0.338 OA
ENDROOT
BRANCH   1  15
HETATM   15  C3  UNL     1      48.191  59.220   6.214  1.00  0.00     0.050 C
BRANCH  15  16
HETATM   16  C2  UNL     1      48.971  60.487   5.934  1.00  0.00     0.175 C
BRANCH  16  17
HETATM   17  O1  UNL     1      49.434  61.164   7.055  1.00  0.00    -0.395 OA
HETATM   18  C1  UNL     1      49.522  62.515   6.905  1.00  0.00     0.201 C
ENDBRANCH  16  17
ENDBRANCH  15  16
BRANCH  15  19
HETATM   19  C4  UNL     1      48.848  58.131   5.539  1.00  0.00     0.123 C
HETATM   20  C5  UNL     1      50.085  58.683   4.772  1.00  0.00     0.040 C
BRANCH  19  21
HETATM   21  O2  UNL     1      49.335  57.024   6.118  1.00  0.00    -0.391 OA
HETATM   22  C6  UNL     1      50.362  56.456   5.432  1.00  0.00     0.202 C
ENDBRANCH  19  21
ENDBRANCH  15  19
ENDBRANCH   1  15
BRANCH   3  23
HETATM   23  C10 UNL     1      45.996  61.325   7.844  1.00  0.00     0.158 C
HETATM   24  O3  UNL     1      45.594  62.114   6.966  1.00  0.00    -0.295 OA
BRANCH  23  25
HETATM   25  C11 UNL     1      46.284  62.014   9.132  1.00  0.00     0.242 C
BRANCH  25  26
HETATM   26  O4  UNL     1      45.336  61.676  10.123  1.00  0.00    -0.394 OA
ATOM     27  H4  UNL     1      45.706  61.089  10.773  1.00  0.00     0.209 HD
ENDBRANCH  25  26
ENDBRANCH  23  25
ENDBRANCH   3  23
BRANCH  12  28
HETATM   28  O7  UNL     1      46.158  57.186   6.106  1.00  0.00    -0.389 OA
ATOM     29  H7  UNL     1      47.075  57.021   5.918  1.00  0.00     0.210 HD
ENDBRANCH  12  28
BRANCH   6  30
HETATM   30  O5  UNL     1      43.899  59.021  10.627  1.00  0.00    -0.390 OA
ATOM     31  H5  UNL     1      43.593  58.647  11.445  1.00  0.00     0.210 HD
ENDBRANCH   6  30
TORSDOF 10
ENDMDL