MODEL 4
REMARK VINA RESULT: -6.958614761      3.734      6.963
REMARK  8 active torsions:
REMARK  status: ('A' for Active; 'I' for Inactive)
REMARK    1  A    between atoms: C2_2  and  C3_3
REMARK    2  A    between atoms: C3_3  and  O1_4
REMARK    3  A    between atoms: O1_4  and  C4_5
REMARK    4  A    between atoms: C6_9  and  O3_10
REMARK    5  A    between atoms: C12_17  and  C13_18
REMARK    6  A    between atoms: C13_18  and  O4_19
REMARK    7  A    between atoms: O4_19  and  S1_20
REMARK    8  A    between atoms: C17_26  and  O7_27
ROOT
HETATM    1  C4  UNL     1      43.046  57.594   5.084  1.00  0.00     0.312 C
HETATM    2  O2  UNL     1      42.582  57.839   6.348  1.00  0.00    -0.251 OA
HETATM    3  N1  UNL     1      42.767  59.068   6.807  1.00  0.00    -0.090 NA
HETATM    4  C5  UNL     1      44.164  59.377   6.811  1.00  0.00     0.142 C
HETATM    5  C6  UNL     1      44.545  60.609   7.541  1.00  0.00     0.141 C
HETATM    6  C7  UNL     1      46.076  60.668   7.509  1.00  0.00     0.043 C
HETATM    7  C8  UNL     1      46.476  60.985   6.094  1.00  0.00    -0.032 C
HETATM    8  C9  UNL     1      47.971  61.088   5.947  1.00  0.00     0.010 C
HETATM    9  C10 UNL     1      48.145  61.926   4.728  1.00  0.00     0.001 C
HETATM   10  C11 UNL     1      46.841  62.553   4.381  1.00  0.00     0.007 C
HETATM   11  C12 UNL     1      45.976  62.293   5.605  1.00  0.00     0.019 C
HETATM   12  C15 UNL     1      46.033  59.853   5.206  1.00  0.00     0.019 C
HETATM   13  C16 UNL     1      44.635  59.423   5.388  1.00  0.00     0.044 C
HETATM   14  C17 UNL     1      44.484  58.007   4.867  1.00  0.00     0.181 C
ENDROOT
BRANCH  11  15
HETATM   15  C13 UNL     1      46.152  63.444   6.529  1.00  0.00     0.195 C
BRANCH  15  16
HETATM   16  O4  UNL     1      44.951  63.976   6.976  1.00  0.00    -0.276 OA
BRANCH  16  17
HETATM   17  S1  UNL     1      45.003  64.511   8.537  1.00  0.00     0.261 S
HETATM   18  C14 UNL     1      46.702  64.554   9.071  1.00  0.00     0.194 C
HETATM   19  O5  UNL     1      44.305  63.483   9.414  1.00  0.00    -0.199 OA
HETATM   20  O6  UNL     1      44.318  65.822   8.751  1.00  0.00    -0.199 OA
ENDBRANCH  16  17
ENDBRANCH  15  16
ENDBRANCH  11  15
BRANCH   5  21
HETATM   21  O3  UNL     1      44.129  60.488   8.868  1.00  0.00    -0.394 OA
ATOM     22  H3  UNL     1      44.013  61.358   9.230  1.00  0.00     0.210 HD
ENDBRANCH   5  21
BRANCH  14  23
HETATM   23  O7  UNL     1      45.316  57.190   5.596  1.00  0.00    -0.390 OA
ATOM     24  H7  UNL     1      46.135  57.071   5.130  1.00  0.00     0.210 HD
ENDBRANCH  14  23
BRANCH   1  25
HETATM   25  O1  UNL     1      42.290  58.139   4.075  1.00  0.00    -0.357 OA
BRANCH  25  26
HETATM   26  C3  UNL     1      42.754  57.782   2.808  1.00  0.00     0.170 C
BRANCH  26  27
HETATM   27  C2  UNL     1      41.930  56.668   2.204  1.00  0.00     0.022 C
HETATM   28  C1  UNL     1      42.395  56.308   0.819  1.00  0.00     0.007 C
ENDBRANCH  26  27
ENDBRANCH  25  26
ENDBRANCH   1  25
TORSDOF 8
ENDMDL