MODEL 2
REMARK VINA RESULT: -6.353557711      1.839      4.488
REMARK  9 active torsions:
REMARK  status: ('A' for Active; 'I' for Inactive)
REMARK    1  A    between atoms: C2_2  and  O1_3
REMARK    2  A    between atoms: O1_3  and  C3_4
REMARK    3  A    between atoms: C3_4  and  C4_5
REMARK    4  A    between atoms: C6_7  and  O2_8
REMARK    5  A    between atoms: C9_13  and  O4_14
REMARK    6  A    between atoms: O4_14  and  C10_15
REMARK    7  A    between atoms: C16_22  and  O5_23
REMARK    8  A    between atoms: C18_25  and  O6_26
REMARK    9  A    between atoms: C19_28  and  O7_29
ROOT
HETATM    1  C4  UNL     1      45.362  58.479   2.642  1.00  0.00     0.005 A
HETATM    2  C5  UNL     1      45.739  59.649   1.726  1.00  0.00     0.060 A
HETATM    3  C6  UNL     1      46.933  59.435   0.924  1.00  0.00     0.262 C
HETATM    4  O3  UNL     1      47.720  58.349   1.156  1.00  0.00    -0.361 OA
HETATM    5  C7  UNL     1      47.090  57.185   1.468  1.00  0.00     0.179 C
HETATM    6  C8  UNL     1      46.360  57.429   2.799  1.00  0.00     0.060 C
HETATM    7  C9  UNL     1      47.295  57.391   3.945  1.00  0.00     0.122 C
HETATM    8  C12 UNL     1      48.387  58.453   3.947  1.00  0.00     0.314 C
HETATM    9  N1  UNL     1      47.912  59.732   3.825  1.00  0.00     0.104 N
HETATM   10  C13 UNL     1      48.418  60.874   4.427  1.00  0.00     0.276 C
HETATM   11  C14 UNL     1      47.052  61.525   4.154  1.00  0.00     0.075 C
HETATM   12  C15 UNL     1      46.609  60.050   4.182  1.00  0.00     0.194 C
HETATM   13  C16 UNL     1      46.142  59.744   5.551  1.00  0.00     0.191 C
HETATM   14  C18 UNL     1      46.583  58.459   6.147  1.00  0.00     0.181 C
HETATM   15  C19 UNL     1      46.605  57.269   5.266  1.00  0.00     0.186 C
HETATM   16  C20 UNL     1      45.560  59.810   3.145  1.00  0.00     0.048 A
ENDROOT
BRANCH   1  17
HETATM   17  C3  UNL     1      43.926  58.020   2.302  1.00  0.00     0.178 C
BRANCH  17  18
HETATM   18  O1  UNL     1      43.084  58.246   3.374  1.00  0.00    -0.391 OA
BRANCH  18  19
HETATM   19  C2  UNL     1      42.082  57.283   3.466  1.00  0.00     0.163 C
HETATM   20  C1  UNL     1      41.930  56.620   2.117  1.00  0.00     0.033 C
ENDBRANCH  18  19
ENDBRANCH  17  18
ENDBRANCH   1  17
BRANCH   3  21
HETATM   21  O2  UNL     1      47.809  60.547   0.854  1.00  0.00    -0.371 OA
ATOM     22  H2  UNL     1      47.406  61.385   1.048  1.00  0.00     0.212 HD
ENDBRANCH   3  21
BRANCH   7  23
HETATM   23  O4  UNL     1      48.061  56.234   3.812  1.00  0.00    -0.376 OA
BRANCH  23  24
HETATM   24  C10 UNL     1      48.427  55.548   4.896  1.00  0.00     0.164 C
HETATM   25  C11 UNL     1      49.975  55.527   4.874  1.00  0.00     0.033 C
ENDBRANCH  23  24
ENDBRANCH   7  23
BRANCH  15  26
HETATM   26  O7  UNL     1      45.266  56.862   5.128  1.00  0.00    -0.390 OA
ATOM     27  H7  UNL     1      45.194  55.995   4.746  1.00  0.00     0.210 HD
ENDBRANCH  15  26
BRANCH  13  28
HETATM   28  O5  UNL     1      44.743  59.760   5.544  1.00  0.00    -0.385 OA
HETATM   29  C17 UNL     1      44.194  59.826   6.804  1.00  0.00     0.202 C
ENDBRANCH  13  28
BRANCH  14  30
HETATM   30  O6  UNL     1      47.750  58.595   6.940  1.00  0.00    -0.390 OA
ATOM     31  H6  UNL     1      48.286  57.809   6.944  1.00  0.00     0.210 HD
ENDBRANCH  14  30
TORSDOF 9
ENDMDL