MODEL 2
REMARK VINA RESULT: -7.060712034      2.426      5.469
REMARK  7 active torsions:
REMARK  status: ('A' for Active; 'I' for Inactive)
REMARK    1  A    between atoms: O1_2  and  C2_3
REMARK    2  A    between atoms: C2_3  and  C3_4
REMARK    3  A    between atoms: C2_3  and  C8_11
REMARK    4  A    between atoms: C8_11  and  N1_12
REMARK    5  A    between atoms: C8_11  and  N5_26
REMARK       I    between atoms: N1_12  and  C9_14
REMARK    6  A    between atoms: C9_14  and  C10_16
REMARK    7  A    between atoms: C11_22  and  C12_23
ROOT
HETATM    1  C8  UNL     1      46.953  58.437   1.367  1.00  0.00     0.093 C
ENDROOT
BRANCH   1   2
HETATM    2  C2  UNL     1      48.236  58.289   2.073  1.00  0.00     0.213 C
BRANCH   2   3
HETATM    3  O1  UNL     1      48.827  59.429   2.507  1.00  0.00    -0.381 OA
HETATM    4  C1  UNL     1      49.819  60.013   1.795  1.00  0.00     0.202 C
ENDBRANCH   2   3
BRANCH   2   5
HETATM    5  C3  UNL     1      48.104  57.425   3.355  1.00  0.00     0.184 C
HETATM    6  C4  UNL     1      48.185  58.309   4.603  1.00  0.00     0.206 C
HETATM    7  O2  UNL     1      48.851  57.506   5.470  1.00  0.00    -0.353 OA
HETATM    8  C5  UNL     1      49.413  56.438   4.829  1.00  0.00     0.157 C
HETATM    9  C6  UNL     1      50.846  56.327   5.302  1.00  0.00     0.078 C
HETATM   10  C7  UNL     1      48.706  55.108   5.129  1.00  0.00     0.078 C
HETATM   11  O3  UNL     1      49.283  56.693   3.482  1.00  0.00    -0.345 OA
ENDBRANCH   2   5
ENDBRANCH   1   2
BRANCH   1  12
HETATM   12  N1  UNL     1      45.896  57.631   1.954  1.00  0.00    -0.313 N
HETATM   13  C9  UNL     1      44.729  58.289   2.527  1.00  0.00     0.276 C
HETATM   14  O4  UNL     1      44.765  59.582   2.435  1.00  0.00    -0.266 OA
ATOM     15  H1  UNL     1      45.970  56.614   1.965  1.00  0.00     0.170 HD
BRANCH  13  16
HETATM   16  C10 UNL     1      43.646  57.619   3.160  1.00  0.00     0.138 C
HETATM   17  N2  UNL     1      42.670  56.973   2.339  1.00  0.00    -0.277 N
HETATM   18  N3  UNL     1      41.736  56.551   3.243  1.00  0.00    -0.022 NA
ATOM     19  H2  UNL     1      42.670  56.855   1.325  1.00  0.00     0.184 HD
HETATM   20  N4  UNL     1      41.860  57.379   4.399  1.00  0.00    -0.285 N
HETATM   21  C11 UNL     1      43.000  58.024   4.377  1.00  0.00     0.061 C
ATOM     22  H4  UNL     1      41.161  57.456   5.137  1.00  0.00     0.184 HD
BRANCH  21  23
HETATM   23  C12 UNL     1      43.542  58.866   5.480  1.00  0.00     0.039 A
HETATM   24  C13 UNL     1      42.763  58.832   6.796  1.00  0.00     0.011 A
HETATM   25  C14 UNL     1      44.042  58.146   6.746  1.00  0.00     0.011 A
ENDBRANCH  21  23
ENDBRANCH  13  16
ENDBRANCH   1  12
BRANCH   1  26
HETATM   26  N5  UNL     1      46.890  58.512  -0.026  1.00  0.00    -0.267 NA
HETATM   27  C15 UNL     1      46.046  57.474  -0.620  1.00  0.00     0.123 C
HETATM   28  C16 UNL     1      46.462  57.426  -2.099  1.00  0.00     0.182 C
HETATM   29  O5  UNL     1      45.962  58.562  -2.665  1.00  0.00    -0.389 OA
HETATM   30  C17 UNL     1      46.516  59.698  -2.151  1.00  0.00     0.182 C
HETATM   31  C18 UNL     1      46.680  59.764  -0.668  1.00  0.00     0.123 C
ENDBRANCH   1  26
TORSDOF 7
ENDMDL