MODEL 5
REMARK VINA RESULT: -6.607605502      2.761      3.974
REMARK  7 active torsions:
REMARK  status: ('A' for Active; 'I' for Inactive)
REMARK    1  A    between atoms: C2_2  and  C3_3
REMARK    2  A    between atoms: C3_3  and  C4_4
REMARK    3  A    between atoms: C4_4  and  C5_5
REMARK    4  A    between atoms: C5_5  and  C6_6
REMARK    5  A    between atoms: N3_12  and  C9_13
REMARK    6  A    between atoms: C10_15  and  C11_16
REMARK    7  A    between atoms: C11_16  and  O2_18
ROOT
HETATM    1  C9  UNL     1      47.449  57.980   5.582  1.00  0.00     0.258 C
HETATM    2  O1  UNL     1      46.415  58.615   4.903  1.00  0.00    -0.355 OA
HETATM    3  C10 UNL     1      45.452  58.881   5.890  1.00  0.00     0.173 C
HETATM    4  C13 UNL     1      46.123  58.745   7.234  1.00  0.00     0.177 C
HETATM    5  C14 UNL     1      47.597  58.858   6.773  1.00  0.00     0.257 C
HETATM    6  N4  UNL     1      47.693  60.263   6.440  1.00  0.00    -0.043 N
ATOM      7  H41 UNL     1      47.066  60.534   5.683  1.00  0.00     0.279 HD
ATOM      8  H42 UNL     1      48.572  60.502   5.980  1.00  0.00     0.279 HD
HETATM    9  C15 UNL     1      47.472  61.018   7.645  1.00  0.00     0.221 C
HETATM   10  C16 UNL     1      47.120  62.443   7.309  1.00  0.00     0.063 C
HETATM   11  C17 UNL     1      48.579  60.925   8.639  1.00  0.00     0.063 C
HETATM   12  S1  UNL     1      45.985  60.191   8.240  1.00  0.00     0.187 S
HETATM   13  O3  UNL     1      44.763  60.960   7.900  1.00  0.00    -0.225 OA
HETATM   14  O4  UNL     1      46.100  59.861   9.692  1.00  0.00    -0.225 OA
ENDROOT
BRANCH   1  15
HETATM   15  N3  UNL     1      48.565  57.618   4.844  1.00  0.00    -0.321 N
HETATM   16  C6  UNL     1      49.017  58.322   3.621  1.00  0.00     0.107 C
HETATM   17  C7  UNL     1      49.448  57.133   2.790  1.00  0.00     0.147 C
HETATM   18  N1  UNL     1      50.045  56.293   3.825  1.00  0.00    -0.362 N
HETATM   19  C8  UNL     1      49.532  56.584   4.982  1.00  0.00     0.188 C
ATOM     20  H1  UNL     1      50.760  55.583   3.663  1.00  0.00     0.162 HD
HETATM   21  N2  UNL     1      49.856  55.985   6.229  1.00  0.00    -0.064 NA
BRANCH  16  22
HETATM   22  C5  UNL     1      50.206  59.153   4.074  1.00  0.00     0.027 C
BRANCH  22  23
HETATM   23  C4  UNL     1      50.265  60.481   3.379  1.00  0.00     0.002 C
BRANCH  23  24
HETATM   24  C3  UNL     1      50.260  61.593   4.389  1.00  0.00    -0.000 C
BRANCH  24  25
HETATM   25  C2  UNL     1      51.346  61.488   5.432  1.00  0.00    -0.005 C
HETATM   26  C1  UNL     1      51.155  62.572   6.486  1.00  0.00     0.005 C
ENDBRANCH  24  25
ENDBRANCH  23  24
ENDBRANCH  22  23
ENDBRANCH  16  22
ENDBRANCH   1  15
BRANCH   3  27
HETATM   27  C11 UNL     1      44.309  57.892   5.831  1.00  0.00     0.144 C
HETATM   28  C12 UNL     1      42.991  58.666   5.967  1.00  0.00     0.042 C
BRANCH  27  29
HETATM   29  O2  UNL     1      44.405  57.097   6.973  1.00  0.00    -0.393 OA
ATOM     30  H2  UNL     1      43.772  57.435   7.596  1.00  0.00     0.210 HD
ENDBRANCH  27  29
ENDBRANCH   3  27
TORSDOF 7
ENDMDL