MODEL 4
REMARK VINA RESULT: -7.050701386      2.500      6.201
REMARK  8 active torsions:
REMARK  status: ('A' for Active; 'I' for Inactive)
REMARK    1  A    between atoms: N1_2  and  C2_4
REMARK    2  A    between atoms: C3_7  and  O1_8
REMARK    3  A    between atoms: O1_8  and  C4_9
REMARK    4  A    between atoms: C4_9  and  C5_10
REMARK    5  A    between atoms: C11_18  and  C12_19
REMARK    6  A    between atoms: C12_19  and  N3_20
REMARK    7  A    between atoms: C14_26  and  N5_27
REMARK    8  A    between atoms: N5_27  and  C15_29
ROOT
HETATM    1  C2  UNL     1      44.646  58.017   1.853  1.00  0.00     0.695 A
HETATM    2  N2  UNL     1      45.580  58.523   2.658  1.00  0.00    -0.154 N
ATOM      3  H2  UNL     1      45.285  59.002   3.510  1.00  0.00     0.188 HD
HETATM    4  C3  UNL     1      46.926  58.426   2.385  1.00  0.00     0.255 A
HETATM    5  N4  UNL     1      47.207  57.781   1.243  1.00  0.00    -0.154 N
ATOM      6  H4  UNL     1      48.191  57.682   0.995  1.00  0.00     0.188 HD
HETATM    7  C14 UNL     1      46.305  57.253   0.397  1.00  0.00     0.696 A
HETATM    8  N6  UNL     1      45.015  57.385   0.728  1.00  0.00    -0.022 N
ATOM      9  H6  UNL     1      44.298  56.999   0.113  1.00  0.00     0.203 HD
ENDROOT
BRANCH   4  10
HETATM   10  O1  UNL     1      47.766  58.977   3.276  1.00  0.00    -0.280 OA
BRANCH  10  11
HETATM   11  C4  UNL     1      48.864  58.543   3.998  1.00  0.00     0.207 C
HETATM   12  O2  UNL     1      49.164  57.191   3.651  1.00  0.00    -0.316 OA
HETATM   13  C8  UNL     1      49.307  56.478   4.804  1.00  0.00     0.161 C
HETATM   14  C9  UNL     1      48.160  55.465   4.928  1.00  0.00     0.078 C
HETATM   15  C10 UNL     1      50.585  55.637   4.843  1.00  0.00     0.078 C
HETATM   16  O3  UNL     1      49.268  57.343   5.867  1.00  0.00    -0.343 OA
HETATM   17  C11 UNL     1      48.612  58.506   5.452  1.00  0.00     0.214 C
BRANCH  11  18
HETATM   18  C5  UNL     1      50.088  59.309   3.578  1.00  0.00     0.043 C
HETATM   19  C6  UNL     1      50.104  60.585   4.449  1.00  0.00     0.015 C
HETATM   20  C7  UNL     1      50.130  59.765   2.167  1.00  0.00     0.015 C
ENDBRANCH  11  18
BRANCH  17  21
HETATM   21  C12 UNL     1      47.176  58.333   5.878  1.00  0.00     0.269 C
BRANCH  21  22
HETATM   22  N3  UNL     1      46.592  59.689   5.935  1.00  0.00    -0.076 N
HETATM   23  C13 UNL     1      45.164  59.531   6.107  1.00  0.00     0.267 C
ATOM     24  H32 UNL     1      47.019  60.279   6.650  1.00  0.00     0.276 HD
ATOM     25  H31 UNL     1      46.836  60.264   5.128  1.00  0.00     0.276 HD
ENDBRANCH  21  22
ENDBRANCH  17  21
ENDBRANCH  10  11
ENDBRANCH   4  10
BRANCH   1  26
HETATM   26  N1  UNL     1      43.375  58.109   2.110  1.00  0.00    -0.230 N
HETATM   27  C1  UNL     1      42.478  57.006   1.872  1.00  0.00     0.165 C
ATOM     28  H1  UNL     1      43.004  58.980   2.488  1.00  0.00     0.177 HD
ENDBRANCH   1  26
BRANCH   7  29
HETATM   29  N5  UNL     1      46.718  56.660  -0.664  1.00  0.00    -0.219 N
ATOM     30  H5  UNL     1      47.532  56.049  -0.606  1.00  0.00     0.178 HD
BRANCH  29  31
HETATM   31  C15 UNL     1      46.068  56.831  -1.927  1.00  0.00     0.125 C
HETATM   32  C16 UNL     1      46.312  58.232  -2.452  1.00  0.00     0.054 C
HETATM   33  C17 UNL     1      46.218  57.981  -3.952  1.00  0.00     0.169 C
HETATM   34  O4  UNL     1      46.652  56.707  -4.187  1.00  0.00    -0.389 OA
HETATM   35  C18 UNL     1      46.698  55.999  -3.022  1.00  0.00     0.193 C
ENDBRANCH  29  31
ENDBRANCH   7  29
TORSDOF 8
ENDMDL