MODEL 2
REMARK VINA RESULT: -9.608960468      1.635      1.957
REMARK  15 active torsions:
REMARK  status: ('A' for Active; 'I' for Inactive)
REMARK    1  A    between atoms: C2_2  and  C3_3
REMARK    2  A    between atoms: C2_2  and  C17_21
REMARK    3  A    between atoms: C4_4  and  C5_5
REMARK    4  A    between atoms: C5_5  and  C6_6
REMARK    5  A    between atoms: C6_6  and  C12_14
REMARK    6  A    between atoms: C7_7  and  C8_8
REMARK    7  A    between atoms: C8_8  and  C10_10
REMARK    8  A    between atoms: C10_10  and  O2_12
REMARK    9  A    between atoms: C12_14  and  C14_16
REMARK   10  A    between atoms: C14_16  and  O3_17
REMARK   11  A    between atoms: O3_17  and  C15_18
REMARK   12  A    between atoms: C20_24  and  O5_25
REMARK   13  A    between atoms: C22_28  and  C23_29
REMARK       I    between atoms: C23_29  and  N1_31
REMARK   14  A    between atoms: N1_31  and  C24_33
REMARK   15  A    between atoms: C28_37  and  O7_38
ROOT
HETATM    1  C1  UNL     1      17.312  24.954  17.333  1.00  0.00     0.019 C
HETATM    2  C2  UNL     1      18.265  24.068  16.950  1.00  0.00    -0.061 C
ENDROOT
BRANCH   2   3
HETATM    3  C3  UNL     1      18.564  23.064  17.920  1.00  0.00     0.003 C
HETATM    4  C4  UNL     1      18.321  21.844  18.188  1.00  0.00    -0.022 C
BRANCH   4   5
HETATM    5  C5  UNL     1      17.525  20.795  17.559  1.00  0.00     0.061 C
BRANCH   5   6
HETATM    6  C6  UNL     1      16.072  20.792  17.880  1.00  0.00    -0.074 C
HETATM    7  C7  UNL     1      15.198  21.412  17.143  1.00  0.00    -0.009 C
BRANCH   7   8
HETATM    8  C8  UNL     1      15.169  22.219  15.946  1.00  0.00     0.104 C
HETATM    9  C9  UNL     1      16.032  21.955  14.789  1.00  0.00     0.025 C
BRANCH   8  10
HETATM   10  C10 UNL     1      13.753  22.330  15.401  1.00  0.00     0.265 C
HETATM   11  O1  UNL     1      13.361  23.373  14.852  1.00  0.00    -0.265 OA
BRANCH  10  12
HETATM   12  O2  UNL     1      12.922  21.259  15.528  1.00  0.00    -0.326 OA
HETATM   13  C11 UNL     1      11.656  21.152  14.899  1.00  0.00     0.213 C
ENDBRANCH  10  12
ENDBRANCH   8  10
ENDBRANCH   7   8
BRANCH   6  14
HETATM   14  C12 UNL     1      15.627  20.135  19.139  1.00  0.00     0.035 C
HETATM   15  C13 UNL     1      15.326  21.091  20.271  1.00  0.00     0.017 C
BRANCH  14  16
HETATM   16  C14 UNL     1      14.471  19.198  19.031  1.00  0.00     0.187 C
BRANCH  16  17
HETATM   17  O3  UNL     1      13.365  19.604  19.801  1.00  0.00    -0.321 OA
BRANCH  17  18
HETATM   18  C15 UNL     1      12.694  18.651  20.552  1.00  0.00     0.254 C
HETATM   19  C16 UNL     1      13.423  18.042  21.693  1.00  0.00     0.126 C
HETATM   20  O4  UNL     1      11.519  18.344  20.250  1.00  0.00    -0.266 OA
ENDBRANCH  17  18
ENDBRANCH  16  17
ENDBRANCH  14  16
ENDBRANCH   6  14
ENDBRANCH   5   6
ENDBRANCH   4   5
ENDBRANCH   2   3
BRANCH   2  21
HETATM   21  C17 UNL     1      18.866  24.251  15.660  1.00  0.00     0.048 C
HETATM   22  C18 UNL     1      18.212  25.227  14.709  1.00  0.00     0.020 C
HETATM   23  C19 UNL     1      19.382  25.760  13.973  1.00  0.00     0.026 C
HETATM   24  C20 UNL     1      19.357  27.036  13.308  1.00  0.00     0.124 C
HETATM   25  C26 UNL     1      20.319  26.040  15.170  1.00  0.00     0.001 C
HETATM   26  C21 UNL     1      20.773  27.590  13.538  1.00  0.00     0.047 C
HETATM   27  C22 UNL     1      21.485  26.507  14.374  1.00  0.00     0.091 C
HETATM   28  C27 UNL     1      19.816  27.034  16.126  1.00  0.00     0.019 C
HETATM   29  C28 UNL     1      20.358  24.651  15.690  1.00  0.00     0.136 C
BRANCH  24  30
HETATM   30  O5  UNL     1      18.385  27.939  13.650  1.00  0.00    -0.395 OA
ATOM     31  H5  UNL     1      18.636  28.841  13.815  1.00  0.00     0.210 HD
ENDBRANCH  24  30
BRANCH  27  32
HETATM   32  C23 UNL     1      22.596  27.081  15.111  1.00  0.00     0.222 C
HETATM   33  O6  UNL     1      22.807  28.313  15.098  1.00  0.00    -0.273 OA
HETATM   34  N1  UNL     1      23.465  26.250  15.860  1.00  0.00    -0.361 N
ATOM     35  H1  UNL     1      23.294  25.245  15.871  1.00  0.00     0.162 HD
BRANCH  34  36
HETATM   36  C24 UNL     1      24.590  26.777  16.613  1.00  0.00     0.118 C
HETATM   37  C25 UNL     1      25.872  26.653  15.829  1.00  0.00     0.026 C
ENDBRANCH  34  36
ENDBRANCH  27  32
BRANCH  29  38
HETATM   38  O7  UNL     1      21.086  23.885  14.768  1.00  0.00    -0.394 OA
ATOM     39  H7  UNL     1      21.988  24.179  14.734  1.00  0.00     0.210 HD
ENDBRANCH  29  38
ENDBRANCH   2  21
TORSDOF 15
ENDMDL