MODEL 3
REMARK VINA RESULT: -5.006677434      2.040      5.399
REMARK  13 active torsions:
REMARK  status: ('A' for Active; 'I' for Inactive)
REMARK    1  A    between atoms: C2_2  and  C3_3
REMARK    2  A    between atoms: C3_3  and  C4_4
REMARK    3  A    between atoms: C4_4  and  C5_5
REMARK    4  A    between atoms: C5_5  and  C6_6
REMARK    5  A    between atoms: C6_6  and  O1_7
REMARK    6  A    between atoms: C9_13  and  C10_14
REMARK    7  A    between atoms: C13_17  and  O3_18
REMARK    8  A    between atoms: C15_24  and  O5_25
REMARK    9  A    between atoms: C17_27  and  O6_28
REMARK   10  A    between atoms: C18_32  and  C20_34
REMARK   11  A    between atoms: C20_34  and  C21_35
REMARK   12  A    between atoms: C23_37  and  O7_38
REMARK   13  A    between atoms: O7_38  and  C24_39
ROOT
HETATM    1  C5  UNL     1      22.693  26.163  18.480  1.00  0.00     0.090 C
HETATM    2  C8  UNL     1      22.194  27.552  18.133  1.00  0.00     0.232 C
HETATM    3  O2  UNL     1      21.497  27.984  19.141  1.00  0.00    -0.273 OA
HETATM    4  N1  UNL     1      22.304  28.404  17.075  1.00  0.00    -0.348 N
ATOM      5  H1  UNL     1      22.924  29.155  17.380  1.00  0.00     0.163 HD
HETATM    6  C9  UNL     1      21.947  28.708  15.759  1.00  0.00     0.162 C
HETATM    7  C13 UNL     1      20.849  28.260  14.978  1.00  0.00     0.141 C
HETATM    8  N2  UNL     1      20.565  27.143  14.170  1.00  0.00    -0.307 N
ATOM      9  H2  UNL     1      20.361  27.354  13.193  1.00  0.00     0.170 HD
HETATM   10  C14 UNL     1      20.520  25.769  14.512  1.00  0.00     0.260 C
HETATM   11  O4  UNL     1      21.317  24.979  13.939  1.00  0.00    -0.270 OA
HETATM   12  C15 UNL     1      19.587  25.160  15.516  1.00  0.00     0.286 C
HETATM   13  C17 UNL     1      20.269  24.152  16.377  1.00  0.00     0.151 C
HETATM   14  N3  UNL     1      20.350  23.981  17.738  1.00  0.00    -0.360 N
ATOM     15  H3  UNL     1      19.768  23.169  17.944  1.00  0.00     0.162 HD
HETATM   16  C18 UNL     1      20.852  24.394  18.962  1.00  0.00     0.055 C
HETATM   17  C19 UNL     1      21.388  23.039  19.572  1.00  0.00     0.041 C
HETATM   18  C23 UNL     1      21.832  25.390  19.373  1.00  0.00     0.169 C
ENDROOT
BRANCH   1  19
HETATM   19  C4  UNL     1      23.478  25.561  17.390  1.00  0.00     0.024 C
BRANCH  19  20
HETATM   20  C3  UNL     1      24.836  25.106  17.574  1.00  0.00     0.001 C
BRANCH  20  21
HETATM   21  C2  UNL     1      25.651  25.610  16.354  1.00  0.00    -0.005 C
HETATM   22  C1  UNL     1      27.105  25.642  16.724  1.00  0.00     0.005 C
ENDBRANCH  20  21
ENDBRANCH  19  20
ENDBRANCH   1  19
BRANCH   1  23
HETATM   23  C6  UNL     1      23.916  26.557  19.397  1.00  0.00     0.189 C
BRANCH  23  24
HETATM   24  O1  UNL     1      24.495  27.739  18.822  1.00  0.00    -0.395 OA
HETATM   25  C7  UNL     1      25.794  27.761  19.319  1.00  0.00     0.201 C
ENDBRANCH  23  24
ENDBRANCH   1  23
BRANCH  18  26
HETATM   26  O7  UNL     1      22.533  24.952  20.512  1.00  0.00    -0.378 OA
BRANCH  26  27
HETATM   27  C24 UNL     1      22.167  25.099  21.760  1.00  0.00     0.114 C
HETATM   28  C25 UNL     1      23.430  25.101  22.654  1.00  0.00     0.039 C
HETATM   29  C26 UNL     1      21.531  26.407  22.247  1.00  0.00     0.039 C
ENDBRANCH  26  27
ENDBRANCH  18  26
BRANCH  16  30
HETATM   30  C20 UNL     1      19.569  24.634  19.795  1.00  0.00     0.033 C
BRANCH  30  31
HETATM   31  C21 UNL     1      19.061  23.390  20.498  1.00  0.00    -0.002 C
HETATM   32  C22 UNL     1      17.765  22.949  19.792  1.00  0.00     0.005 C
ENDBRANCH  30  31
ENDBRANCH  16  30
BRANCH   6  33
HETATM   33  C10 UNL     1      23.217  28.491  14.881  1.00  0.00     0.008 C
HETATM   34  C11 UNL     1      23.158  29.439  13.691  1.00  0.00     0.012 C
HETATM   35  C12 UNL     1      24.470  28.733  15.630  1.00  0.00     0.012 C
ENDBRANCH   6  33
BRANCH   7  36
HETATM   36  O3  UNL     1      19.841  29.096  15.018  1.00  0.00    -0.348 OA
ATOM     37  H3  UNL     1      19.450  29.145  15.882  1.00  0.00     0.219 HD
ENDBRANCH   7  36
BRANCH  13  38
HETATM   38  O6  UNL     1      20.863  23.336  15.548  1.00  0.00    -0.347 OA
ATOM     39  H6  UNL     1      20.203  23.106  14.905  1.00  0.00     0.219 HD
ENDBRANCH  13  38
BRANCH  12  40
HETATM   40  O5  UNL     1      18.479  24.613  14.870  1.00  0.00    -0.373 OA
HETATM   41  C16 UNL     1      17.389  24.380  15.647  1.00  0.00     0.203 C
ENDBRANCH  12  40
TORSDOF 13
ENDMDL