MODEL 2
REMARK VINA RESULT: -9.567957560      0.946      1.499
REMARK  12 active torsions:
REMARK  status: ('A' for Active; 'I' for Inactive)
REMARK    1  A    between atoms: C3_3  and  N1_4
REMARK    2  A    between atoms: N1_4  and  C5_6
REMARK    3  A    between atoms: C5_6  and  C6_7
REMARK    4  A    between atoms: C6_7  and  C7_8
REMARK    5  A    between atoms: C7_8  and  N2_9
REMARK    6  A    between atoms: N2_9  and  C8_11
REMARK    7  A    between atoms: C9_14  and  C10_15
REMARK    8  A    between atoms: C12_17  and  O1_18
REMARK    9  A    between atoms: C14_20  and  O2_21
REMARK   10  A    between atoms: N6_30  and  C19_32
REMARK   11  A    between atoms: C19_32  and  C20_33
REMARK   12  A    between atoms: C20_33  and  C21_34
ROOT
HETATM    1  C1  UNL     1      14.323  16.283  12.168  1.00  0.00     0.013 C
HETATM    2  C2  UNL     1      13.401  17.022  12.471  1.00  0.00    -0.087 C
HETATM    3  C3  UNL     1      12.291  17.878  12.842  1.00  0.00     0.364 C
ENDROOT
BRANCH   3   4
HETATM    4  N1  UNL     1      12.659  19.271  12.743  1.00  0.00     0.095 N
HETATM    5  C4  UNL     1      11.538  20.087  13.234  1.00  0.00     0.310 C
BRANCH   4   6
HETATM    6  C5  UNL     1      13.753  19.531  13.645  1.00  0.00     0.274 C
BRANCH   6   7
HETATM    7  C6  UNL     1      14.678  20.635  13.151  1.00  0.00     0.050 C
BRANCH   7   8
HETATM    8  C7  UNL     1      14.928  21.531  14.359  1.00  0.00     0.140 C
BRANCH   8   9
HETATM    9  N2  UNL     1      16.109  22.312  14.205  1.00  0.00    -0.225 N
ATOM     10  H2  UNL     1      16.413  22.521  13.254  1.00  0.00     0.177 HD
BRANCH   9  11
HETATM   11  C8  UNL     1      16.821  22.773  15.167  1.00  0.00     0.694 A
HETATM   12  N3  UNL     1      17.594  23.861  15.067  1.00  0.00    -0.173 N
HETATM   13  C9  UNL     1      18.352  24.350  16.096  1.00  0.00     0.163 A
ATOM     14  H3  UNL     1      17.619  24.353  14.174  1.00  0.00     0.186 HD
HETATM   15  N5  UNL     1      18.278  23.663  17.244  1.00  0.00    -0.173 N
HETATM   16  C18 UNL     1      17.495  22.548  17.373  1.00  0.00     0.694 A
ATOM     17  H5  UNL     1      18.822  23.981  18.046  1.00  0.00     0.186 HD
HETATM   18  N6  UNL     1      17.501  21.981  18.502  1.00  0.00    -0.225 N
HETATM   19  N8  UNL     1      16.770  22.107  16.333  1.00  0.00    -0.022 N
ATOM     20  H6  UNL     1      18.099  22.426  19.200  1.00  0.00     0.177 HD
ATOM     21  H8  UNL     1      16.186  21.277  16.427  1.00  0.00     0.203 HD
BRANCH  13  22
HETATM   22  C10 UNL     1      19.168  25.543  15.902  1.00  0.00     0.081 A
HETATM   23  C11 UNL     1      19.707  26.212  16.965  1.00  0.00     0.073 A
HETATM   24  C12 UNL     1      20.490  27.354  16.802  1.00  0.00     0.105 A
HETATM   25  C14 UNL     1      20.701  27.787  15.512  1.00  0.00     0.123 A
HETATM   26  C16 UNL     1      20.155  27.110  14.436  1.00  0.00     0.042 A
HETATM   27  C17 UNL     1      20.403  27.604  13.057  1.00  0.00     0.071 C
HETATM   28  N4  UNL     1      19.409  26.011  14.683  1.00  0.00    -0.354 N
ATOM     29  H4  UNL     1      19.008  25.513  13.889  1.00  0.00     0.166 HD
BRANCH  24  30
HETATM   30  O1  UNL     1      21.032  28.024  17.914  1.00  0.00    -0.353 OA
HETATM   31  C13 UNL     1      21.615  27.310  18.965  1.00  0.00     0.210 C
ENDBRANCH  24  30
BRANCH  25  32
HETATM   32  O2  UNL     1      21.461  28.906  15.262  1.00  0.00    -0.351 OA
HETATM   33  C15 UNL     1      22.860  28.931  15.149  1.00  0.00     0.210 C
ENDBRANCH  25  32
ENDBRANCH  13  22
BRANCH  18  34
HETATM   34  C19 UNL     1      16.815  20.830  18.957  1.00  0.00     0.142 C
BRANCH  34  35
HETATM   35  C20 UNL     1      15.666  21.216  19.865  1.00  0.00     0.061 C
BRANCH  35  36
HETATM   36  C21 UNL     1      14.741  20.107  20.153  1.00  0.00    -0.029 A
HETATM   37  C22 UNL     1      14.757  19.272  21.246  1.00  0.00     0.096 A
HETATM   38  N7  UNL     1      13.737  18.374  21.140  1.00  0.00    -0.365 N
HETATM   39  C23 UNL     1      13.060  18.606  20.006  1.00  0.00     0.042 A
ATOM     40  H7  UNL     1      13.523  17.642  21.817  1.00  0.00     0.165 HD
HETATM   41  C24 UNL     1      11.961  18.035  19.382  1.00  0.00     0.030 A
HETATM   42  C28 UNL     1      13.684  19.692  19.381  1.00  0.00    -0.002 A
HETATM   43  C25 UNL     1      11.473  18.506  18.172  1.00  0.00     0.002 A
HETATM   44  C26 UNL     1      12.126  19.579  17.602  1.00  0.00     0.001 A
HETATM   45  C27 UNL     1      13.225  20.177  18.192  1.00  0.00     0.014 A
ENDBRANCH  35  36
ENDBRANCH  34  35
ENDBRANCH  18  34
ENDBRANCH   9  11
ENDBRANCH   8   9
ENDBRANCH   7   8
ENDBRANCH   6   7
ENDBRANCH   4   6
ENDBRANCH   3   4
TORSDOF 12
ENDMDL