MODEL 2
REMARK VINA RESULT: -7.477949877      2.418      7.709
REMARK  14 active torsions:
REMARK  status: ('A' for Active; 'I' for Inactive)
REMARK    1  A    between atoms: C2_2  and  C3_3
REMARK    2  A    between atoms: C3_3  and  O1_4
REMARK    3  A    between atoms: O1_4  and  C4_5
REMARK    4  A    between atoms: C4_5  and  C5_6
REMARK    5  A    between atoms: C4_5  and  C13_18
REMARK    6  A    between atoms: C5_6  and  O2_7
REMARK    7  A    between atoms: C5_6  and  C6_9
REMARK    8  A    between atoms: C6_9  and  C8_11
REMARK    9  A    between atoms: C8_11  and  O3_12
REMARK   10  A    between atoms: C8_11  and  C9_14
REMARK   11  A    between atoms: C21_26  and  O4_27
REMARK   12  A    between atoms: C21_26  and  C24_31
REMARK   13  A    between atoms: O4_27  and  C22_28
REMARK   14  A    between atoms: C25_34  and  N1_35
ROOT
HETATM    1  C13 UNL     1      18.712  24.917  16.325  1.00  0.00    -0.038 C
HETATM    2  C14 UNL     1      19.719  23.891  16.005  1.00  0.00    -0.060 C
HETATM    3  C15 UNL     1      20.664  23.898  14.864  1.00  0.00     0.048 C
HETATM    4  C16 UNL     1      19.713  22.833  16.854  1.00  0.00    -0.019 C
HETATM    5  C17 UNL     1      18.725  22.863  17.939  1.00  0.00     0.035 C
HETATM    6  C18 UNL     1      17.347  23.263  17.500  1.00  0.00     0.032 C
HETATM    7  C19 UNL     1      17.383  24.295  16.343  1.00  0.00     0.028 C
HETATM    8  C20 UNL     1      17.035  23.445  15.177  1.00  0.00     0.062 C
HETATM    9  C21 UNL     1      15.988  22.429  15.662  1.00  0.00     0.187 C
HETATM   10  C25 UNL     1      16.464  22.155  17.043  1.00  0.00     0.239 C
ENDROOT
BRANCH   1  11
HETATM   11  C4  UNL     1      18.934  26.273  15.756  1.00  0.00     0.180 C
BRANCH  11  12
HETATM   12  O1  UNL     1      19.459  25.971  14.473  1.00  0.00    -0.375 OA
BRANCH  12  13
HETATM   13  C3  UNL     1      19.164  26.776  13.450  1.00  0.00     0.195 C
BRANCH  13  14
HETATM   14  C2  UNL     1      20.432  26.935  12.618  1.00  0.00    -0.011 C
HETATM   15  C1  UNL     1      21.177  27.997  12.674  1.00  0.00     0.009 C
ENDBRANCH  13  14
ENDBRANCH  12  13
ENDBRANCH  11  12
BRANCH  11  16
HETATM   16  C5  UNL     1      20.005  27.048  16.545  1.00  0.00     0.158 C
BRANCH  16  17
HETATM   17  O2  UNL     1      20.312  28.272  15.965  1.00  0.00    -0.392 OA
ATOM     18  H2  UNL     1      21.197  28.302  15.623  1.00  0.00     0.210 HD
ENDBRANCH  16  17
BRANCH  16  19
HETATM   19  C6  UNL     1      21.144  26.299  17.045  1.00  0.00     0.046 C
HETATM   20  C7  UNL     1      22.434  26.704  16.223  1.00  0.00     0.015 C
BRANCH  19  21
HETATM   21  C8  UNL     1      21.657  26.541  18.446  1.00  0.00     0.152 C
BRANCH  21  22
HETATM   22  O3  UNL     1      20.772  27.615  18.898  1.00  0.00    -0.391 OA
ATOM     23  H3  UNL     1      20.273  27.175  19.577  1.00  0.00     0.210 HD
ENDBRANCH  21  22
BRANCH  21  24
HETATM   24  C9  UNL     1      21.400  25.418  19.394  1.00  0.00    -0.059 C
HETATM   25  C10 UNL     1      22.299  24.276  19.626  1.00  0.00     0.046 C
HETATM   26  C11 UNL     1      20.259  25.400  20.121  1.00  0.00    -0.026 C
HETATM   27  C12 UNL     1      19.966  24.314  21.064  1.00  0.00     0.036 C
ENDBRANCH  21  24
ENDBRANCH  19  21
ENDBRANCH  16  19
ENDBRANCH  11  16
ENDBRANCH   1  11
BRANCH  10  28
HETATM   28  N1  UNL     1      15.557  21.666  18.007  1.00  0.00    -0.070 N
HETATM   29  C26 UNL     1      16.351  21.006  19.073  1.00  0.00     0.272 C
HETATM   30  C27 UNL     1      14.686  22.559  18.678  1.00  0.00     0.272 C
HETATM   31  C28 UNL     1      14.805  20.495  17.504  1.00  0.00     0.272 C
ENDBRANCH  10  28
BRANCH   9  32
HETATM   32  O4  UNL     1      15.827  21.353  14.814  1.00  0.00    -0.297 OA
BRANCH  32  33
HETATM   33  C22 UNL     1      15.272  21.245  13.586  1.00  0.00     0.256 C
HETATM   34  C23 UNL     1      14.160  20.286  13.288  1.00  0.00     0.126 C
HETATM   35  O5  UNL     1      15.728  21.983  12.708  1.00  0.00    -0.266 OA
ENDBRANCH  32  33
ENDBRANCH   9  32
BRANCH   9  36
HETATM   36  C24 UNL     1      14.694  23.178  15.551  1.00  0.00     0.212 C
HETATM   37  O6  UNL     1      14.586  24.417  15.441  1.00  0.00    -0.646 OA
HETATM   38  O7  UNL     1      13.443  22.564  15.559  1.00  0.00    -0.646 OA
ENDBRANCH   9  36
TORSDOF 14
ENDMDL