MODEL 5
REMARK VINA RESULT: -9.634683886      3.375     10.044
REMARK  11 active torsions:
REMARK  status: ('A' for Active; 'I' for Inactive)
REMARK    1  A    between atoms: C3_3  and  N1_4
REMARK    2  A    between atoms: N1_4  and  C4_6
REMARK    3  A    between atoms: C4_6  and  C5_7
REMARK    4  A    between atoms: C13_19  and  C14_20
REMARK    5  A    between atoms: C14_20  and  C15_21
REMARK    6  A    between atoms: C15_21  and  C16_22
REMARK    7  A    between atoms: C16_22  and  C17_23
REMARK    8  A    between atoms: C17_23  and  C18_24
REMARK       I    between atoms: C18_24  and  N3_26
REMARK    9  A    between atoms: N3_26  and  C19_28
REMARK   10  A    between atoms: C19_28  and  C20_29
REMARK   11  A    between atoms: C20_29  and  N4_30
ROOT
HETATM    1  C1  UNL     1      19.040  21.883  19.704  1.00  0.00     0.015 C
HETATM    2  C2  UNL     1      18.373  22.894  18.784  1.00  0.00     0.039 C
HETATM    3  C3  UNL     1      16.929  22.871  18.985  1.00  0.00     0.227 C
HETATM    4  O1  UNL     1      16.065  23.072  17.931  1.00  0.00    -0.335 OA
HETATM    5  C9  UNL     1      16.274  24.217  17.145  1.00  0.00     0.286 C
HETATM    6  O2  UNL     1      16.696  25.105  18.181  1.00  0.00    -0.306 OA
HETATM    7  C10 UNL     1      17.775  25.294  17.278  1.00  0.00     0.134 C
HETATM    8  N2  UNL     1      18.968  25.788  17.756  1.00  0.00    -0.349 N
ATOM      9  H2  UNL     1      19.000  26.728  18.150  1.00  0.00     0.167 HD
HETATM   10  C11 UNL     1      20.140  25.017  17.710  1.00  0.00     0.093 C
HETATM   11  C12 UNL     1      19.886  23.813  16.881  1.00  0.00    -0.056 C
HETATM   12  C13 UNL     1      19.592  24.161  15.400  1.00  0.00     0.017 C
HETATM   13  C25 UNL     1      18.124  24.597  15.188  1.00  0.00     0.032 C
HETATM   14  C26 UNL     1      17.495  24.170  16.454  1.00  0.00     0.076 C
HETATM   15  C27 UNL     1      17.893  22.760  16.467  1.00  0.00     0.032 C
HETATM   16  C28 UNL     1      19.020  22.755  17.464  1.00  0.00     0.025 C
ENDROOT
BRANCH  12  17
HETATM   17  C14 UNL     1      20.481  25.271  15.011  1.00  0.00     0.009 C
BRANCH  17  18
HETATM   18  C15 UNL     1      20.346  25.586  13.530  1.00  0.00     0.001 C
BRANCH  18  19
HETATM   19  C16 UNL     1      19.890  26.992  13.292  1.00  0.00     0.009 C
BRANCH  19  20
HETATM   20  C17 UNL     1      21.073  27.891  13.038  1.00  0.00     0.103 C
BRANCH  20  21
HETATM   21  C18 UNL     1      21.565  28.607  14.213  1.00  0.00     0.217 C
HETATM   22  O3  UNL     1      20.838  28.936  15.177  1.00  0.00    -0.274 OA
HETATM   23  N3  UNL     1      22.957  28.970  14.293  1.00  0.00    -0.359 N
ATOM     24  H3  UNL     1      23.603  28.732  13.541  1.00  0.00     0.162 HD
BRANCH  23  25
HETATM   25  C19 UNL     1      23.407  29.672  15.454  1.00  0.00     0.142 C
BRANCH  25  26
HETATM   26  C20 UNL     1      24.678  29.020  15.966  1.00  0.00     0.146 C
BRANCH  26  27
HETATM   27  N4  UNL     1      24.741  27.639  15.682  1.00  0.00    -0.368 N
HETATM   28  C21 UNL     1      24.005  26.740  16.460  1.00  0.00     0.089 C
HETATM   29  C22 UNL     1      24.816  25.967  17.483  1.00  0.00     0.212 C
HETATM   30  O4  UNL     1      25.797  25.292  16.765  1.00  0.00    -0.381 OA
HETATM   31  C23 UNL     1      26.660  26.161  16.127  1.00  0.00     0.212 C
HETATM   32  C24 UNL     1      26.009  27.198  15.280  1.00  0.00     0.089 C
ENDBRANCH  26  27
ENDBRANCH  25  26
ENDBRANCH  23  25
ENDBRANCH  20  21
ENDBRANCH  19  20
ENDBRANCH  18  19
ENDBRANCH  17  18
ENDBRANCH  12  17
BRANCH   3  33
HETATM   33  N1  UNL     1      16.360  21.753  19.683  1.00  0.00    -0.376 N
ATOM     34  H1  UNL     1      16.962  21.174  20.268  1.00  0.00     0.161 HD
BRANCH  33  35
HETATM   35  C4  UNL     1      15.008  21.443  19.581  1.00  0.00     0.066 C
BRANCH  35  36
HETATM   36  C5  UNL     1      14.699  19.955  19.600  1.00  0.00    -0.020 C
HETATM   37  C6  UNL     1      14.954  19.332  20.954  1.00  0.00     0.020 C
HETATM   38  C7  UNL     1      15.670  19.327  18.622  1.00  0.00     0.020 C
HETATM   39  C8  UNL     1      13.307  19.645  19.102  1.00  0.00     0.020 C
ENDBRANCH  35  36
ENDBRANCH  33  35
ENDBRANCH   3  33
TORSDOF 11
ENDMDL