MODEL 1
REMARK VINA RESULT: -8.983358875      0.000      0.000
REMARK  13 active torsions:
REMARK  status: ('A' for Active; 'I' for Inactive)
REMARK    1  A    between atoms: C2_2  and  N1_3
REMARK    2  A    between atoms: N1_3  and  C3_4
REMARK    3  A    between atoms: N1_3  and  C23_36
REMARK    4  A    between atoms: C3_4  and  C4_5
REMARK    5  A    between atoms: C4_5  and  N2_6
REMARK       I    between atoms: N2_6  and  C5_8
REMARK    6  A    between atoms: C5_8  and  C6_10
REMARK    7  A    between atoms: C8_14  and  N4_15
REMARK    8  A    between atoms: N4_15  and  C9_17
REMARK    9  A    between atoms: C19_29  and  N6_30
REMARK   10  A    between atoms: N6_30  and  C20_32
REMARK   11  A    between atoms: C20_32  and  C21_33
REMARK   12  A    between atoms: C21_33  and  O2_34
REMARK   13  A    between atoms: C23_36  and  C24_37
ROOT
HETATM    1  C6  UNL     1      14.686  22.409  15.744  1.00  0.00     0.092 A
HETATM    2  C7  UNL     1      14.909  23.284  16.827  1.00  0.00     0.127 A
HETATM    3  N3  UNL     1      16.019  23.992  16.932  1.00  0.00    -0.201 N
ATOM      4  H3  UNL     1      16.128  24.610  17.736  1.00  0.00     0.183 HD
HETATM    5  C8  UNL     1      17.012  23.935  16.025  1.00  0.00     0.680 A
HETATM    6  N5  UNL     1      16.820  23.100  14.979  1.00  0.00    -0.176 N
ATOM      7  H5  UNL     1      17.555  23.035  14.275  1.00  0.00     0.186 HD
HETATM    8  C19 UNL     1      15.682  22.330  14.808  1.00  0.00     0.138 A
ENDROOT
BRANCH   1   9
HETATM    9  C5  UNL     1      13.396  21.767  15.704  1.00  0.00     0.256 C
HETATM   10  N2  UNL     1      13.001  20.603  16.357  1.00  0.00    -0.355 N
ATOM     11  H2  UNL     1      13.665  20.111  16.954  1.00  0.00     0.162 HD
HETATM   12  O1  UNL     1      12.515  22.337  14.963  1.00  0.00    -0.267 OA
BRANCH  10  13
HETATM   13  C4  UNL     1      11.642  20.077  16.198  1.00  0.00     0.142 C
BRANCH  13  14
HETATM   14  C3  UNL     1      11.066  19.587  17.500  1.00  0.00     0.137 C
BRANCH  14  15
HETATM   15  N1  UNL     1      11.508  18.287  17.884  1.00  0.00    -0.407 N
BRANCH  15  16
HETATM   16  C2  UNL     1      10.997  17.230  17.053  1.00  0.00     0.113 C
HETATM   17  C1  UNL     1      10.938  15.967  17.871  1.00  0.00     0.026 C
ENDBRANCH  15  16
BRANCH  15  18
HETATM   18  C23 UNL     1      11.493  18.003  19.266  1.00  0.00     0.164 C
BRANCH  18  19
HETATM   19  C24 UNL     1      12.712  18.428  20.010  1.00  0.00     0.017 A
HETATM   20  C25 UNL     1      12.936  18.416  21.366  1.00  0.00     0.104 A
HETATM   21  N7  UNL     1      14.078  18.851  21.788  1.00  0.00    -0.368 N
HETATM   22  C26 UNL     1      14.985  19.287  20.939  1.00  0.00     0.138 A
ATOM     23  H7  UNL     1      14.278  18.856  22.788  1.00  0.00     0.165 HD
HETATM   24  S1  UNL     1      14.202  19.080  19.440  1.00  0.00    -0.086 SA
ENDBRANCH  18  19
ENDBRANCH  15  18
ENDBRANCH  14  15
ENDBRANCH  13  14
ENDBRANCH  10  13
ENDBRANCH   1   9
BRANCH   8  25
HETATM   25  N6  UNL     1      15.653  21.563  13.833  1.00  0.00    -0.353 N
ATOM     26  H6  UNL     1      16.350  20.854  14.058  1.00  0.00     0.166 HD
BRANCH  25  27
HETATM   27  C20 UNL     1      15.179  21.179  12.632  1.00  0.00     0.088 C
BRANCH  27  28
HETATM   28  C21 UNL     1      13.945  20.252  12.636  1.00  0.00     0.211 C
BRANCH  28  29
HETATM   29  O2  UNL     1      14.039  19.252  13.572  1.00  0.00    -0.391 OA
HETATM   30  C22 UNL     1      13.311  18.159  13.037  1.00  0.00     0.201 C
ENDBRANCH  28  29
ENDBRANCH  27  28
ENDBRANCH  25  27
ENDBRANCH   8  25
BRANCH   5  31
HETATM   31  N4  UNL     1      18.039  24.610  16.138  1.00  0.00    -0.217 N
ATOM     32  H4  UNL     1      18.190  24.735  17.140  1.00  0.00     0.178 HD
BRANCH  31  33
HETATM   33  C9  UNL     1      19.075  25.270  15.506  1.00  0.00     0.048 C
HETATM   34  C10 UNL     1      19.737  26.251  16.512  1.00  0.00     0.036 C
HETATM   35  C11 UNL     1      20.734  27.118  15.838  1.00  0.00    -0.012 C
HETATM   36  C12 UNL     1      20.133  27.973  14.759  1.00  0.00     0.009 C
HETATM   37  C16 UNL     1      21.829  26.295  15.195  1.00  0.00     0.009 C
HETATM   38  C13 UNL     1      19.446  27.060  13.778  1.00  0.00    -0.012 C
HETATM   39  C14 UNL     1      20.511  26.194  13.143  1.00  0.00     0.009 C
HETATM   40  C18 UNL     1      18.441  26.177  14.442  1.00  0.00     0.036 C
HETATM   41  C15 UNL     1      21.177  25.383  14.210  1.00  0.00    -0.012 C
HETATM   42  C17 UNL     1      20.195  24.477  14.926  1.00  0.00     0.036 C
ENDBRANCH  31  33
ENDBRANCH   5  31
TORSDOF 13
ENDMDL