MODEL 3
REMARK VINA RESULT: -9.390434570      2.430      5.515
REMARK  13 active torsions:
REMARK  status: ('A' for Active; 'I' for Inactive)
REMARK    1  A    between atoms: C2_2  and  N1_3
REMARK    2  A    between atoms: N1_3  and  C3_4
REMARK    3  A    between atoms: N1_3  and  C5_6
REMARK    4  A    between atoms: C5_6  and  C6_7
REMARK    5  A    between atoms: C6_7  and  N2_8
REMARK    6  A    between atoms: N2_8  and  C7_10
REMARK    7  A    between atoms: N4_14  and  C9_16
REMARK    8  A    between atoms: C9_16  and  C10_17
REMARK    9  A    between atoms: C10_17  and  C11_18
REMARK   10  A    between atoms: C14_21  and  O1_22
REMARK   11  A    between atoms: C16_24  and  O2_25
REMARK   12  A    between atoms: C19_30  and  N6_31
REMARK   13  A    between atoms: N6_31  and  C20_33
ROOT
HETATM    1  C20 UNL     1      13.321  21.407  14.390  1.00  0.00     0.070 A
HETATM    2  C21 UNL     1      14.428  20.953  13.696  1.00  0.00     0.032 A
HETATM    3  C22 UNL     1      14.376  19.703  13.099  1.00  0.00     0.009 A
HETATM    4  C23 UNL     1      13.216  18.957  13.221  1.00  0.00    -0.060 A
HETATM    5  C24 UNL     1      13.155  17.622  12.590  1.00  0.00     0.048 C
HETATM    6  C25 UNL     1      12.116  19.430  13.920  1.00  0.00     0.031 A
HETATM    7  C26 UNL     1      12.158  20.672  14.518  1.00  0.00     0.072 A
HETATM    8  C27 UNL     1      11.034  21.183  15.248  1.00  0.00     0.102 C
HETATM    9  N7  UNL     1      10.125  21.609  15.832  1.00  0.00    -0.191 NA
ENDROOT
BRANCH   1  10
HETATM   10  N6  UNL     1      13.365  22.689  15.018  1.00  0.00    -0.189 N
ATOM     11  H6  UNL     1      12.776  23.448  14.675  1.00  0.00     0.184 HD
BRANCH  10  12
HETATM   12  C19 UNL     1      14.167  22.887  16.038  1.00  0.00     0.711 A
HETATM   13  N5  UNL     1      15.141  23.778  15.934  1.00  0.00    -0.021 N
HETATM   14  C8  UNL     1      16.031  24.065  16.939  1.00  0.00     0.707 A
ATOM     15  H5  UNL     1      15.235  24.284  15.052  1.00  0.00     0.203 HD
HETATM   16  N3  UNL     1      15.891  23.396  18.079  1.00  0.00    -0.022 N
HETATM   17  N4  UNL     1      16.946  24.935  16.756  1.00  0.00    -0.225 N
HETATM   18  C7  UNL     1      14.899  22.463  18.235  1.00  0.00     0.707 A
ATOM     19  H3  UNL     1      16.533  23.579  18.850  1.00  0.00     0.203 HD
HETATM   20  N8  UNL     1      14.048  22.227  17.198  1.00  0.00    -0.021 N
ATOM     21  H8  UNL     1      13.307  21.536  17.307  1.00  0.00     0.203 HD
ATOM     22  H4  UNL     1      17.000  25.415  15.857  1.00  0.00     0.177 HD
BRANCH  18  23
HETATM   23  N2  UNL     1      14.851  21.881  19.357  1.00  0.00    -0.220 N
ATOM     24  H2  UNL     1      14.206  22.296  20.029  1.00  0.00     0.178 HD
BRANCH  23  25
HETATM   25  C6  UNL     1      15.551  20.740  19.830  1.00  0.00     0.183 C
BRANCH  25  26
HETATM   26  C5  UNL     1      14.908  19.438  19.371  1.00  0.00     0.088 C
BRANCH  26  27
HETATM   27  N1  UNL     1      13.768  19.176  20.145  1.00  0.00    -0.353 N
BRANCH  27  28
HETATM   28  C2  UNL     1      12.630  18.664  19.511  1.00  0.00     0.064 C
HETATM   29  C1  UNL     1      12.167  19.370  18.269  1.00  0.00     0.055 C
ENDBRANCH  27  28
BRANCH  27  30
HETATM   30  C3  UNL     1      13.936  18.972  21.527  1.00  0.00     0.064 C
HETATM   31  C4  UNL     1      13.502  17.664  22.087  1.00  0.00     0.055 C
ENDBRANCH  27  30
ENDBRANCH  26  27
ENDBRANCH  25  26
ENDBRANCH  23  25
ENDBRANCH  18  23
BRANCH  17  32
HETATM   32  C9  UNL     1      17.896  25.255  17.773  1.00  0.00     0.142 C
BRANCH  32  33
HETATM   33  C10 UNL     1      19.207  24.547  17.449  1.00  0.00     0.058 C
BRANCH  33  34
HETATM   34  C11 UNL     1      19.820  25.309  16.336  1.00  0.00    -0.054 A
HETATM   35  C12 UNL     1      20.081  24.674  15.142  1.00  0.00     0.010 A
HETATM   36  C13 UNL     1      20.658  25.356  14.087  1.00  0.00     0.040 A
HETATM   37  C14 UNL     1      20.955  26.670  14.275  1.00  0.00     0.101 A
HETATM   38  C16 UNL     1      20.698  27.336  15.482  1.00  0.00     0.102 A
HETATM   39  C18 UNL     1      20.130  26.630  16.496  1.00  0.00     0.046 A
BRANCH  37  40
HETATM   40  O1  UNL     1      21.534  27.389  13.244  1.00  0.00    -0.353 OA
HETATM   41  C15 UNL     1      20.755  27.748  12.135  1.00  0.00     0.210 C
ENDBRANCH  37  40
BRANCH  38  42
HETATM   42  O2  UNL     1      21.038  28.678  15.574  1.00  0.00    -0.353 OA
HETATM   43  C17 UNL     1      22.388  29.019  15.820  1.00  0.00     0.210 C
ENDBRANCH  38  42
ENDBRANCH  33  34
ENDBRANCH  32  33
ENDBRANCH  17  32
ENDBRANCH  10  12
ENDBRANCH   1  10
TORSDOF 13
ENDMDL