MODEL 1
REMARK VINA RESULT: -8.266616060      0.000      0.000
REMARK  15 active torsions:
REMARK  status: ('A' for Active; 'I' for Inactive)
REMARK    1  A    between atoms: C2_2  and  C3_3
REMARK    2  A    between atoms: C3_3  and  N1_6
REMARK    3  A    between atoms: N1_6  and  C6_8
REMARK    4  A    between atoms: C10_14  and  C11_15
REMARK    5  A    between atoms: C11_15  and  O1_16
REMARK    6  A    between atoms: C11_15  and  N3_18
REMARK    7  A    between atoms: N3_18  and  C12_20
REMARK    8  A    between atoms: C14_22  and  O2_23
REMARK    9  A    between atoms: C16_25  and  O3_26
REMARK   10  A    between atoms: N4_31  and  C21_32
REMARK   11  A    between atoms: C21_32  and  C22_33
REMARK   12  A    between atoms: C22_33  and  O4_34
REMARK   13  A    between atoms: O4_34  and  C23_35
REMARK   14  A    between atoms: C23_35  and  C24_36
REMARK   15  A    between atoms: C24_36  and  O5_37
ROOT
HETATM    1  N3  UNL     1      18.191  24.805  17.871  1.00  0.00    -0.346 N
ATOM      2  H3  UNL     1      18.418  24.056  18.526  1.00  0.00     0.164 HD
ENDROOT
BRANCH   1   3
HETATM    3  C11 UNL     1      16.824  25.058  17.608  1.00  0.00     0.253 C
BRANCH   3   4
HETATM    4  C10 UNL     1      16.094  23.824  17.208  1.00  0.00    -0.009 A
HETATM    5  C9  UNL     1      15.411  22.992  18.045  1.00  0.00     0.014 A
HETATM    6  C8  UNL     1      14.741  21.868  17.658  1.00  0.00     0.031 A
HETATM    7  C7  UNL     1      14.719  21.492  16.296  1.00  0.00     0.051 A
HETATM    8  N2  UNL     1      14.121  20.450  15.783  1.00  0.00    -0.336 N
HETATM    9  C26 UNL     1      15.401  22.321  15.446  1.00  0.00     0.035 A
HETATM   10  C6  UNL     1      14.204  20.247  14.470  1.00  0.00     0.146 A
ATOM     11  H2  UNL     1      13.601  19.804  16.377  1.00  0.00     0.168 HD
HETATM   12  S1  UNL     1      15.150  21.558  13.932  1.00  0.00    -0.052 SA
HETATM   13  C25 UNL     1      16.084  23.474  15.873  1.00  0.00     0.033 A
BRANCH  10  14
HETATM   14  N1  UNL     1      13.688  19.280  13.762  1.00  0.00    -0.362 N
ATOM     15  H1  UNL     1      14.290  18.509  13.472  1.00  0.00     0.162 HD
BRANCH  14  16
HETATM   16  C3  UNL     1      12.315  19.259  13.376  1.00  0.00     0.024 C
HETATM   17  C4  UNL     1      11.523  20.451  13.847  1.00  0.00     0.038 C
HETATM   18  C5  UNL     1      11.679  18.005  13.948  1.00  0.00     0.038 C
BRANCH  16  19
HETATM   19  C2  UNL     1      12.276  19.245  11.861  1.00  0.00     0.026 C
HETATM   20  C1  UNL     1      10.864  19.268  11.323  1.00  0.00     0.007 C
ENDBRANCH  16  19
ENDBRANCH  14  16
ENDBRANCH  10  14
ENDBRANCH   3   4
BRANCH   3  21
HETATM   21  O1  UNL     1      16.169  25.541  18.771  1.00  0.00    -0.372 OA
ATOM     22  H1  UNL     1      16.354  24.910  19.456  1.00  0.00     0.212 HD
ENDBRANCH   3  21
ENDBRANCH   1   3
BRANCH   1  23
HETATM   23  C12 UNL     1      19.147  25.439  17.355  1.00  0.00     0.108 C
HETATM   24  C13 UNL     1      19.219  25.635  15.991  1.00  0.00     0.088 C
HETATM   25  C14 UNL     1      19.744  26.743  15.311  1.00  0.00     0.105 C
HETATM   26  C16 UNL     1      20.621  27.678  15.863  1.00  0.00     0.103 C
HETATM   27  C18 UNL     1      21.287  27.611  17.074  1.00  0.00     0.064 C
HETATM   28  C19 UNL     1      20.902  26.918  18.223  1.00  0.00     0.012 C
HETATM   29  C20 UNL     1      21.506  27.399  19.491  1.00  0.00     0.068 C
HETATM   30  N4  UNL     1      20.058  25.889  18.270  1.00  0.00    -0.335 N
BRANCH  25  31
HETATM   31  O2  UNL     1      19.347  26.899  13.998  1.00  0.00    -0.353 OA
HETATM   32  C15 UNL     1      20.032  26.189  12.990  1.00  0.00     0.210 C
ENDBRANCH  25  31
BRANCH  26  33
HETATM   33  O3  UNL     1      20.833  28.799  15.084  1.00  0.00    -0.353 OA
HETATM   34  C17 UNL     1      22.098  29.081  14.523  1.00  0.00     0.210 C
ENDBRANCH  26  33
BRANCH  30  35
HETATM   35  C21 UNL     1      20.095  25.105  19.467  1.00  0.00     0.156 C
BRANCH  35  36
HETATM   36  C22 UNL     1      21.145  23.987  19.319  1.00  0.00     0.188 C
BRANCH  36  37
HETATM   37  O4  UNL     1      20.431  22.825  19.118  1.00  0.00    -0.387 OA
BRANCH  37  38
HETATM   38  C23 UNL     1      19.469  22.567  20.077  1.00  0.00     0.193 C
BRANCH  38  39
HETATM   39  C24 UNL     1      18.407  21.650  19.528  1.00  0.00     0.190 C
BRANCH  39  40
HETATM   40  O5  UNL     1      18.647  21.547  18.149  1.00  0.00    -0.399 OA
ATOM     41  H5  UNL     1      18.296  20.707  17.878  1.00  0.00     0.209 HD
ENDBRANCH  39  40
ENDBRANCH  38  39
ENDBRANCH  37  38
ENDBRANCH  36  37
ENDBRANCH  35  36
ENDBRANCH  30  35
ENDBRANCH   1  23
TORSDOF 15
ENDMDL