MODEL 2
REMARK VINA RESULT: -8.380615779      1.834      2.660
REMARK  13 active torsions:
REMARK  status: ('A' for Active; 'I' for Inactive)
REMARK    1  A    between atoms: S1_2  and  C2_3
REMARK    2  A    between atoms: C2_3  and  C3_4
REMARK    3  A    between atoms: C3_4  and  C4_5
REMARK    4  A    between atoms: C4_5  and  N1_6
REMARK    5  A    between atoms: C4_5  and  C18_25
REMARK       I    between atoms: N1_6  and  C5_8
REMARK    6  A    between atoms: C5_8  and  C6_10
REMARK       I    between atoms: N2_17  and  C13_18
REMARK    7  A    between atoms: C13_18  and  O3_20
REMARK    8  A    between atoms: O3_20  and  C14_21
REMARK       I    between atoms: C18_25  and  N3_27
REMARK    9  A    between atoms: N3_27  and  C19_29
REMARK   10  A    between atoms: C19_29  and  C20_30
REMARK   11  A    between atoms: C20_30  and  C21_31
REMARK   12  A    between atoms: C21_31  and  C22_32
REMARK   13  A    between atoms: C22_32  and  C23_33
ROOT
HETATM    1  C4  UNL     1      14.738  21.243  16.588  1.00  0.00     0.177 C
ENDROOT
BRANCH   1   2
HETATM    2  C3  UNL     1      14.471  20.079  17.454  1.00  0.00     0.045 C
BRANCH   2   3
HETATM    3  C2  UNL     1      13.255  20.071  18.296  1.00  0.00     0.076 C
BRANCH   3   4
HETATM    4  S1  UNL     1      13.279  18.982  19.722  1.00  0.00    -0.173 SA
HETATM    5  C1  UNL     1      14.757  19.363  20.705  1.00  0.00     0.089 C
ENDBRANCH   3   4
ENDBRANCH   2   3
ENDBRANCH   1   2
BRANCH   1   6
HETATM    6  N1  UNL     1      15.883  22.064  16.951  1.00  0.00    -0.346 N
HETATM    7  C5  UNL     1      15.792  23.050  17.965  1.00  0.00     0.247 C
HETATM    8  O1  UNL     1      14.698  23.202  18.539  1.00  0.00    -0.271 OA
ATOM      9  H1  UNL     1      16.770  21.927  16.466  1.00  0.00     0.163 HD
BRANCH   7  10
HETATM   10  C6  UNL     1      16.953  23.852  18.308  1.00  0.00     0.122 C
HETATM   11  C7  UNL     1      16.579  25.319  18.550  1.00  0.00     0.050 C
HETATM   12  C8  UNL     1      17.716  23.319  19.501  1.00  0.00     0.048 C
HETATM   13  C9  UNL     1      18.105  21.910  19.168  1.00  0.00    -0.021 C
HETATM   14  C12 UNL     1      19.057  23.996  19.262  1.00  0.00     0.041 C
HETATM   15  C10 UNL     1      19.007  21.954  18.186  1.00  0.00    -0.005 C
HETATM   16  C11 UNL     1      19.220  23.365  17.864  1.00  0.00     0.114 C
HETATM   17  N2  UNL     1      17.972  23.868  17.275  1.00  0.00    -0.301 N
HETATM   18  C13 UNL     1      17.876  24.277  15.936  1.00  0.00     0.365 C
HETATM   19  O2  UNL     1      16.794  24.717  15.494  1.00  0.00    -0.238 OA
BRANCH  18  20
HETATM   20  O3  UNL     1      18.973  24.194  15.103  1.00  0.00    -0.294 OA
BRANCH  20  21
HETATM   21  C14 UNL     1      19.773  25.286  14.720  1.00  0.00     0.061 C
HETATM   22  C15 UNL     1      21.127  24.709  14.311  1.00  0.00     0.046 C
HETATM   23  C16 UNL     1      19.222  25.950  13.458  1.00  0.00     0.046 C
HETATM   24  C17 UNL     1      19.972  26.317  15.778  1.00  0.00     0.046 C
ENDBRANCH  20  21
ENDBRANCH  18  20
ENDBRANCH   7  10
ENDBRANCH   1   6
BRANCH   1  25
HETATM   25  C18 UNL     1      14.799  20.907  15.117  1.00  0.00     0.240 C
HETATM   26  O4  UNL     1      15.635  21.486  14.395  1.00  0.00    -0.271 OA
HETATM   27  N3  UNL     1      13.919  19.956  14.593  1.00  0.00    -0.359 N
ATOM     28  H3  UNL     1      13.298  19.531  15.282  1.00  0.00     0.162 HD
BRANCH  27  29
HETATM   29  C19 UNL     1      13.741  19.480  13.271  1.00  0.00     0.122 C
BRANCH  29  30
HETATM   30  C20 UNL     1      13.192  18.141  12.999  1.00  0.00     0.020 C
BRANCH  30  31
HETATM   31  C21 UNL     1      11.732  17.894  13.116  1.00  0.00     0.008 C
BRANCH  31  32
HETATM   32  C22 UNL     1      11.449  16.591  13.850  1.00  0.00     0.060 C
BRANCH  32  33
HETATM   33  C23 UNL     1      11.117  16.743  15.262  1.00  0.00     0.044 A
HETATM   34  C24 UNL     1      10.302  15.827  15.932  1.00  0.00     0.135 A
HETATM   35  N4  UNL     1      10.159  16.230  17.204  1.00  0.00    -0.296 N
HETATM   36  N5  UNL     1      10.847  17.347  17.331  1.00  0.00    -0.243 N
ATOM     37  H4  UNL     1       9.620  15.761  17.933  1.00  0.00     0.187 HD
HETATM   38  N6  UNL     1      11.420  17.665  16.194  1.00  0.00    -0.289 N
ATOM     39  H5  UNL     1      10.923  17.887  18.192  1.00  0.00     0.208 HD
ATOM     40  H6  UNL     1      12.006  18.485  16.040  1.00  0.00     0.188 HD
ENDBRANCH  32  33
ENDBRANCH  31  32
ENDBRANCH  30  31
ENDBRANCH  29  30
ENDBRANCH  27  29
ENDBRANCH   1  25
TORSDOF 13
ENDMDL