MODEL 2
REMARK VINA RESULT: -8.651059742      1.804      3.254
REMARK  14 active torsions:
REMARK  status: ('A' for Active; 'I' for Inactive)
REMARK    1  A    between atoms: C2_4  and  C3_5
REMARK    2  A    between atoms: C2_4  and  O2_17
REMARK    3  A    between atoms: C3_5  and  C4_6
REMARK    4  A    between atoms: C4_6  and  C5_7
REMARK    5  A    between atoms: C5_7  and  C6_8
REMARK    6  A    between atoms: C6_8  and  C7_9
REMARK    7  A    between atoms: C7_9  and  C8_10
REMARK       I    between atoms: C8_10  and  N2_12
REMARK    8  A    between atoms: N2_12  and  C9_14
REMARK    9  A    between atoms: O2_17  and  C12_18
REMARK   10  A    between atoms: C12_18  and  C13_19
REMARK   11  A    between atoms: C13_19  and  O3_20
REMARK   12  A    between atoms: C13_19  and  N3_22
REMARK   13  A    between atoms: N3_22  and  C14_24
REMARK   14  A    between atoms: C20_33  and  C21_34
ROOT
HETATM    1  C12 UNL     1      16.883  22.713  16.773  1.00  0.00     0.129 C
HETATM    2  C22 UNL     1      15.918  22.516  15.943  1.00  0.00    -0.049 C
HETATM    3  C23 UNL     1      14.557  23.093  16.354  1.00  0.00     0.046 C
HETATM    4  C24 UNL     1      15.912  21.814  14.644  1.00  0.00     0.046 C
ENDROOT
BRANCH   1   5
HETATM    5  O2  UNL     1      16.615  23.435  17.989  1.00  0.00    -0.294 OA
BRANCH   5   6
HETATM    6  C2  UNL     1      17.254  23.088  19.155  1.00  0.00     0.119 C
HETATM    7  N1  UNL     1      18.023  23.910  19.751  1.00  0.00    -0.378 N
HETATM    8  C1  UNL     1      18.744  23.657  20.976  1.00  0.00     0.148 C
ATOM      9  H1  UNL     1      18.139  24.829  19.325  1.00  0.00     0.160 HD
BRANCH   6  10
HETATM   10  C3  UNL     1      17.036  21.721  19.719  1.00  0.00     0.084 C
BRANCH  10  11
HETATM   11  C4  UNL     1      15.588  21.398  19.863  1.00  0.00     0.008 C
BRANCH  11  12
HETATM   12  C5  UNL     1      15.086  20.307  18.961  1.00  0.00     0.001 C
BRANCH  12  13
HETATM   13  C6  UNL     1      15.197  18.928  19.501  1.00  0.00     0.009 C
BRANCH  13  14
HETATM   14  C7  UNL     1      14.355  18.629  20.699  1.00  0.00     0.103 C
BRANCH  14  15
HETATM   15  C8  UNL     1      12.941  18.468  20.216  1.00  0.00     0.217 C
HETATM   16  O1  UNL     1      11.963  18.747  20.986  1.00  0.00    -0.274 OA
HETATM   17  N2  UNL     1      12.715  18.007  18.908  1.00  0.00    -0.357 N
ATOM     18  H2  UNL     1      13.499  17.785  18.294  1.00  0.00     0.162 HD
BRANCH  17  19
HETATM   19  C9  UNL     1      11.349  17.852  18.446  1.00  0.00     0.076 C
HETATM   20  C10 UNL     1      11.088  18.847  17.327  1.00  0.00     0.032 C
HETATM   21  C11 UNL     1      11.128  16.466  17.919  1.00  0.00     0.032 C
ENDBRANCH  17  19
ENDBRANCH  14  15
ENDBRANCH  13  14
ENDBRANCH  12  13
ENDBRANCH  11  12
ENDBRANCH  10  11
ENDBRANCH   6  10
ENDBRANCH   5   6
ENDBRANCH   1   5
BRANCH   1  22
HETATM   22  C13 UNL     1      18.254  22.292  16.632  1.00  0.00     0.171 C
BRANCH  22  23
HETATM   23  O3  UNL     1      18.499  21.011  16.755  1.00  0.00    -0.344 OA
ATOM     24  H3  UNL     1      17.830  20.482  17.175  1.00  0.00     0.219 HD
ENDBRANCH  22  23
BRANCH  22  25
HETATM   25  N3  UNL     1      19.409  23.034  16.384  1.00  0.00    -0.353 N
ATOM     26  H3  UNL     1      20.328  22.619  16.537  1.00  0.00     0.162 HD
BRANCH  25  27
HETATM   27  C14 UNL     1      19.298  24.401  15.906  1.00  0.00     0.209 C
HETATM   28  C15 UNL     1      19.915  25.370  16.814  1.00  0.00     0.247 C
HETATM   29  O4  UNL     1      19.918  25.593  18.068  1.00  0.00    -0.271 OA
HETATM   30  N4  UNL     1      20.574  26.052  15.746  1.00  0.00    -0.318 N
HETATM   31  C16 UNL     1      20.415  24.807  14.962  1.00  0.00     0.183 C
HETATM   32  C20 UNL     1      21.242  27.023  14.926  1.00  0.00     0.207 C
HETATM   33  S1  UNL     1      19.824  25.531  13.407  1.00  0.00    -0.129 SA
HETATM   34  C17 UNL     1      20.322  27.272  13.742  1.00  0.00     0.033 C
HETATM   35  C18 UNL     1      21.047  27.843  12.554  1.00  0.00     0.029 C
HETATM   36  C19 UNL     1      19.083  28.027  14.101  1.00  0.00     0.029 C
BRANCH  32  37
HETATM   37  C21 UNL     1      21.531  28.243  15.680  1.00  0.00     0.198 C
HETATM   38  O5  UNL     1      21.369  28.306  16.923  1.00  0.00    -0.646 OA
HETATM   39  O6  UNL     1      21.996  29.373  15.037  1.00  0.00    -0.646 OA
ENDBRANCH  32  37
ENDBRANCH  25  27
ENDBRANCH  22  25
ENDBRANCH   1  22
TORSDOF 14
ENDMDL