MODEL 2
REMARK VINA RESULT: -7.958053453      2.464      3.838
REMARK  14 active torsions:
REMARK  status: ('A' for Active; 'I' for Inactive)
REMARK    1  A    between atoms: C2_2  and  C3_3
REMARK    2  A    between atoms: C3_3  and  N1_4
REMARK    3  A    between atoms: N1_4  and  C4_5
REMARK    4  A    between atoms: N1_4  and  C8_10
REMARK    5  A    between atoms: C4_5  and  C5_6
REMARK    6  A    between atoms: C5_6  and  N2_7
REMARK    7  A    between atoms: C11_13  and  N3_14
REMARK    8  A    between atoms: N3_14  and  C12_16
REMARK    9  A    between atoms: C15_21  and  N5_22
REMARK   10  A    between atoms: N5_22  and  C16_24
REMARK   11  A    between atoms: C20_30  and  N7_31
REMARK   12  A    between atoms: N7_31  and  C21_33
REMARK   13  A    between atoms: C21_33  and  C22_34
REMARK   14  A    between atoms: C22_34  and  N8_35
ROOT
HETATM    1  C12 UNL     1      19.335  10.946  18.111  1.00  0.00     0.684 A
HETATM    2  N4  UNL     1      19.722  10.055  17.163  1.00  0.00    -0.202 N
ATOM      3  H4  UNL     1      19.025   9.398  16.811  1.00  0.00     0.183 HD
HETATM    4  C13 UNL     1      20.952   9.988  16.666  1.00  0.00     0.110 A
HETATM    5  C14 UNL     1      21.887  10.866  17.137  1.00  0.00     0.067 A
HETATM    6  C15 UNL     1      21.540  11.802  18.113  1.00  0.00     0.123 A
HETATM    7  N10 UNL     1      20.273  11.805  18.562  1.00  0.00    -0.176 N
ATOM      8  H10 UNL     1      20.008  12.487  19.274  1.00  0.00     0.186 HD
ENDROOT
BRANCH   1   9
HETATM    9  N3  UNL     1      18.111  10.934  18.565  1.00  0.00    -0.192 N
ATOM     10  H3  UNL     1      17.500  11.741  18.445  1.00  0.00     0.184 HD
BRANCH   9  11
HETATM   11  C11 UNL     1      17.656   9.772  19.226  1.00  0.00     0.049 A
HETATM   12  C10 UNL     1      18.380   9.376  20.350  1.00  0.00     0.032 A
HETATM   13  C9  UNL     1      17.982   8.250  20.990  1.00  0.00     0.032 A
HETATM   14  C8  UNL     1      16.889   7.460  20.591  1.00  0.00     0.036 A
HETATM   15  C26 UNL     1      16.194   7.869  19.487  1.00  0.00    -0.033 A
HETATM   16  C25 UNL     1      16.592   9.025  18.822  1.00  0.00     0.039 A
HETATM   17  C27 UNL     1      15.033   7.116  18.929  1.00  0.00     0.050 C
BRANCH  14  18
HETATM   18  N1  UNL     1      16.611   6.326  21.364  1.00  0.00    -0.379 N
BRANCH  18  19
HETATM   19  C3  UNL     1      15.919   6.338  22.601  1.00  0.00     0.122 C
BRANCH  19  20
HETATM   20  C2  UNL     1      15.102   5.198  23.034  1.00  0.00     0.015 C
HETATM   21  C1  UNL     1      15.027   5.005  24.492  1.00  0.00     0.006 C
ENDBRANCH  19  20
ENDBRANCH  18  19
BRANCH  18  22
HETATM   22  C4  UNL     1      17.096   5.039  20.903  1.00  0.00     0.153 C
BRANCH  22  23
HETATM   23  C5  UNL     1      18.511   4.713  21.155  1.00  0.00     0.291 C
BRANCH  23  24
HETATM   24  N2  UNL     1      18.522   3.312  21.647  1.00  0.00     0.081 N
HETATM   25  C6  UNL     1      18.472   3.265  23.078  1.00  0.00     0.309 C
HETATM   26  C7  UNL     1      19.675   2.604  21.131  1.00  0.00     0.309 C
ENDBRANCH  23  24
ENDBRANCH  22  23
ENDBRANCH  18  22
ENDBRANCH  14  18
ENDBRANCH   9  11
ENDBRANCH   1   9
BRANCH   6  27
HETATM   27  N5  UNL     1      22.574  12.636  18.552  1.00  0.00    -0.328 N
ATOM     28  H5  UNL     1      22.689  12.798  19.553  1.00  0.00     0.169 HD
BRANCH  27  29
HETATM   29  C16 UNL     1      23.381  13.205  17.732  1.00  0.00     0.124 A
HETATM   30  C17 UNL     1      24.732  12.988  17.672  1.00  0.00     0.074 A
HETATM   31  C18 UNL     1      25.455  13.695  16.725  1.00  0.00     0.026 A
HETATM   32  C19 UNL     1      26.915  13.486  16.624  1.00  0.00     0.069 C
HETATM   33  N6  UNL     1      24.854  14.564  15.892  1.00  0.00    -0.196 N
HETATM   34  C20 UNL     1      23.547  14.767  15.958  1.00  0.00     0.679 A
ATOM     35  H6  UNL     1      25.410  15.072  15.203  1.00  0.00     0.184 HD
HETATM   36  N9  UNL     1      22.822  14.101  16.862  1.00  0.00    -0.177 N
ATOM     37  H9  UNL     1      21.816  14.266  16.903  1.00  0.00     0.186 HD
BRANCH  34  38
HETATM   38  N7  UNL     1      22.891  15.610  15.187  1.00  0.00    -0.224 N
ATOM     39  H7  UNL     1      23.336  16.451  14.819  1.00  0.00     0.177 HD
BRANCH  38  40
HETATM   40  C21 UNL     1      21.521  15.294  14.888  1.00  0.00     0.168 C
BRANCH  40  41
HETATM   41  C22 UNL     1      20.666  16.469  15.338  1.00  0.00     0.291 C
BRANCH  41  42
HETATM   42  N8  UNL     1      20.354  16.405  16.740  1.00  0.00     0.081 N
HETATM   43  C23 UNL     1      19.280  15.515  17.074  1.00  0.00     0.309 C
HETATM   44  C24 UNL     1      19.936  17.760  17.139  1.00  0.00     0.309 C
ENDBRANCH  41  42
ENDBRANCH  40  41
ENDBRANCH  38  40
ENDBRANCH  34  38
ENDBRANCH  27  29
ENDBRANCH   6  27
TORSDOF 14
ENDMDL