MODEL 2
REMARK VINA RESULT: -8.189349653      1.553      3.213
REMARK  12 active torsions:
REMARK  status: ('A' for Active; 'I' for Inactive)
REMARK    1  A    between atoms: C3_3  and  C4_4
REMARK    2  A    between atoms: C4_4  and  C5_5
REMARK    3  A    between atoms: C5_5  and  C6_6
REMARK    4  A    between atoms: C6_6  and  C7_7
REMARK    5  A    between atoms: C7_7  and  C8_8
REMARK    6  A    between atoms: C7_7  and  N1_17
REMARK    7  A    between atoms: C8_8  and  C9_9
REMARK    8  A    between atoms: C9_9  and  O1_10
REMARK    9  A    between atoms: O1_10  and  C10_11
REMARK   10  A    between atoms: C10_11  and  C11_12
REMARK   11  A    between atoms: N1_17  and  C14_19
REMARK   12  A    between atoms: N5_33  and  O4_35
ROOT
HETATM    1  C1  UNL     1      21.207   7.046  23.040  1.00  0.00     0.012 C
HETATM    2  C2  UNL     1      22.043   7.783  22.611  1.00  0.00    -0.117 C
HETATM    3  C3  UNL     1      23.039   8.706  22.074  1.00  0.00     0.093 C
ENDROOT
BRANCH   3   4
HETATM    4  C4  UNL     1      22.338   9.763  21.260  1.00  0.00     0.012 C
BRANCH   4   5
HETATM    5  C5  UNL     1      23.092  10.090  20.004  1.00  0.00     0.003 C
BRANCH   5   6
HETATM    6  C6  UNL     1      22.182  10.766  19.030  1.00  0.00     0.025 C
BRANCH   6   7
HETATM    7  C7  UNL     1      22.323  10.160  17.621  1.00  0.00     0.085 C
BRANCH   7   8
HETATM    8  C8  UNL     1      22.279  11.401  16.672  1.00  0.00     0.051 C
BRANCH   8   9
HETATM    9  C9  UNL     1      22.243  12.587  17.545  1.00  0.00     0.171 C
BRANCH   9  10
HETATM   10  O1  UNL     1      21.845  13.788  17.163  1.00  0.00    -0.369 OA
BRANCH  10  11
HETATM   11  C10 UNL     1      20.633  14.112  16.673  1.00  0.00     0.148 A
HETATM   12  C12 UNL     1      20.214  15.583  16.685  1.00  0.00     0.053 A
HETATM   13  C13 UNL     1      20.530  14.897  15.386  1.00  0.00     0.053 A
BRANCH  11  14
HETATM   14  C11 UNL     1      19.479  13.225  16.948  1.00  0.00     0.209 C
HETATM   15  O2  UNL     1      19.001  12.534  15.969  1.00  0.00    -0.646 OA
HETATM   16  O3  UNL     1      18.859  13.071  18.154  1.00  0.00    -0.646 OA
ENDBRANCH  11  14
ENDBRANCH  10  11
ENDBRANCH   9  10
ENDBRANCH   8   9
ENDBRANCH   7   8
BRANCH   7  17
HETATM   17  N1  UNL     1      21.238   9.327  17.259  1.00  0.00    -0.370 N
ATOM     18  H1  UNL     1      21.360   8.785  16.403  1.00  0.00     0.161 HD
BRANCH  17  19
HETATM   19  C14 UNL     1      20.120   9.165  17.870  1.00  0.00     0.123 A
HETATM   20  N2  UNL     1      19.018   9.896  17.675  1.00  0.00    -0.351 N
HETATM   21  C15 UNL     1      17.906   9.636  18.374  1.00  0.00     0.100 A
ATOM     22  H2  UNL     1      19.025  10.654  16.993  1.00  0.00     0.166 HD
HETATM   23  C16 UNL     1      17.803   8.622  19.325  1.00  0.00    -0.006 A
HETATM   24  C17 UNL     1      18.911   7.867  19.539  1.00  0.00     0.013 A
HETATM   25  C27 UNL     1      16.492   8.491  19.999  1.00  0.00     0.209 C
HETATM   26  C18 UNL     1      20.051   8.150  18.809  1.00  0.00     0.100 A
HETATM   27  C20 UNL     1      18.976   6.722  20.528  1.00  0.00     0.101 C
HETATM   28  C19 UNL     1      21.233   7.334  19.051  1.00  0.00     0.104 C
HETATM   29  N3  UNL     1      22.186   6.701  19.245  1.00  0.00    -0.191 NA
HETATM   30  N4  UNL     1      18.570   5.499  19.965  1.00  0.00    -0.372 N
HETATM   31  C21 UNL     1      17.642   4.664  20.594  1.00  0.00     0.119 C
ATOM     32  H4  UNL     1      18.964   5.212  19.068  1.00  0.00     0.164 HD
HETATM   33  C22 UNL     1      17.300   4.934  22.003  1.00  0.00     0.069 C
HETATM   34  N5  UNL     1      18.306   4.908  22.831  1.00  0.00    -0.266 N
HETATM   35  C24 UNL     1      15.978   5.189  22.536  1.00  0.00     0.031 C
ATOM     36  H5  UNL     1      19.218   4.705  22.422  1.00  0.00     0.194 HD
HETATM   37  C25 UNL     1      15.074   6.040  22.192  1.00  0.00     0.002 C
HETATM   38  C26 UNL     1      15.049   7.069  21.135  1.00  0.00     0.195 C
HETATM   39  O5  UNL     1      16.312   7.345  20.709  1.00  0.00    -0.383 OA
BRANCH  34  40
HETATM   40  O4  UNL     1      18.284   5.117  24.156  1.00  0.00    -0.285 OA
HETATM   41  C23 UNL     1      19.138   4.493  25.107  1.00  0.00     0.237 C
ENDBRANCH  34  40
ENDBRANCH  17  19
ENDBRANCH   7  17
ENDBRANCH   6   7
ENDBRANCH   5   6
ENDBRANCH   4   5
ENDBRANCH   3   4
TORSDOF 12
ENDMDL