MODEL 5
REMARK VINA RESULT: -8.372234737      1.965      8.628
REMARK  11 active torsions:
REMARK  status: ('A' for Active; 'I' for Inactive)
REMARK    1  A    between atoms: C2_2  and  C3_4
REMARK    2  A    between atoms: C3_4  and  C4_5
REMARK       I    between atoms: N1_6  and  C5_8
REMARK       I    between atoms: C5_8  and  N2_10
REMARK    3  A    between atoms: C9_14  and  C10_15
REMARK       I    between atoms: C10_15  and  N3_17
REMARK    4  A    between atoms: N3_17  and  C11_19
REMARK    5  A    between atoms: C11_19  and  C12_20
REMARK    6  A    between atoms: C11_19  and  C24_37
REMARK       I    between atoms: C12_20  and  N4_22
REMARK    7  A    between atoms: N4_22  and  C13_24
REMARK    8  A    between atoms: C13_24  and  C14_25
REMARK    9  A    between atoms: C13_24  and  C21_32
REMARK   10  A    between atoms: C14_25  and  C15_26
REMARK   11  A    between atoms: C21_32  and  C22_34
ROOT
HETATM    1  C11 UNL     1      21.227   9.828  20.126  1.00  0.00     0.180 C
ENDROOT
BRANCH   1   2
HETATM    2  N3  UNL     1      20.190   9.004  19.799  1.00  0.00    -0.346 N
HETATM    3  C10 UNL     1      19.747   8.037  20.779  1.00  0.00     0.241 C
HETATM    4  O3  UNL     1      20.304   8.079  21.914  1.00  0.00    -0.271 OA
ATOM      5  H3  UNL     1      19.739   9.067  18.887  1.00  0.00     0.163 HD
BRANCH   3   6
HETATM    6  C9  UNL     1      18.751   6.996  20.606  1.00  0.00     0.181 C
HETATM    7  N2  UNL     1      17.712   6.924  21.594  1.00  0.00    -0.321 N
HETATM    8  C5  UNL     1      17.559   6.016  22.649  1.00  0.00     0.322 C
HETATM    9  C6  UNL     1      16.742   7.928  21.232  1.00  0.00     0.129 C
HETATM   10  N1  UNL     1      16.240   6.015  23.341  1.00  0.00    -0.322 N
HETATM   11  O2  UNL     1      18.406   5.240  23.036  1.00  0.00    -0.247 OA
HETATM   12  C4  UNL     1      15.291   5.376  22.669  1.00  0.00     0.073 C
ATOM     13  H1  UNL     1      16.081   6.462  24.244  1.00  0.00     0.169 HD
HETATM   14  C7  UNL     1      16.742   8.015  19.719  1.00  0.00     0.022 C
HETATM   15  C8  UNL     1      17.961   7.274  19.294  1.00  0.00     0.037 C
BRANCH  12  16
HETATM   16  C3  UNL     1      15.518   4.722  21.379  1.00  0.00     0.122 C
BRANCH  16  17
HETATM   17  C2  UNL     1      14.667   5.416  20.349  1.00  0.00     0.127 C
HETATM   18  C1  UNL     1      13.588   6.340  20.790  1.00  0.00     0.091 C
HETATM   19  O1  UNL     1      14.848   5.212  19.169  1.00  0.00    -0.298 OA
ENDBRANCH  16  17
ENDBRANCH  12  16
ENDBRANCH   3   6
ENDBRANCH   1   2
BRANCH   1  20
HETATM   20  C12 UNL     1      21.437  11.264  19.893  1.00  0.00     0.241 C
HETATM   21  O4  UNL     1      21.284  12.206  20.672  1.00  0.00    -0.271 OA
HETATM   22  N4  UNL     1      21.883  11.467  18.536  1.00  0.00    -0.347 N
ATOM     23  H4  UNL     1      21.974  10.584  18.034  1.00  0.00     0.163 HD
BRANCH  22  24
HETATM   24  C13 UNL     1      22.226  12.564  17.726  1.00  0.00     0.163 C
BRANCH  24  25
HETATM   25  C14 UNL     1      23.227  13.414  18.407  1.00  0.00     0.038 C
BRANCH  25  26
HETATM   26  C15 UNL     1      24.474  13.768  17.719  1.00  0.00    -0.012 C
HETATM   27  C16 UNL     1      25.369  12.568  17.487  1.00  0.00     0.005 C
HETATM   28  C17 UNL     1      26.797  13.050  17.499  1.00  0.00     0.000 C
HETATM   29  C18 UNL     1      26.974  14.130  16.482  1.00  0.00     0.000 C
HETATM   30  C19 UNL     1      25.750  14.448  15.702  1.00  0.00     0.000 C
HETATM   31  C20 UNL     1      24.513  14.674  16.585  1.00  0.00     0.005 C
ENDBRANCH  25  26
ENDBRANCH  24  25
BRANCH  24  32
HETATM   32  C21 UNL     1      20.946  13.183  17.317  1.00  0.00     0.216 C
HETATM   33  O5  UNL     1      20.931  14.398  17.011  1.00  0.00    -0.287 OA
BRANCH  32  34
HETATM   34  C22 UNL     1      19.697  12.452  17.234  1.00  0.00     0.193 C
HETATM   35  C23 UNL     1      18.406  12.864  17.824  1.00  0.00     0.100 C
HETATM   36  O6  UNL     1      19.658  11.324  16.596  1.00  0.00    -0.290 OA
ENDBRANCH  32  34
ENDBRANCH  24  32
ENDBRANCH  22  24
ENDBRANCH   1  20
BRANCH   1  37
HETATM   37  C24 UNL     1      22.585   9.189  19.618  1.00  0.00     0.009 C
HETATM   38  C25 UNL     1      22.265   7.915  18.913  1.00  0.00     0.012 C
HETATM   39  C26 UNL     1      23.491   9.100  20.791  1.00  0.00     0.012 C
ENDBRANCH   1  37
TORSDOF 11
ENDMDL