MODEL 5
REMARK VINA RESULT: -7.877074655      3.510     10.686
REMARK  15 active torsions:
REMARK  status: ('A' for Active; 'I' for Inactive)
REMARK    1  A    between atoms: C2_2  and  N1_3
REMARK    2  A    between atoms: N1_3  and  C3_5
REMARK    3  A    between atoms: C4_8  and  N3_9
REMARK    4  A    between atoms: N3_9  and  C5_11
REMARK    5  A    between atoms: C5_11  and  C6_12
REMARK    6  A    between atoms: C6_12  and  C7_13
REMARK    7  A    between atoms: C7_13  and  N4_14
REMARK    8  A    between atoms: N5_17  and  C10_18
REMARK    9  A    between atoms: C10_18  and  C11_19
REMARK   10  A    between atoms: C10_18  and  C13_22
REMARK   11  A    between atoms: C10_18  and  C16_26
REMARK   12  A    between atoms: C13_22  and  C14_23
REMARK   13  A    between atoms: C16_26  and  C17_27
REMARK   14  A    between atoms: C17_27  and  C19_29
REMARK   15  A    between atoms: C26_38  and  O1_39
ROOT
HETATM    1  C11 UNL     1      16.754   4.406  21.205  1.00  0.00     0.154 C
HETATM    2  C12 UNL     1      15.686   4.858  20.354  1.00  0.00     0.061 C
HETATM    3  N6  UNL     1      14.840   5.232  19.677  1.00  0.00    -0.197 NA
ENDROOT
BRANCH   1   4
HETATM    4  C10 UNL     1      17.186   5.494  22.225  1.00  0.00     0.041 C
BRANCH   4   5
HETATM    5  N5  UNL     1      17.446   6.661  21.424  1.00  0.00    -0.399 N
HETATM    6  C9  UNL     1      18.672   6.798  20.807  1.00  0.00     0.148 C
HETATM    7  C8  UNL     1      18.494   7.431  19.422  1.00  0.00     0.291 C
HETATM    8  N4  UNL     1      17.852   8.692  19.549  1.00  0.00     0.091 N
HETATM    9  C22 UNL     1      16.557   8.480  20.163  1.00  0.00     0.291 C
HETATM   10  C21 UNL     1      16.688   7.805  21.545  1.00  0.00     0.148 C
BRANCH   8  11
HETATM   11  C7  UNL     1      18.524   9.714  20.256  1.00  0.00     0.274 C
BRANCH  11  12
HETATM   12  C6  UNL     1      19.160  10.799  19.468  1.00  0.00     0.050 C
BRANCH  12  13
HETATM   13  C5  UNL     1      20.558  11.165  19.962  1.00  0.00     0.140 C
BRANCH  13  14
HETATM   14  N3  UNL     1      21.460  10.801  18.904  1.00  0.00    -0.226 N
ATOM     15  H3  UNL     1      21.588   9.803  18.733  1.00  0.00     0.177 HD
BRANCH  14  16
HETATM   16  C4  UNL     1      22.118  11.601  18.155  1.00  0.00     0.680 A
HETATM   17  N2  UNL     1      21.433  12.305  17.210  1.00  0.00    -0.176 N
HETATM   18  C3  UNL     1      22.069  13.157  16.404  1.00  0.00     0.129 A
ATOM     19  H2  UNL     1      20.425  12.180  17.118  1.00  0.00     0.186 HD
HETATM   20  C28 UNL     1      23.438  13.309  16.550  1.00  0.00     0.038 A
HETATM   21  C23 UNL     1      24.109  12.599  17.499  1.00  0.00     0.063 A
HETATM   22  C27 UNL     1      24.093  14.193  15.716  1.00  0.00     0.054 A
HETATM   23  N8  UNL     1      23.439  11.736  18.310  1.00  0.00    -0.191 N
HETATM   24  C24 UNL     1      25.476  12.746  17.656  1.00  0.00     0.034 A
ATOM     25  H8  UNL     1      23.935  11.202  19.023  1.00  0.00     0.184 HD
HETATM   26  C25 UNL     1      26.114  13.630  16.816  1.00  0.00     0.039 A
HETATM   27  C26 UNL     1      25.440  14.339  15.867  1.00  0.00     0.066 A
BRANCH  18  28
HETATM   28  N1  UNL     1      21.433  13.817  15.514  1.00  0.00    -0.376 N
ATOM     29  H1  UNL     1      21.839  13.906  14.583  1.00  0.00     0.161 HD
BRANCH  28  30
HETATM   30  C2  UNL     1      20.161  14.439  15.781  1.00  0.00     0.116 C
HETATM   31  C1  UNL     1      20.278  15.626  16.714  1.00  0.00     0.026 C
ENDBRANCH  28  30
ENDBRANCH  18  28
BRANCH  27  32
HETATM   32  O1  UNL     1      26.124  15.231  15.029  1.00  0.00    -0.361 OA
ATOM     33  H1  UNL     1      26.135  15.096  14.089  1.00  0.00     0.217 HD
ENDBRANCH  27  32
ENDBRANCH  14  16
ENDBRANCH  13  14
ENDBRANCH  12  13
ENDBRANCH  11  12
ENDBRANCH   8  11
ENDBRANCH   4   5
BRANCH   4  34
HETATM   34  C13 UNL     1      18.462   4.951  22.760  1.00  0.00     0.045 C
BRANCH  34  35
HETATM   35  C14 UNL     1      18.817   3.544  22.570  1.00  0.00     0.126 C
HETATM   36  C15 UNL     1      18.821   2.628  23.657  1.00  0.00     0.059 C
HETATM   37  N7  UNL     1      18.825   1.902  24.552  1.00  0.00    -0.197 NA
ENDBRANCH  34  35
ENDBRANCH   4  34
BRANCH   4  38
HETATM   38  C16 UNL     1      16.028   5.707  23.086  1.00  0.00     0.036 C
BRANCH  38  39
HETATM   39  C17 UNL     1      15.558   4.838  24.142  1.00  0.00    -0.017 C
HETATM   40  C18 UNL     1      14.035   4.598  23.798  1.00  0.00     0.010 C
BRANCH  39  41
HETATM   41  C19 UNL     1      15.519   5.185  25.571  1.00  0.00    -0.000 C
HETATM   42  C20 UNL     1      16.891   4.932  26.242  1.00  0.00     0.005 C
ENDBRANCH  39  41
ENDBRANCH  38  39
ENDBRANCH   4  38
ENDBRANCH   1   4
TORSDOF 15
ENDMDL