MODEL 2
REMARK VINA RESULT: -8.450448255      4.266     10.319
REMARK  13 active torsions:
REMARK  status: ('A' for Active; 'I' for Inactive)
REMARK    1  A    between atoms: C2_2  and  C3_3
REMARK    2  A    between atoms: C3_3  and  C4_4
REMARK    3  A    between atoms: C4_4  and  N1_5
REMARK    4  A    between atoms: N1_5  and  C5_7
REMARK    5  A    between atoms: C8_12  and  C9_13
REMARK    6  A    between atoms: C9_13  and  C10_14
REMARK    7  A    between atoms: C10_14  and  N3_15
REMARK    8  A    between atoms: C12_19  and  C13_20
REMARK    9  A    between atoms: C13_20  and  N4_21
REMARK   10  A    between atoms: C21_32  and  N6_33
REMARK   11  A    between atoms: N6_33  and  C22_35
REMARK   12  A    between atoms: C22_35  and  C23_36
REMARK   13  A    between atoms: C23_36  and  N7_37
ROOT
HETATM    1  C5  UNL     1      21.174   8.739  18.172  1.00  0.00     0.146 A
HETATM    2  N2  UNL     1      22.174   9.616  18.031  1.00  0.00    -0.338 N
ATOM      3  H2  UNL     1      23.098   9.378  18.392  1.00  0.00     0.167 HD
HETATM    4  C6  UNL     1      21.992  10.813  17.420  1.00  0.00     0.061 A
HETATM    5  C7  UNL     1      23.035  11.686  17.269  1.00  0.00     0.040 A
HETATM    6  C8  UNL     1      22.895  12.890  16.640  1.00  0.00    -0.043 A
HETATM    7  C12 UNL     1      21.653  13.307  16.105  1.00  0.00    -0.011 A
HETATM    8  C18 UNL     1      20.599  12.442  16.260  1.00  0.00    -0.021 A
HETATM    9  C19 UNL     1      19.198  12.703  15.932  1.00  0.00     0.052 C
HETATM   10  C20 UNL     1      20.777  11.200  16.912  1.00  0.00     0.067 A
HETATM   11  N5  UNL     1      19.774  10.313  17.056  1.00  0.00    -0.337 N
ATOM     12  H5  UNL     1      18.851  10.553  16.695  1.00  0.00     0.167 HD
HETATM   13  C21 UNL     1      19.946   9.104  17.669  1.00  0.00     0.146 A
ENDROOT
BRANCH  13  14
HETATM   14  N6  UNL     1      18.979   8.266  17.798  1.00  0.00    -0.371 N
ATOM     15  H6  UNL     1      19.106   7.342  17.385  1.00  0.00     0.161 HD
BRANCH  14  16
HETATM   16  C22 UNL     1      17.731   8.517  18.475  1.00  0.00     0.151 C
BRANCH  16  17
HETATM   17  C23 UNL     1      17.727   7.725  19.766  1.00  0.00     0.292 C
BRANCH  17  18
HETATM   18  N7  UNL     1      16.779   6.627  19.714  1.00  0.00     0.094 N
HETATM   19  C24 UNL     1      16.806   5.954  21.001  1.00  0.00     0.298 C
HETATM   20  C25 UNL     1      15.842   4.779  21.019  1.00  0.00     0.198 C
HETATM   21  O1  UNL     1      15.038   4.756  19.880  1.00  0.00    -0.388 OA
HETATM   22  C26 UNL     1      14.419   5.981  19.702  1.00  0.00     0.198 C
HETATM   23  C27 UNL     1      15.420   7.112  19.536  1.00  0.00     0.298 C
ENDBRANCH  17  18
ENDBRANCH  16  17
ENDBRANCH  14  16
ENDBRANCH  13  14
BRANCH   1  24
HETATM   24  N1  UNL     1      21.360   7.597  18.761  1.00  0.00    -0.373 N
ATOM     25  H1  UNL     1      21.392   6.731  18.224  1.00  0.00     0.161 HD
BRANCH  24  26
HETATM   26  C4  UNL     1      21.518   7.585  20.191  1.00  0.00     0.121 C
BRANCH  26  27
HETATM   27  C3  UNL     1      22.767   6.840  20.619  1.00  0.00     0.019 C
BRANCH  27  28
HETATM   28  C2  UNL     1      23.612   7.805  21.426  1.00  0.00    -0.003 C
HETATM   29  C1  UNL     1      22.769   8.995  21.860  1.00  0.00     0.005 C
ENDBRANCH  27  28
ENDBRANCH  26  27
ENDBRANCH  24  26
ENDBRANCH   1  24
BRANCH   7  30
HETATM   30  C13 UNL     1      21.621  14.574  15.426  1.00  0.00     0.072 C
BRANCH  30  31
HETATM   31  N4  UNL     1      21.553  15.805  16.178  1.00  0.00    -0.290 NA
HETATM   32  C14 UNL     1      21.657  16.937  15.248  1.00  0.00     0.105 C
HETATM   33  C15 UNL     1      21.529  18.269  15.947  1.00  0.00     0.088 C
HETATM   34  S1  UNL     1      19.694  18.426  16.145  1.00  0.00    -0.167 SA
HETATM   35  C16 UNL     1      19.201  16.648  16.051  1.00  0.00     0.088 C
HETATM   36  C17 UNL     1      20.232  15.914  16.819  1.00  0.00     0.105 C
ENDBRANCH  30  31
ENDBRANCH   7  30
BRANCH   6  37
HETATM   37  C9  UNL     1      24.077  13.765  16.597  1.00  0.00     0.067 C
BRANCH  37  38
HETATM   38  C10 UNL     1      24.780  13.877  17.909  1.00  0.00     0.236 C
BRANCH  38  39
HETATM   39  N3  UNL     1      26.154  13.419  17.731  1.00  0.00    -0.079 N
HETATM   40  C11 UNL     1      26.575  13.550  16.349  1.00  0.00     0.267 C
ATOM     41  H32 UNL     1      26.794  13.898  18.365  1.00  0.00     0.276 HD
ATOM     42  H31 UNL     1      26.280  12.467  18.073  1.00  0.00     0.276 HD
ENDBRANCH  38  39
ENDBRANCH  37  38
ENDBRANCH   6  37
TORSDOF 13
ENDMDL