MODEL 4
REMARK VINA RESULT: -8.475174420      2.172     10.099
REMARK  13 active torsions:
REMARK  status: ('A' for Active; 'I' for Inactive)
REMARK    1  A    between atoms: C2_2  and  N1_3
REMARK    2  A    between atoms: N1_3  and  C3_4
REMARK    3  A    between atoms: N1_3  and  C5_6
REMARK    4  A    between atoms: C5_6  and  C6_7
REMARK    5  A    between atoms: C6_7  and  N2_8
REMARK       I    between atoms: N2_8  and  C7_10
REMARK    6  A    between atoms: C7_10  and  C8_12
REMARK    7  A    between atoms: C8_12  and  C9_13
REMARK    8  A    between atoms: C9_13  and  C10_14
REMARK    9  A    between atoms: C10_14  and  C11_15
REMARK   10  A    between atoms: C14_20  and  C15_21
REMARK   11  A    between atoms: C15_21  and  C16_22
REMARK   12  A    between atoms: C16_22  and  C17_23
REMARK   13  A    between atoms: C26_35  and  O3_36
ROOT
HETATM    1  C11 UNL     1      22.655  10.203  18.659  1.00  0.00    -0.003 C
HETATM    2  C12 UNL     1      23.666  10.995  18.386  1.00  0.00     0.043 C
HETATM    3  C13 UNL     1      23.735  12.331  17.769  1.00  0.00     0.062 A
HETATM    4  N3  UNL     1      24.991  12.780  17.477  1.00  0.00    -0.341 N
ATOM      5  H3  UNL     1      25.864  12.282  17.647  1.00  0.00     0.167 HD
HETATM    6  C14 UNL     1      24.867  14.005  16.922  1.00  0.00     0.106 A
HETATM    7  N4  UNL     1      23.553  14.287  16.881  1.00  0.00    -0.340 N
ATOM      8  H4  UNL     1      23.163  15.153  16.510  1.00  0.00     0.167 HD
HETATM    9  C19 UNL     1      22.823  13.290  17.389  1.00  0.00     0.072 A
HETATM   10  C20 UNL     1      21.370  13.407  17.432  1.00  0.00     0.008 A
HETATM   11  C21 UNL     1      21.099  14.695  17.015  1.00  0.00     0.016 A
HETATM   12  C22 UNL     1      19.775  15.119  16.948  1.00  0.00     0.020 A
HETATM   13  C23 UNL     1      18.730  14.301  17.282  1.00  0.00     0.060 A
HETATM   14  C24 UNL     1      18.997  13.016  17.698  1.00  0.00     0.065 A
HETATM   15  C25 UNL     1      20.306  12.593  17.765  1.00  0.00     0.042 A
HETATM   16  C26 UNL     1      20.212  11.336  18.187  1.00  0.00     0.130 C
HETATM   17  C27 UNL     1      21.182  10.293  18.474  1.00  0.00     0.212 C
HETATM   18  O4  UNL     1      20.591   9.183  18.590  1.00  0.00    -0.285 OA
HETATM   19  N5  UNL     1      17.719  12.835  17.831  1.00  0.00    -0.321 N
ATOM     20  H5  UNL     1      17.185  12.020  18.135  1.00  0.00     0.169 HD
HETATM   21  C28 UNL     1      17.297  14.123  17.423  1.00  0.00     0.258 A
HETATM   22  O5  UNL     1      16.240  14.760  17.269  1.00  0.00    -0.267 OA
ENDROOT
BRANCH   1  23
HETATM   23  C10 UNL     1      23.008   8.926  19.290  1.00  0.00     0.043 C
BRANCH  23  24
HETATM   24  C9  UNL     1      22.946   8.866  20.772  1.00  0.00     0.014 C
BRANCH  24  25
HETATM   25  C8  UNL     1      22.740   7.463  21.295  1.00  0.00     0.103 C
BRANCH  25  26
HETATM   26  C7  UNL     1      21.319   7.136  21.545  1.00  0.00     0.217 C
HETATM   27  N2  UNL     1      20.497   6.682  20.483  1.00  0.00    -0.359 N
ATOM     28  H2  UNL     1      20.887   6.575  19.547  1.00  0.00     0.162 HD
HETATM   29  O1  UNL     1      20.874   7.273  22.709  1.00  0.00    -0.274 OA
BRANCH  27  30
HETATM   30  C6  UNL     1      19.115   6.371  20.723  1.00  0.00     0.152 C
BRANCH  30  31
HETATM   31  C5  UNL     1      18.164   7.113  19.822  1.00  0.00     0.292 C
BRANCH  31  32
HETATM   32  N1  UNL     1      16.831   6.972  20.361  1.00  0.00     0.089 N
BRANCH  32  33
HETATM   33  C2  UNL     1      15.865   7.857  19.791  1.00  0.00     0.268 C
HETATM   34  C1  UNL     1      16.366   8.631  18.614  1.00  0.00     0.037 C
ENDBRANCH  32  33
BRANCH  32  35
HETATM   35  C3  UNL     1      16.395   5.594  20.400  1.00  0.00     0.268 C
HETATM   36  C4  UNL     1      14.923   5.579  20.027  1.00  0.00     0.037 C
ENDBRANCH  32  35
ENDBRANCH  31  32
ENDBRANCH  30  31
ENDBRANCH  27  30
ENDBRANCH  25  26
ENDBRANCH  24  25
ENDBRANCH  23  24
ENDBRANCH   1  23
BRANCH  16  37
HETATM   37  O3  UNL     1      18.884  10.954  18.394  1.00  0.00    -0.356 OA
ATOM     38  H3  UNL     1      18.822  10.129  18.861  1.00  0.00     0.218 HD
ENDBRANCH  16  37
BRANCH   6  39
HETATM   39  C15 UNL     1      25.964  14.867  16.448  1.00  0.00     0.052 C
BRANCH  39  40
HETATM   40  C16 UNL     1      25.700  15.748  15.501  1.00  0.00     0.053 C
BRANCH  40  41
HETATM   41  C17 UNL     1      25.483  17.131  15.847  1.00  0.00     0.145 C
HETATM   42  C18 UNL     1      24.336  17.864  15.265  1.00  0.00     0.096 C
HETATM   43  O2  UNL     1      26.257  17.710  16.632  1.00  0.00    -0.294 OA
ENDBRANCH  40  41
ENDBRANCH  39  40
ENDBRANCH   6  39
TORSDOF 13
ENDMDL