MODEL 5
REMARK VINA RESULT: -7.847619876      2.003      2.561
REMARK  13 active torsions:
REMARK  status: ('A' for Active; 'I' for Inactive)
REMARK       I    between atoms: N1_7  and  C7_8
REMARK    1  A    between atoms: C7_8  and  C8_10
REMARK    2  A    between atoms: C8_10  and  C9_11
REMARK    3  A    between atoms: C9_11  and  C10_12
REMARK    4  A    between atoms: C10_12  and  C11_13
REMARK    5  A    between atoms: C11_13  and  C12_14
REMARK    6  A    between atoms: C12_14  and  C13_15
REMARK    7  A    between atoms: C13_15  and  C14_16
REMARK    8  A    between atoms: C14_16  and  C15_18
REMARK    9  A    between atoms: C15_18  and  C16_19
REMARK   10  A    between atoms: C16_19  and  O3_21
REMARK   11  A    between atoms: C16_19  and  C18_23
REMARK   12  A    between atoms: C23_29  and  N2_30
REMARK   13  A    between atoms: C28_36  and  O6_37
ROOT
HETATM    1  C1  UNL     1      15.663   7.854  17.789  1.00  0.00     0.017 C
HETATM    2  C2  UNL     1      16.166   8.202  18.995  1.00  0.00    -0.058 C
HETATM    3  C3  UNL     1      16.464   9.672  18.995  1.00  0.00     0.041 C
HETATM    4  C4  UNL     1      17.761   9.908  19.738  1.00  0.00    -0.003 C
HETATM    5  C5  UNL     1      18.869   9.506  18.848  1.00  0.00     0.025 C
HETATM    6  C6  UNL     1      19.374   8.083  19.012  1.00  0.00     0.127 C
HETATM    7  N1  UNL     1      19.444   7.772  20.451  1.00  0.00    -0.344 N
HETATM    8  C7  UNL     1      20.666   7.334  20.977  1.00  0.00     0.220 C
HETATM    9  O1  UNL     1      20.794   7.081  22.198  1.00  0.00    -0.273 OA
HETATM   10  C19 UNL     1      18.289   7.955  21.239  1.00  0.00     0.122 C
HETATM   11  C20 UNL     1      17.744   9.382  21.116  1.00  0.00     0.015 C
HETATM   12  C21 UNL     1      16.422   9.261  21.779  1.00  0.00     0.010 C
HETATM   13  C22 UNL     1      16.234   7.818  22.197  1.00  0.00     0.036 C
HETATM   14  C23 UNL     1      17.102   7.111  21.116  1.00  0.00     0.079 C
HETATM   15  C28 UNL     1      16.268   7.111  19.909  1.00  0.00     0.176 C
ENDROOT
BRANCH   8  16
HETATM   16  C8  UNL     1      21.831   7.159  20.101  1.00  0.00     0.103 C
BRANCH  16  17
HETATM   17  C9  UNL     1      23.000   8.053  20.395  1.00  0.00     0.009 C
BRANCH  17  18
HETATM   18  C10 UNL     1      22.673   9.501  20.576  1.00  0.00     0.000 C
BRANCH  18  19
HETATM   19  C11 UNL     1      22.539  10.171  19.209  1.00  0.00     0.000 C
BRANCH  19  20
HETATM   20  C12 UNL     1      22.491  11.648  19.254  1.00  0.00     0.007 C
BRANCH  20  21
HETATM   21  C13 UNL     1      21.732  12.320  18.146  1.00  0.00     0.078 C
BRANCH  21  22
HETATM   22  C14 UNL     1      22.561  13.087  17.225  1.00  0.00     0.130 C
HETATM   23  O2  UNL     1      22.200  14.132  16.749  1.00  0.00    -0.298 OA
BRANCH  22  24
HETATM   24  C15 UNL     1      23.911  12.592  16.840  1.00  0.00     0.123 C
BRANCH  24  25
HETATM   25  C16 UNL     1      24.924  13.654  17.199  1.00  0.00     0.113 C
HETATM   26  C17 UNL     1      26.172  13.001  17.718  1.00  0.00     0.054 C
BRANCH  25  27
HETATM   27  O3  UNL     1      24.364  14.456  18.213  1.00  0.00    -0.383 OA
ATOM     28  H3  UNL     1      24.479  14.000  19.038  1.00  0.00     0.211 HD
ENDBRANCH  25  27
BRANCH  25  29
HETATM   29  C18 UNL     1      25.178  14.466  15.981  1.00  0.00     0.269 C
HETATM   30  O4  UNL     1      26.179  14.259  15.337  1.00  0.00    -0.304 OA
ENDBRANCH  25  29
ENDBRANCH  24  25
ENDBRANCH  22  24
ENDBRANCH  21  22
ENDBRANCH  20  21
ENDBRANCH  19  20
ENDBRANCH  18  19
ENDBRANCH  17  18
ENDBRANCH  16  17
ENDBRANCH   8  16
BRANCH  14  31
HETATM   31  N2  UNL     1      17.313   5.814  21.642  1.00  0.00    -0.395 N
HETATM   32  C24 UNL     1      17.268   5.534  23.002  1.00  0.00     0.144 C
HETATM   33  C25 UNL     1      18.409   4.576  23.411  1.00  0.00     0.187 C
HETATM   34  O5  UNL     1      18.114   3.363  22.795  1.00  0.00    -0.388 OA
HETATM   35  C26 UNL     1      17.787   3.491  21.474  1.00  0.00     0.187 C
HETATM   36  C27 UNL     1      18.075   4.886  20.901  1.00  0.00     0.144 C
ENDBRANCH  14  31
BRANCH  15  37
HETATM   37  O6  UNL     1      14.952   6.762  20.320  1.00  0.00    -0.389 OA
ATOM     38  H6  UNL     1      15.003   6.435  21.211  1.00  0.00     0.210 HD
ENDBRANCH  15  37
TORSDOF 13
ENDMDL