MODEL 4
REMARK VINA RESULT: -8.116192702      2.733      7.739
REMARK  12 active torsions:
REMARK  status: ('A' for Active; 'I' for Inactive)
REMARK    1  A    between atoms: C2_2  and  C3_3
REMARK    2  A    between atoms: C3_3  and  C4_4
REMARK    3  A    between atoms: C4_4  and  N1_5
REMARK       I    between atoms: N1_5  and  C5_6
REMARK    4  A    between atoms: N1_5  and  C16_22
REMARK    5  A    between atoms: C5_6  and  C6_8
REMARK    6  A    between atoms: C6_8  and  O2_9
REMARK    7  A    between atoms: O2_9  and  C7_10
REMARK    8  A    between atoms: C7_10  and  C8_12
REMARK    9  A    between atoms: C10_14  and  O4_15
REMARK   10  A    between atoms: C13_18  and  O5_19
REMARK   11  A    between atoms: C17_23  and  N2_24
REMARK       I    between atoms: N2_24  and  C18_26
REMARK   12  A    between atoms: C18_26  and  C19_28
ROOT
HETATM    1  N1  UNL     1      18.345   9.133  19.035  1.00  0.00    -0.308 N
HETATM    2  C5  UNL     1      18.562  10.163  19.977  1.00  0.00     0.248 C
HETATM    3  O1  UNL     1      18.196   9.973  21.164  1.00  0.00    -0.271 OA
ENDROOT
BRANCH   1   4
HETATM    4  C4  UNL     1      18.835   9.310  17.684  1.00  0.00     0.132 C
BRANCH   4   5
HETATM    5  C3  UNL     1      20.309   9.137  17.529  1.00  0.00     0.020 C
BRANCH   5   6
HETATM    6  C2  UNL     1      20.811  10.076  16.451  1.00  0.00    -0.003 C
HETATM    7  C1  UNL     1      19.777  11.072  16.031  1.00  0.00     0.005 C
ENDBRANCH   5   6
ENDBRANCH   4   5
ENDBRANCH   1   4
BRANCH   1   8
HETATM    8  C16 UNL     1      17.667   7.924  19.413  1.00  0.00     0.150 A
HETATM    9  C17 UNL     1      18.378   6.839  19.930  1.00  0.00     0.145 A
HETATM   10  N3  UNL     1      17.695   5.753  20.260  1.00  0.00    -0.292 N
HETATM   11  C23 UNL     1      16.333   5.637  20.122  1.00  0.00     0.328 A
ATOM     12  H3  UNL     1      18.209   4.958  20.638  1.00  0.00     0.172 HD
HETATM   13  O7  UNL     1      15.739   4.583  20.451  1.00  0.00    -0.247 OA
HETATM   14  N4  UNL     1      15.668   6.686  19.625  1.00  0.00    -0.273 N
HETATM   15  C24 UNL     1      16.313   7.807  19.276  1.00  0.00     0.280 A
ATOM     16  H4  UNL     1      14.656   6.630  19.511  1.00  0.00     0.173 HD
HETATM   17  O8  UNL     1      15.615   8.754  18.814  1.00  0.00    -0.265 OA
BRANCH   9  18
HETATM   18  N2  UNL     1      19.767   6.976  20.059  1.00  0.00    -0.310 N
HETATM   19  C18 UNL     1      20.543   6.893  21.221  1.00  0.00     0.231 C
HETATM   20  O6  UNL     1      20.059   6.678  22.338  1.00  0.00    -0.272 OA
ATOM     21  H2  UNL     1      20.277   7.159  19.195  1.00  0.00     0.170 HD
BRANCH  19  22
HETATM   22  C19 UNL     1      22.028   7.065  21.169  1.00  0.00     0.038 A
HETATM   23  C20 UNL     1      22.704   7.712  22.353  1.00  0.00     0.025 C
HETATM   24  C21 UNL     1      22.631   7.504  19.835  1.00  0.00     0.020 A
HETATM   25  C22 UNL     1      22.817   6.107  20.375  1.00  0.00     0.020 A
ENDBRANCH  19  22
ENDBRANCH   9  18
ENDBRANCH   1   8
BRANCH   2  26
HETATM   26  C6  UNL     1      19.194  11.418  19.586  1.00  0.00     0.282 C
BRANCH  26  27
HETATM   27  O2  UNL     1      20.343  11.739  20.347  1.00  0.00    -0.308 OA
BRANCH  27  28
HETATM   28  C7  UNL     1      21.643  11.587  19.951  1.00  0.00     0.293 C
HETATM   29  O3  UNL     1      22.373  10.767  20.570  1.00  0.00    -0.259 OA
BRANCH  28  30
HETATM   30  C8  UNL     1      22.252  12.318  18.843  1.00  0.00     0.044 A
HETATM   31  C9  UNL     1      21.521  13.206  18.078  1.00  0.00     0.054 A
HETATM   32  C10 UNL     1      22.090  13.908  17.018  1.00  0.00     0.071 A
HETATM   33  C12 UNL     1      23.438  13.718  16.708  1.00  0.00     0.073 A
HETATM   34  C13 UNL     1      24.187  12.830  17.465  1.00  0.00     0.071 A
HETATM   35  C15 UNL     1      23.579  12.160  18.504  1.00  0.00     0.054 A
BRANCH  32  36
HETATM   36  O4  UNL     1      21.398  14.796  16.240  1.00  0.00    -0.356 OA
HETATM   37  C11 UNL     1      20.247  15.439  16.702  1.00  0.00     0.210 C
ENDBRANCH  32  36
BRANCH  34  38
HETATM   38  O5  UNL     1      25.550  12.623  17.169  1.00  0.00    -0.356 OA
HETATM   39  C14 UNL     1      26.262  13.630  16.471  1.00  0.00     0.210 C
ENDBRANCH  34  38
ENDBRANCH  28  30
ENDBRANCH  27  28
ENDBRANCH  26  27
ENDBRANCH   2  26
TORSDOF 12
ENDMDL