MODEL 2
REMARK VINA RESULT: -8.292430797      1.363      1.727
REMARK  11 active torsions:
REMARK  status: ('A' for Active; 'I' for Inactive)
REMARK    1  A    between atoms: C4_9  and  C5_10
REMARK    2  A    between atoms: N3_11  and  C6_13
REMARK    3  A    between atoms: C9_16  and  O2_17
REMARK    4  A    between atoms: O2_17  and  C10_18
REMARK    5  A    between atoms: C10_18  and  C11_19
REMARK    6  A    between atoms: C11_19  and  C12_20
REMARK    7  A    between atoms: C12_20  and  N4_21
REMARK    8  A    between atoms: N5_24  and  C15_25
REMARK    9  A    between atoms: C15_25  and  C16_26
REMARK   10  A    between atoms: C23_36  and  C24_37
REMARK   11  A    between atoms: C24_37  and  N7_38
ROOT
HETATM    1  C6  UNL     1      21.634  11.732  16.810  1.00  0.00     0.032 A
HETATM    2  C7  UNL     1      20.280  11.748  16.556  1.00  0.00     0.032 A
HETATM    3  C8  UNL     1      19.449  10.780  17.075  1.00  0.00     0.039 A
HETATM    4  C9  UNL     1      19.915   9.763  17.861  1.00  0.00     0.076 A
HETATM    5  C23 UNL     1      21.289   9.721  18.139  1.00  0.00    -0.005 A
HETATM    6  C27 UNL     1      22.112  10.688  17.617  1.00  0.00     0.041 A
ENDROOT
BRANCH   4   7
HETATM    7  O2  UNL     1      19.058   8.794  18.376  1.00  0.00    -0.350 OA
BRANCH   7   8
HETATM    8  C10 UNL     1      17.719   8.680  17.888  1.00  0.00     0.177 C
BRANCH   8   9
HETATM    9  C11 UNL     1      16.710   9.082  18.939  1.00  0.00     0.057 C
BRANCH   9  10
HETATM   10  C12 UNL     1      17.181   8.534  20.256  1.00  0.00     0.274 C
BRANCH  10  11
HETATM   11  N4  UNL     1      16.625   7.255  20.577  1.00  0.00     0.091 N
HETATM   12  C13 UNL     1      15.598   7.315  21.592  1.00  0.00     0.302 C
HETATM   13  C14 UNL     1      15.203   5.878  21.861  1.00  0.00     0.302 C
HETATM   14  N5  UNL     1      16.236   5.240  22.628  1.00  0.00     0.092 N
HETATM   15  C21 UNL     1      17.543   5.586  22.138  1.00  0.00     0.302 C
HETATM   16  C22 UNL     1      17.580   6.214  20.800  1.00  0.00     0.302 C
BRANCH  14  17
HETATM   17  C15 UNL     1      16.193   5.582  24.031  1.00  0.00     0.277 C
BRANCH  17  18
HETATM   18  C16 UNL     1      15.640   4.470  24.887  1.00  0.00     0.017 C
HETATM   19  C17 UNL     1      15.840   3.168  24.151  1.00  0.00     0.034 C
HETATM   20  C18 UNL     1      14.668   2.227  24.337  1.00  0.00     0.232 C
HETATM   21  N6  UNL     1      13.498   2.906  23.821  1.00  0.00    -0.075 N
HETATM   22  C19 UNL     1      13.171   4.119  24.499  1.00  0.00     0.232 C
ATOM     23  H62 UNL     1      13.598   3.074  22.819  1.00  0.00     0.277 HD
ATOM     24  H61 UNL     1      12.696   2.276  23.813  1.00  0.00     0.277 HD
HETATM   25  C20 UNL     1      14.247   4.695  25.356  1.00  0.00     0.034 C
ENDBRANCH  17  18
ENDBRANCH  14  17
ENDBRANCH  10  11
ENDBRANCH   9  10
ENDBRANCH   8   9
ENDBRANCH   7   8
ENDBRANCH   4   7
BRANCH   5  26
HETATM   26  C24 UNL     1      21.778   8.598  18.963  1.00  0.00     0.157 C
BRANCH  26  27
HETATM   27  N7  UNL     1      21.874   8.942  20.332  1.00  0.00    -0.417 N
HETATM   28  C25 UNL     1      20.993   8.244  21.212  1.00  0.00     0.142 C
HETATM   29  C26 UNL     1      23.187   9.147  20.856  1.00  0.00     0.142 C
ENDBRANCH  26  27
ENDBRANCH   5  26
BRANCH   1  30
HETATM   30  N3  UNL     1      22.539  12.700  16.302  1.00  0.00    -0.365 N
HETATM   31  C5  UNL     1      23.671  12.942  16.859  1.00  0.00     0.107 C
ATOM     32  H3  UNL     1      22.281  13.222  15.464  1.00  0.00     0.165 HD
BRANCH  31  33
HETATM   33  C4  UNL     1      24.567  13.935  16.313  1.00  0.00     0.072 A
HETATM   34  C2  UNL     1      25.965  13.926  16.367  1.00  0.00     0.039 A
HETATM   35  C1  UNL     1      26.773  12.858  17.019  1.00  0.00     0.071 C
HETATM   36  N1  UNL     1      26.357  15.029  15.740  1.00  0.00    -0.301 N
HETATM   37  N2  UNL     1      25.312  15.713  15.306  1.00  0.00    -0.266 N
ATOM     38  H1  UNL     1      27.330  15.309  15.611  1.00  0.00     0.186 HD
HETATM   39  C3  UNL     1      24.168  15.088  15.629  1.00  0.00     0.273 A
ATOM     40  H2  UNL     1      25.367  16.595  14.796  1.00  0.00     0.190 HD
HETATM   41  O1  UNL     1      22.975  15.431  15.388  1.00  0.00    -0.266 OA
ENDBRANCH  31  33
ENDBRANCH   1  30
TORSDOF 11
ENDMDL