MODEL 2
REMARK VINA RESULT: -8.534070885      2.666     10.171
REMARK  12 active torsions:
REMARK  status: ('A' for Active; 'I' for Inactive)
REMARK    1  A    between atoms: C16_21  and  O2_22
REMARK    2  A    between atoms: C18_24  and  O3_25
REMARK    3  A    between atoms: O3_25  and  C19_26
REMARK    4  A    between atoms: C19_26  and  C20_27
REMARK    5  A    between atoms: C20_27  and  O4_28
REMARK    6  A    between atoms: C20_27  and  C21_30
REMARK    7  A    between atoms: C21_30  and  N3_31
REMARK    8  A    between atoms: N3_31  and  C22_33
REMARK    9  A    between atoms: C22_33  and  C23_34
REMARK   10  A    between atoms: C23_34  and  N4_35
REMARK   11  A    between atoms: N4_35  and  C24_36
REMARK   12  A    between atoms: N4_35  and  C26_38
ROOT
HETATM    1  C1  UNL     1      18.582   3.880  23.100  1.00  0.00     0.018 C
HETATM    2  C2  UNL     1      18.767   4.935  22.516  1.00  0.00    -0.076 C
HETATM    3  C3  UNL     1      19.010   6.187  21.844  1.00  0.00     0.041 A
HETATM    4  C4  UNL     1      20.278   6.713  21.708  1.00  0.00     0.054 A
HETATM    5  C5  UNL     1      20.501   7.929  21.056  1.00  0.00     0.064 A
HETATM    6  N1  UNL     1      21.735   8.428  20.891  1.00  0.00    -0.321 N
ATOM      7  H1  UNL     1      22.526   7.913  21.279  1.00  0.00     0.169 HD
HETATM    8  C6  UNL     1      21.978   9.597  20.224  1.00  0.00     0.257 A
HETATM    9  O1  UNL     1      23.146   9.983  20.122  1.00  0.00    -0.267 OA
HETATM   10  C7  UNL     1      20.900  10.273  19.707  1.00  0.00     0.051 A
HETATM   11  C8  UNL     1      19.604   9.777  19.870  1.00  0.00    -0.012 A
HETATM   12  C9  UNL     1      19.394   8.578  20.558  1.00  0.00     0.067 A
HETATM   13  N2  UNL     1      18.161   8.061  20.693  1.00  0.00    -0.356 N
ATOM     14  H2  UNL     1      17.366   8.572  20.308  1.00  0.00     0.166 HD
HETATM   15  C10 UNL     1      17.940   6.868  21.331  1.00  0.00     0.024 A
HETATM   16  C11 UNL     1      16.539   6.341  21.422  1.00  0.00     0.070 C
HETATM   17  C12 UNL     1      18.407  10.498  19.418  1.00  0.00     0.047 C
HETATM   18  C13 UNL     1      18.582  11.570  18.435  1.00  0.00     0.044 C
HETATM   19  C14 UNL     1      19.963  12.048  18.252  1.00  0.00    -0.044 A
HETATM   20  C15 UNL     1      20.148  13.119  17.385  1.00  0.00     0.047 A
HETATM   21  C16 UNL     1      21.368  13.616  17.105  1.00  0.00     0.102 A
HETATM   22  C18 UNL     1      22.502  13.024  17.718  1.00  0.00     0.103 A
HETATM   23  C28 UNL     1      22.333  11.944  18.600  1.00  0.00     0.052 A
HETATM   24  C29 UNL     1      21.072  11.469  18.855  1.00  0.00    -0.011 A
ENDROOT
BRANCH  22  25
HETATM   25  O3  UNL     1      23.652  13.498  17.437  1.00  0.00    -0.345 OA
BRANCH  25  26
HETATM   26  C19 UNL     1      24.834  13.989  17.153  1.00  0.00     0.213 C
BRANCH  26  27
HETATM   27  C20 UNL     1      25.190  14.711  15.913  1.00  0.00     0.180 C
BRANCH  27  28
HETATM   28  O4  UNL     1      24.384  14.161  14.860  1.00  0.00    -0.388 OA
ATOM     29  H4  UNL     1      24.473  14.738  14.111  1.00  0.00     0.210 HD
ENDBRANCH  27  28
BRANCH  27  30
HETATM   30  C21 UNL     1      24.957  16.189  15.900  1.00  0.00     0.094 C
BRANCH  30  31
HETATM   31  N3  UNL     1      23.759  16.787  15.532  1.00  0.00    -0.375 N
ATOM     32  H3  UNL     1      22.906  16.227  15.542  1.00  0.00     0.164 HD
BRANCH  31  33
HETATM   33  C22 UNL     1      23.680  18.124  15.151  1.00  0.00     0.099 C
BRANCH  33  34
HETATM   34  C23 UNL     1      22.470  18.915  15.557  1.00  0.00     0.076 C
BRANCH  34  35
HETATM   35  N4  UNL     1      21.196  18.329  15.431  1.00  0.00    -0.292 NA
BRANCH  35  36
HETATM   36  C24 UNL     1      20.465  18.100  16.666  1.00  0.00     0.090 C
HETATM   37  C25 UNL     1      20.471  19.434  17.410  1.00  0.00     0.021 C
ENDBRANCH  35  36
BRANCH  35  38
HETATM   38  C26 UNL     1      20.343  19.023  14.462  1.00  0.00     0.090 C
HETATM   39  C27 UNL     1      19.235  18.107  14.072  1.00  0.00     0.021 C
ENDBRANCH  35  38
ENDBRANCH  34  35
ENDBRANCH  33  34
ENDBRANCH  31  33
ENDBRANCH  30  31
ENDBRANCH  27  30
ENDBRANCH  26  27
ENDBRANCH  25  26
ENDBRANCH  22  25
BRANCH  21  40
HETATM   40  O2  UNL     1      21.611  14.702  16.228  1.00  0.00    -0.353 OA
HETATM   41  C17 UNL     1      20.853  14.752  15.050  1.00  0.00     0.210 C
ENDBRANCH  21  40
TORSDOF 12
ENDMDL