MODEL 1
REMARK VINA RESULT: -9.802558131      0.000      0.000
REMARK  13 active torsions:
REMARK  status: ('A' for Active; 'I' for Inactive)
REMARK    1  A    between atoms: C7_7  and  C8_8
REMARK    2  A    between atoms: C8_8  and  C9_9
REMARK       I    between atoms: C9_9  and  N1_11
REMARK    3  A    between atoms: N1_11  and  C10_13
REMARK    4  A    between atoms: C11_18  and  C12_19
REMARK    5  A    between atoms: C12_19  and  C13_20
REMARK    6  A    between atoms: C13_20  and  C14_21
REMARK    7  A    between atoms: C14_21  and  C15_22
REMARK    8  A    between atoms: C15_22  and  C16_23
REMARK    9  A    between atoms: C19_26  and  N4_27
REMARK       I    between atoms: N4_27  and  C20_29
REMARK   10  A    between atoms: C20_29  and  C21_31
REMARK   11  A    between atoms: C21_31  and  S1_32
REMARK   12  A    between atoms: S1_32  and  C22_33
REMARK   13  A    between atoms: C22_33  and  C23_34
ROOT
HETATM    1  C15 UNL     1      17.138  22.271  19.701  1.00  0.00     0.058 C
ENDROOT
BRANCH   1   2
HETATM    2  C14 UNL     1      18.523  21.734  19.500  1.00  0.00     0.006 C
BRANCH   2   3
HETATM    3  C13 UNL     1      19.574  22.156  20.429  1.00  0.00     0.007 C
BRANCH   3   4
HETATM    4  C12 UNL     1      19.531  23.477  21.066  1.00  0.00     0.066 C
BRANCH   4   5
HETATM    5  C11 UNL     1      20.095  24.574  20.205  1.00  0.00     0.069 A
HETATM    6  N3  UNL     1      19.509  25.177  19.179  1.00  0.00    -0.296 N
HETATM    7  N2  UNL     1      20.098  26.098  18.548  1.00  0.00    -0.279 N
ATOM      8  H3  UNL     1      18.571  24.892  18.896  1.00  0.00     0.187 HD
HETATM    9  C10 UNL     1      21.333  26.456  18.937  1.00  0.00     0.167 A
ATOM     10  H2  UNL     1      19.646  26.560  17.760  1.00  0.00     0.189 HD
HETATM   11  S2  UNL     1      21.591  25.398  20.251  1.00  0.00    -0.038 SA
BRANCH   9  12
HETATM   12  N1  UNL     1      22.026  27.375  18.361  1.00  0.00    -0.306 N
HETATM   13  C9  UNL     1      22.256  27.566  17.011  1.00  0.00     0.227 C
HETATM   14  O1  UNL     1      22.001  28.716  16.508  1.00  0.00    -0.273 OA
ATOM     15  H1  UNL     1      22.466  28.052  18.985  1.00  0.00     0.171 HD
BRANCH  13  16
HETATM   16  C8  UNL     1      22.780  26.575  16.039  1.00  0.00     0.141 C
BRANCH  16  17
HETATM   17  C7  UNL     1      21.693  26.353  15.044  1.00  0.00    -0.048 A
HETATM   18  C6  UNL     1      20.646  25.505  15.269  1.00  0.00     0.014 A
HETATM   19  C4  UNL     1      19.641  25.317  14.322  1.00  0.00    -0.061 A
HETATM   20  C3  UNL     1      19.736  26.023  13.134  1.00  0.00     0.013 A
HETATM   21  C5  UNL     1      18.488  24.406  14.536  1.00  0.00     0.048 C
HETATM   22  C2  UNL     1      20.797  26.892  12.891  1.00  0.00    -0.061 A
HETATM   23  C1  UNL     1      20.865  27.636  11.598  1.00  0.00     0.048 C
HETATM   24  C25 UNL     1      21.772  27.053  13.846  1.00  0.00     0.014 A
ENDBRANCH  16  17
ENDBRANCH  13  16
ENDBRANCH   9  12
ENDBRANCH   4   5
ENDBRANCH   3   4
ENDBRANCH   2   3
ENDBRANCH   1   2
BRANCH   1  25
HETATM   25  C16 UNL     1      16.103  21.357  19.106  1.00  0.00     0.026 A
HETATM   26  C17 UNL     1      16.435  20.200  18.448  1.00  0.00     0.030 A
HETATM   27  C18 UNL     1      15.428  19.400  17.901  1.00  0.00     0.052 A
HETATM   28  C19 UNL     1      14.104  19.735  18.002  1.00  0.00     0.122 A
HETATM   29  N8  UNL     1      13.829  20.884  18.660  1.00  0.00    -0.285 N
HETATM   30  N9  UNL     1      14.779  21.641  19.177  1.00  0.00    -0.303 N
ATOM     31  H8  UNL     1      12.856  21.174  18.760  1.00  0.00     0.188 HD
ATOM     32  H9  UNL     1      14.499  22.494  19.660  1.00  0.00     0.186 HD
BRANCH  28  33
HETATM   33  N4  UNL     1      13.149  18.998  17.484  1.00  0.00    -0.311 N
HETATM   34  C20 UNL     1      11.793  19.361  17.702  1.00  0.00     0.232 C
HETATM   35  O2  UNL     1      11.278  19.307  18.873  1.00  0.00    -0.272 OA
ATOM     36  H4  UNL     1      13.379  18.172  16.930  1.00  0.00     0.170 HD
BRANCH  34  37
HETATM   37  C21 UNL     1      10.865  19.823  16.642  1.00  0.00     0.177 C
BRANCH  37  38
HETATM   38  S1  UNL     1      11.772  20.013  15.091  1.00  0.00    -0.152 SA
BRANCH  38  39
HETATM   39  C22 UNL     1      11.924  21.773  14.712  1.00  0.00     0.152 C
BRANCH  39  40
HETATM   40  C23 UNL     1      13.178  22.334  15.230  1.00  0.00     0.106 A
HETATM   41  N5  UNL     1      14.389  21.761  15.009  1.00  0.00    -0.339 N
HETATM   42  C24 UNL     1      15.324  22.499  15.607  1.00  0.00     0.198 A
ATOM     43  H5  UNL     1      14.554  20.908  14.474  1.00  0.00     0.168 HD
HETATM   44  N6  UNL     1      14.707  23.526  16.198  1.00  0.00    -0.295 N
HETATM   45  N7  UNL     1      13.407  23.415  15.961  1.00  0.00    -0.287 N
ATOM     46  H6  UNL     1      15.157  24.266  16.737  1.00  0.00     0.187 HD
ATOM     47  H7  UNL     1      12.692  24.063  16.293  1.00  0.00     0.188 HD
ENDBRANCH  39  40
ENDBRANCH  38  39
ENDBRANCH  37  38
ENDBRANCH  34  37
ENDBRANCH  28  33
ENDBRANCH   1  25
TORSDOF 13
ENDMDL