MODEL 3
REMARK VINA RESULT: -9.504639395      1.350      2.253
REMARK  11 active torsions:
REMARK  status: ('A' for Active; 'I' for Inactive)
REMARK    1  A    between atoms: C2_2  and  C3_3
REMARK    2  A    between atoms: C3_3  and  N1_4
REMARK    3  A    between atoms: N1_4  and  C4_5
REMARK    4  A    between atoms: N1_4  and  C7_8
REMARK    5  A    between atoms: C4_5  and  C5_6
REMARK    6  A    between atoms: C7_8  and  C8_9
REMARK    7  A    between atoms: C8_9  and  N2_10
REMARK       I    between atoms: N2_10  and  C9_12
REMARK    8  A    between atoms: C9_12  and  C10_14
REMARK    9  A    between atoms: C10_14  and  N3_15
REMARK   10  A    between atoms: C12_17  and  C13_18
REMARK   11  A    between atoms: C19_29  and  N5_30
ROOT
HETATM    1  N3  UNL     1      16.381  24.199  16.432  1.00  0.00    -0.314 N
HETATM    2  C11 UNL     1      15.229  23.821  15.878  1.00  0.00     0.107 A
HETATM    3  C12 UNL     1      14.440  22.776  16.366  1.00  0.00    -0.008 A
HETATM    4  C17 UNL     1      14.881  22.104  17.482  1.00  0.00    -0.006 A
HETATM    5  C18 UNL     1      14.157  21.075  18.051  1.00  0.00     0.043 A
HETATM    6  C19 UNL     1      14.602  20.433  19.173  1.00  0.00     0.040 A
HETATM    7  C23 UNL     1      15.788  20.845  19.712  1.00  0.00     0.037 A
HETATM    8  C24 UNL     1      16.577  21.866  19.210  1.00  0.00    -0.043 A
HETATM    9  C25 UNL     1      17.859  22.241  19.871  1.00  0.00     0.049 C
HETATM   10  C26 UNL     1      16.098  22.503  18.066  1.00  0.00     0.049 A
HETATM   11  C27 UNL     1      16.818  23.542  17.524  1.00  0.00     0.259 A
HETATM   12  O5  UNL     1      17.890  23.894  18.036  1.00  0.00    -0.267 OA
ENDROOT
BRANCH   1  13
HETATM   13  C10 UNL     1      17.158  25.311  15.866  1.00  0.00     0.234 C
BRANCH  13  14
HETATM   14  C9  UNL     1      18.302  24.823  15.086  1.00  0.00     0.235 C
HETATM   15  N2  UNL     1      19.612  24.814  15.612  1.00  0.00    -0.358 N
ATOM     16  H2  UNL     1      19.764  25.159  16.560  1.00  0.00     0.162 HD
HETATM   17  O1  UNL     1      18.138  24.394  13.909  1.00  0.00    -0.272 OA
BRANCH  15  18
HETATM   18  C8  UNL     1      20.754  24.330  14.852  1.00  0.00     0.142 C
BRANCH  18  19
HETATM   19  C7  UNL     1      21.389  25.483  14.106  1.00  0.00     0.136 C
BRANCH  19  20
HETATM   20  N1  UNL     1      21.413  26.643  14.912  1.00  0.00    -0.411 N
BRANCH  20  21
HETATM   21  C3  UNL     1      22.458  26.793  15.847  1.00  0.00     0.116 C
BRANCH  21  22
HETATM   22  C2  UNL     1      22.169  27.786  16.950  1.00  0.00     0.015 C
HETATM   23  C1  UNL     1      21.383  27.071  18.030  1.00  0.00     0.006 C
ENDBRANCH  21  22
ENDBRANCH  20  21
BRANCH  20  24
HETATM   24  C4  UNL     1      20.738  27.793  14.454  1.00  0.00     0.116 C
BRANCH  24  25
HETATM   25  C5  UNL     1      19.929  27.615  13.197  1.00  0.00     0.015 C
HETATM   26  C6  UNL     1      20.695  28.106  11.991  1.00  0.00     0.006 C
ENDBRANCH  24  25
ENDBRANCH  20  24
ENDBRANCH  19  20
ENDBRANCH  18  19
ENDBRANCH  15  18
ENDBRANCH  13  14
ENDBRANCH   1  13
BRANCH   3  27
HETATM   27  C13 UNL     1      13.178  22.436  15.728  1.00  0.00     0.038 C
HETATM   28  C14 UNL     1      12.952  21.460  14.902  1.00  0.00     0.079 C
HETATM   29  S1  UNL     1      11.328  21.119  14.165  1.00  0.00    -0.024 SA
HETATM   30  C16 UNL     1      13.781  20.452  14.299  1.00  0.00     0.266 C
HETATM   31  C15 UNL     1      11.707  19.367  13.845  1.00  0.00     0.291 C
HETATM   32  O2  UNL     1      10.881  18.433  13.746  1.00  0.00    -0.260 OA
HETATM   33  N4  UNL     1      13.120  19.357  13.748  1.00  0.00    -0.283 N
ATOM     34  H4  UNL     1      13.625  18.592  13.300  1.00  0.00     0.172 HD
HETATM   35  O3  UNL     1      15.064  20.563  14.273  1.00  0.00    -0.267 OA
ENDBRANCH   3  27
BRANCH   6  36
HETATM   36  N5  UNL     1      13.839  19.357  19.769  1.00  0.00    -0.298 N
HETATM   37  C20 UNL     1      13.131  18.291  19.099  1.00  0.00     0.153 C
HETATM   38  C21 UNL     1      11.977  18.021  20.029  1.00  0.00     0.144 C
HETATM   39  N6  UNL     1      12.497  18.352  21.356  1.00  0.00    -0.341 N
HETATM   40  C22 UNL     1      13.643  19.152  21.158  1.00  0.00     0.323 C
ATOM     41  H6  UNL     1      12.107  18.060  22.252  1.00  0.00     0.164 HD
HETATM   42  O4  UNL     1      14.374  19.613  22.057  1.00  0.00    -0.247 OA
ENDBRANCH   6  36
TORSDOF 11
ENDMDL