MODEL 4
REMARK VINA RESULT: -8.804066447      2.381      9.054
REMARK  13 active torsions:
REMARK  status: ('A' for Active; 'I' for Inactive)
REMARK    1  A    between atoms: C2_2  and  N1_3
REMARK    2  A    between atoms: C2_2  and  O4_39
REMARK    3  A    between atoms: C5_9  and  N3_10
REMARK    4  A    between atoms: C8_13  and  C9_14
REMARK    5  A    between atoms: N6_24  and  C14_25
REMARK    6  A    between atoms: C14_25  and  C15_26
REMARK    7  A    between atoms: C15_26  and  C16_27
REMARK    8  A    between atoms: N7_30  and  C19_31
REMARK    9  A    between atoms: C19_31  and  C20_32
REMARK   10  A    between atoms: C20_32  and  C21_33
REMARK   11  A    between atoms: C21_33  and  O2_34
REMARK   12  A    between atoms: O4_39  and  C24_40
REMARK   13  A    between atoms: C24_40  and  C25_41
ROOT
HETATM    1  N1  UNL     1      20.046  23.977  15.916  1.00  0.00    -0.346 N
ATOM      2  H1  UNL     1      20.552  23.468  16.641  1.00  0.00     0.163 HD
HETATM    3  C3  UNL     1      18.851  23.576  15.704  1.00  0.00     0.172 A
HETATM    4  N2  UNL     1      18.042  24.121  14.796  1.00  0.00    -0.344 N
ATOM      5  H2  UNL     1      18.371  24.900  14.226  1.00  0.00     0.167 HD
HETATM    6  C4  UNL     1      16.798  23.651  14.628  1.00  0.00     0.139 A
HETATM    7  C5  UNL     1      16.288  22.580  15.383  1.00  0.00     0.131 A
HETATM    8  N6  UNL     1      17.096  22.024  16.300  1.00  0.00    -0.296 N
HETATM    9  C23 UNL     1      18.336  22.508  16.452  1.00  0.00     0.293 A
HETATM   10  O3  UNL     1      19.109  22.008  17.300  1.00  0.00    -0.264 OA
ENDROOT
BRANCH   7  11
HETATM   11  N3  UNL     1      14.961  22.144  15.125  1.00  0.00    -0.292 N
HETATM   12  C6  UNL     1      14.658  21.034  14.247  1.00  0.00     0.177 A
HETATM   13  C7  UNL     1      13.178  20.922  14.213  1.00  0.00     0.018 A
HETATM   14  C8  UNL     1      12.176  20.191  13.659  1.00  0.00     0.039 A
HETATM   15  C12 UNL     1      12.655  21.896  15.034  1.00  0.00     0.126 A
HETATM   16  N4  UNL     1      11.015  20.724  14.145  1.00  0.00    -0.303 N
HETATM   17  N5  UNL     1      11.301  21.726  14.954  1.00  0.00    -0.295 N
ATOM     18  H4  UNL     1      10.075  20.398  13.919  1.00  0.00     0.186 HD
ATOM     19  H5  UNL     1      10.612  22.293  15.449  1.00  0.00     0.187 HD
HETATM   20  C13 UNL     1      13.735  22.671  15.615  1.00  0.00     0.278 A
HETATM   21  O1  UNL     1      13.592  23.648  16.421  1.00  0.00    -0.265 OA
BRANCH  14  22
HETATM   22  C9  UNL     1      12.230  19.043  12.715  1.00  0.00     0.029 C
HETATM   23  C10 UNL     1      11.782  17.775  13.389  1.00  0.00     0.016 C
HETATM   24  C11 UNL     1      11.276  19.275  11.536  1.00  0.00     0.016 C
ENDBRANCH  14  22
ENDBRANCH   7  11
BRANCH   8  25
HETATM   25  C14 UNL     1      16.685  20.920  17.155  1.00  0.00     0.134 C
BRANCH  25  26
HETATM   26  C15 UNL     1      16.115  21.368  18.468  1.00  0.00     0.027 C
BRANCH  26  27
HETATM   27  C16 UNL     1      14.664  21.002  18.635  1.00  0.00     0.017 C
HETATM   28  C17 UNL     1      14.473  20.443  20.042  1.00  0.00     0.036 C
HETATM   29  C18 UNL     1      14.601  18.956  19.773  1.00  0.00     0.273 C
HETATM   30  N7  UNL     1      13.941  18.788  18.545  1.00  0.00     0.088 N
HETATM   31  C22 UNL     1      14.201  19.928  17.734  1.00  0.00     0.277 C
BRANCH  30  32
HETATM   32  C19 UNL     1      12.612  18.288  18.557  1.00  0.00     0.274 C
BRANCH  32  33
HETATM   33  C20 UNL     1      11.944  18.784  17.266  1.00  0.00     0.056 C
BRANCH  33  34
HETATM   34  C21 UNL     1      10.482  18.972  17.575  1.00  0.00     0.165 C
BRANCH  34  35
HETATM   35  O2  UNL     1      10.133  20.264  17.247  1.00  0.00    -0.401 OA
ATOM     36  H2  UNL     1       9.282  20.447  17.626  1.00  0.00     0.209 HD
ENDBRANCH  34  35
ENDBRANCH  33  34
ENDBRANCH  32  33
ENDBRANCH  30  32
ENDBRANCH  26  27
ENDBRANCH  25  26
ENDBRANCH   8  25
BRANCH   1  37
HETATM   37  C2  UNL     1      20.773  25.024  15.294  1.00  0.00     0.218 C
HETATM   38  C1  UNL     1      21.201  24.667  13.880  1.00  0.00     0.063 C
BRANCH  37  39
HETATM   39  O4  UNL     1      19.898  26.140  15.258  1.00  0.00    -0.363 OA
BRANCH  39  40
HETATM   40  C24 UNL     1      20.570  27.312  15.489  1.00  0.00     0.204 C
BRANCH  40  41
HETATM   41  C25 UNL     1      21.306  27.272  16.778  1.00  0.00    -0.060 C
HETATM   42  C26 UNL     1      20.706  27.068  17.967  1.00  0.00    -0.022 C
HETATM   43  C27 UNL     1      21.739  27.087  19.059  1.00  0.00     0.028 C
HETATM   44  C28 UNL     1      23.007  26.708  18.285  1.00  0.00     0.008 C
HETATM   45  C29 UNL     1      22.762  27.456  16.993  1.00  0.00     0.036 C
ENDBRANCH  40  41
ENDBRANCH  39  40
ENDBRANCH  37  39
ENDBRANCH   1  37
TORSDOF 13
ENDMDL