MODEL 5
REMARK VINA RESULT: -8.804237107      2.902      8.086
REMARK  10 active torsions:
REMARK  status: ('A' for Active; 'I' for Inactive)
REMARK    1  A    between atoms: C2_2  and  C3_3
REMARK    2  A    between atoms: C3_3  and  C4_4
REMARK    3  A    between atoms: C4_4  and  C5_5
REMARK    4  A    between atoms: C5_5  and  C6_6
REMARK    5  A    between atoms: C7_7  and  C8_8
REMARK    6  A    between atoms: C8_8  and  C9_9
REMARK    7  A    between atoms: C9_9  and  C10_10
REMARK    8  A    between atoms: C10_10  and  N1_11
REMARK    9  A    between atoms: C20_27  and  C21_28
REMARK   10  A    between atoms: C21_28  and  C22_29
ROOT
HETATM    1  N1  UNL     1      18.818  23.183  19.238  1.00  0.00    -0.332 N
HETATM    2  C11 UNL     1      18.810  23.346  17.799  1.00  0.00     0.153 C
HETATM    3  C12 UNL     1      18.767  24.748  17.313  1.00  0.00     0.187 C
HETATM    4  O1  UNL     1      17.996  24.836  16.142  1.00  0.00    -0.387 OA
HETATM    5  C13 UNL     1      18.854  25.345  15.172  1.00  0.00     0.193 C
HETATM    6  C14 UNL     1      18.191  25.997  14.013  1.00  0.00     0.193 C
HETATM    7  O2  UNL     1      18.826  27.211  13.756  1.00  0.00    -0.387 OA
HETATM    8  C15 UNL     1      20.213  27.107  13.705  1.00  0.00     0.193 C
HETATM    9  C16 UNL     1      20.919  28.104  14.567  1.00  0.00     0.193 C
HETATM   10  O3  UNL     1      22.010  27.455  15.183  1.00  0.00    -0.387 OA
HETATM   11  C17 UNL     1      22.080  27.758  16.530  1.00  0.00     0.187 C
HETATM   12  C18 UNL     1      22.682  26.633  17.366  1.00  0.00     0.148 C
HETATM   13  N2  UNL     1      22.601  27.075  18.742  1.00  0.00    -0.357 N
ATOM     14  H2  UNL     1      23.339  27.699  19.068  1.00  0.00     0.162 HD
HETATM   15  C19 UNL     1      21.609  26.732  19.671  1.00  0.00     0.240 C
HETATM   16  O4  UNL     1      21.026  27.649  20.353  1.00  0.00    -0.271 OA
HETATM   17  C20 UNL     1      21.132  25.354  19.969  1.00  0.00     0.182 C
HETATM   18  N3  UNL     1      19.716  25.377  20.156  1.00  0.00    -0.329 N
ATOM     19  H3  UNL     1      19.284  26.293  20.281  1.00  0.00     0.165 HD
HETATM   20  C29 UNL     1      18.846  24.246  20.185  1.00  0.00     0.319 C
HETATM   21  O7  UNL     1      18.001  24.177  21.163  1.00  0.00    -0.247 OA
ENDROOT
BRANCH   1  22
HETATM   22  C10 UNL     1      18.788  21.821  19.736  1.00  0.00     0.128 C
BRANCH  22  23
HETATM   23  C9  UNL     1      17.689  21.004  19.047  1.00  0.00     0.023 C
BRANCH  23  24
HETATM   24  C8  UNL     1      16.409  21.427  19.689  1.00  0.00     0.028 C
BRANCH  24  25
HETATM   25  C7  UNL     1      15.271  21.855  18.913  1.00  0.00    -0.031 C
HETATM   26  C6  UNL     1      14.031  21.218  18.577  1.00  0.00    -0.031 C
BRANCH  26  27
HETATM   27  C5  UNL     1      13.764  19.937  17.937  1.00  0.00     0.027 C
BRANCH  27  28
HETATM   28  C4  UNL     1      13.813  18.738  18.789  1.00  0.00     0.004 C
BRANCH  28  29
HETATM   29  C3  UNL     1      12.751  18.699  19.881  1.00  0.00    -0.000 C
BRANCH  29  30
HETATM   30  C2  UNL     1      13.382  18.230  21.149  1.00  0.00    -0.005 C
HETATM   31  C1  UNL     1      14.212  19.380  21.722  1.00  0.00     0.005 C
ENDBRANCH  29  30
ENDBRANCH  28  29
ENDBRANCH  27  28
ENDBRANCH  26  27
ENDBRANCH  24  25
ENDBRANCH  23  24
ENDBRANCH  22  23
ENDBRANCH   1  22
BRANCH  17  32
HETATM   32  C21 UNL     1      21.904  24.731  21.119  1.00  0.00     0.073 C
BRANCH  32  33
HETATM   33  C22 UNL     1      23.244  24.264  20.756  1.00  0.00    -0.053 A
HETATM   34  C23 UNL     1      24.383  24.842  21.251  1.00  0.00     0.010 A
HETATM   35  C24 UNL     1      25.652  24.419  20.918  1.00  0.00     0.040 A
HETATM   36  C25 UNL     1      25.791  23.374  20.057  1.00  0.00     0.105 A
HETATM   37  C26 UNL     1      24.664  22.764  19.536  1.00  0.00     0.105 A
HETATM   38  O6  UNL     1      26.914  22.726  19.536  1.00  0.00    -0.323 OA
HETATM   39  C27 UNL     1      23.380  23.206  19.883  1.00  0.00     0.047 A
HETATM   40  O5  UNL     1      25.097  21.751  18.703  1.00  0.00    -0.323 OA
HETATM   41  C28 UNL     1      26.466  21.501  19.034  1.00  0.00     0.352 C
ENDBRANCH  32  33
ENDBRANCH  17  32
TORSDOF 10
ENDMDL