MODEL 3
REMARK VINA RESULT: -8.965555146      1.486      2.034
REMARK  12 active torsions:
REMARK  status: ('A' for Active; 'I' for Inactive)
REMARK    1  A    between atoms: C2_2  and  N1_3
REMARK    2  A    between atoms: N1_3  and  C3_4
REMARK    3  A    between atoms: N1_3  and  C5_6
REMARK    4  A    between atoms: C5_6  and  C6_7
REMARK    5  A    between atoms: C6_7  and  N2_8
REMARK    6  A    between atoms: C9_14  and  C10_15
REMARK    7  A    between atoms: C10_15  and  C11_16
REMARK    8  A    between atoms: C14_25  and  O3_26
REMARK    9  A    between atoms: C16_28  and  N6_29
REMARK   10  A    between atoms: N6_29  and  C17_31
REMARK   11  A    between atoms: C20_36  and  C21_37
REMARK   12  A    between atoms: C23_39  and  O4_40
ROOT
HETATM    1  N2  UNL     1      16.907  25.479  15.701  1.00  0.00    -0.373 N
ATOM      2  H2  UNL     1      15.961  25.104  15.625  1.00  0.00     0.161 HD
HETATM    3  C7  UNL     1      17.626  25.086  16.677  1.00  0.00     0.131 A
HETATM    4  N3  UNL     1      18.864  25.474  16.903  1.00  0.00    -0.350 N
ATOM      5  H3  UNL     1      19.280  26.113  16.225  1.00  0.00     0.166 HD
HETATM    6  C8  UNL     1      19.638  25.104  17.954  1.00  0.00     0.100 A
HETATM    7  C9  UNL     1      19.141  24.255  18.890  1.00  0.00    -0.001 A
HETATM    8  C14 UNL     1      17.814  23.810  18.689  1.00  0.00     0.106 A
HETATM    9  C16 UNL     1      17.050  24.199  17.618  1.00  0.00     0.112 A
ENDROOT
BRANCH   9  10
HETATM   10  N6  UNL     1      15.721  23.784  17.427  1.00  0.00    -0.337 N
ATOM     11  H6  UNL     1      15.014  24.476  17.676  1.00  0.00     0.167 HD
BRANCH  10  12
HETATM   12  C17 UNL     1      15.261  22.676  16.990  1.00  0.00     0.108 A
HETATM   13  C18 UNL     1      15.532  22.245  15.685  1.00  0.00     0.065 A
HETATM   14  C19 UNL     1      15.031  21.022  15.308  1.00  0.00     0.093 A
HETATM   15  N7  UNL     1      14.312  20.285  16.172  1.00  0.00    -0.351 N
HETATM   16  C20 UNL     1      14.041  20.692  17.445  1.00  0.00     0.117 A
ATOM     17  H7  UNL     1      13.954  19.381  15.862  1.00  0.00     0.166 HD
HETATM   18  N8  UNL     1      14.533  21.869  17.781  1.00  0.00    -0.328 N
ATOM     19  H8  UNL     1      14.344  22.197  18.728  1.00  0.00     0.169 HD
BRANCH  16  20
HETATM   20  C21 UNL     1      13.297  19.830  18.360  1.00  0.00     0.017 A
HETATM   21  C22 UNL     1      13.834  19.355  19.533  1.00  0.00     0.052 A
HETATM   22  C23 UNL     1      13.102  18.525  20.395  1.00  0.00     0.069 A
HETATM   23  C25 UNL     1      11.829  18.156  20.100  1.00  0.00     0.037 A
HETATM   24  C26 UNL     1      11.269  18.621  18.925  1.00  0.00     0.010 A
HETATM   25  C27 UNL     1      12.004  19.457  18.058  1.00  0.00    -0.048 A
HETATM   26  C28 UNL     1      11.368  19.885  16.792  1.00  0.00     0.049 C
BRANCH  22  27
HETATM   27  O4  UNL     1      13.702  18.085  21.557  1.00  0.00    -0.356 OA
HETATM   28  C24 UNL     1      13.499  16.872  22.203  1.00  0.00     0.210 C
ENDBRANCH  22  27
ENDBRANCH  16  20
ENDBRANCH  10  12
ENDBRANCH   9  10
BRANCH   8  29
HETATM   29  O3  UNL     1      17.281  22.937  19.653  1.00  0.00    -0.353 OA
HETATM   30  C15 UNL     1      17.467  21.535  19.607  1.00  0.00     0.210 C
ENDBRANCH   8  29
BRANCH   1  31
HETATM   31  C6  UNL     1      17.335  26.402  14.717  1.00  0.00     0.151 C
BRANCH  31  32
HETATM   32  C5  UNL     1      18.318  25.891  13.707  1.00  0.00     0.292 C
BRANCH  32  33
HETATM   33  N1  UNL     1      19.652  26.381  13.822  1.00  0.00     0.089 N
BRANCH  33  34
HETATM   34  C2  UNL     1      19.849  27.692  13.247  1.00  0.00     0.268 C
HETATM   35  C1  UNL     1      20.901  27.760  12.189  1.00  0.00     0.037 C
ENDBRANCH  33  34
BRANCH  33  36
HETATM   36  C3  UNL     1      20.498  25.401  13.112  1.00  0.00     0.268 C
HETATM   37  C4  UNL     1      21.269  24.535  14.056  1.00  0.00     0.037 C
ENDBRANCH  33  36
ENDBRANCH  32  33
ENDBRANCH  31  32
ENDBRANCH   1  31
BRANCH   7  38
HETATM   38  C10 UNL     1      19.792  23.724  20.073  1.00  0.00     0.106 C
BRANCH  38  39
HETATM   39  C11 UNL     1      21.225  23.890  20.243  1.00  0.00     0.086 A
HETATM   40  N4  UNL     1      22.191  23.220  19.750  1.00  0.00    -0.307 N
HETATM   41  C12 UNL     1      23.448  23.695  20.159  1.00  0.00     0.327 A
ATOM     42  H4  UNL     1      22.065  22.424  19.125  1.00  0.00     0.170 HD
HETATM   43  O1  UNL     1      24.624  23.301  19.887  1.00  0.00    -0.247 OA
HETATM   44  N5  UNL     1      23.237  24.806  21.019  1.00  0.00    -0.274 N
HETATM   45  C13 UNL     1      21.820  24.956  21.092  1.00  0.00     0.272 A
ATOM     46  H5  UNL     1      23.945  25.373  21.483  1.00  0.00     0.173 HD
HETATM   47  O2  UNL     1      21.175  25.810  21.740  1.00  0.00    -0.266 OA
ENDBRANCH  38  39
ENDBRANCH   7  38
TORSDOF 12
ENDMDL