MODEL 2
REMARK VINA RESULT: -6.356679846      5.954     10.203
REMARK  11 active torsions:
REMARK  status: ('A' for Active; 'I' for Inactive)
REMARK    1  A    between atoms: C2_2  and  C3_3
REMARK    2  A    between atoms: C3_3  and  C4_4
REMARK    3  A    between atoms: C3_3  and  C6_6
REMARK    4  A    between atoms: C8_11  and  C9_12
REMARK    5  A    between atoms: C9_12  and  C10_13
REMARK    6  A    between atoms: C10_13  and  C11_14
REMARK    7  A    between atoms: C11_14  and  N2_15
REMARK       I    between atoms: N2_15  and  C12_17
REMARK    8  A    between atoms: C20_34  and  C21_35
REMARK    9  A    between atoms: C21_35  and  C22_36
REMARK   10  A    between atoms: C22_36  and  S1_37
REMARK   11  A    between atoms: N9_39  and  C24_40
ROOT
HETATM    1  C6  UNL     1      24.592  24.753  19.476  1.00  0.00     0.069 C
HETATM    2  N1  UNL     1      24.078  26.078  19.203  1.00  0.00    -0.320 N
ATOM      3  H1  UNL     1      24.722  26.868  19.159  1.00  0.00     0.169 HD
HETATM    4  C7  UNL     1      22.661  26.299  18.992  1.00  0.00     0.268 C
HETATM    5  O1  UNL     1      22.106  27.269  19.558  1.00  0.00    -0.266 OA
HETATM    6  C8  UNL     1      21.876  25.405  18.127  1.00  0.00     0.078 C
HETATM    7  N5  UNL     1      21.059  24.454  18.663  1.00  0.00    -0.351 N
ATOM      8  H5  UNL     1      20.302  24.463  17.980  1.00  0.00     0.166 HD
HETATM    9  C13 UNL     1      20.644  23.596  19.432  1.00  0.00     0.097 A
HETATM   10  C14 UNL     1      19.414  22.999  19.120  1.00  0.00    -0.029 A
HETATM   11  C15 UNL     1      18.588  23.391  17.924  1.00  0.00     0.050 C
HETATM   12  C16 UNL     1      18.844  22.003  19.872  1.00  0.00     0.026 A
HETATM   13  C17 UNL     1      19.547  21.593  20.986  1.00  0.00     0.091 A
HETATM   14  N6  UNL     1      20.669  22.163  21.242  1.00  0.00    -0.339 N
ATOM     15  H6  UNL     1      21.136  21.812  22.079  1.00  0.00     0.168 HD
HETATM   16  C18 UNL     1      21.347  23.149  20.598  1.00  0.00     0.208 A
HETATM   17  N7  UNL     1      22.409  23.643  20.939  1.00  0.00    -0.364 NA
HETATM   18  C19 UNL     1      23.542  23.936  21.590  1.00  0.00     0.212 A
HETATM   19  N8  UNL     1      23.939  23.861  22.883  1.00  0.00    -0.319 N
ATOM     20  H8  UNL     1      23.365  23.500  23.645  1.00  0.00     0.169 HD
HETATM   21  C20 UNL     1      25.176  24.320  23.023  1.00  0.00     0.087 A
HETATM   22  N9  UNL     1      25.641  24.719  21.832  1.00  0.00    -0.327 N
HETATM   23  C27 UNL     1      24.683  24.500  20.924  1.00  0.00     0.122 A
ENDROOT
BRANCH   6  24
HETATM   24  C9  UNL     1      21.251  26.203  16.961  1.00  0.00     0.064 C
BRANCH  24  25
HETATM   25  C10 UNL     1      22.173  26.983  16.133  1.00  0.00     0.026 C
BRANCH  25  26
HETATM   26  C11 UNL     1      21.336  28.087  15.439  1.00  0.00     0.122 C
BRANCH  26  27
HETATM   27  N2  UNL     1      21.588  27.909  14.024  1.00  0.00    -0.367 N
HETATM   28  C12 UNL     1      20.680  27.564  13.197  1.00  0.00     0.196 C
HETATM   29  N3  UNL     1      19.364  27.344  13.682  1.00  0.00    -0.067 NA
HETATM   30  N4  UNL     1      20.939  27.393  11.813  1.00  0.00    -0.067 NA
ATOM     31  H2  UNL     1      22.532  28.067  13.674  1.00  0.00     0.161 HD
ENDBRANCH  26  27
ENDBRANCH  25  26
ENDBRANCH  24  25
ENDBRANCH   6  24
BRANCH   1  32
HETATM   32  C3  UNL     1      25.546  24.192  18.502  1.00  0.00    -0.051 C
BRANCH  32  33
HETATM   33  C2  UNL     1      26.242  22.978  19.015  1.00  0.00     0.032 C
HETATM   34  C1  UNL     1      25.517  21.690  18.731  1.00  0.00     0.010 C
ENDBRANCH  32  33
BRANCH  32  35
HETATM   35  C4  UNL     1      26.261  25.100  17.581  1.00  0.00     0.032 C
HETATM   36  C5  UNL     1      27.747  25.239  17.754  1.00  0.00     0.010 C
ENDBRANCH  32  35
ENDBRANCH   1  32
BRANCH  22  37
HETATM   37  C24 UNL     1      26.914  25.413  21.586  1.00  0.00     0.083 C
HETATM   38  C25 UNL     1      26.913  26.803  22.261  1.00  0.00     0.032 C
HETATM   39  C26 UNL     1      28.127  24.691  22.031  1.00  0.00     0.032 C
ENDBRANCH  22  37
BRANCH  21  40
HETATM   40  C21 UNL     1      25.831  24.412  24.375  1.00  0.00     0.087 C
BRANCH  40  41
HETATM   41  C22 UNL     1      25.191  25.456  25.240  1.00  0.00     0.081 C
BRANCH  41  42
HETATM   42  S1  UNL     1      26.216  26.641  26.054  1.00  0.00    -0.173 SA
HETATM   43  C23 UNL     1      27.975  26.320  25.903  1.00  0.00     0.089 C
ENDBRANCH  41  42
ENDBRANCH  40  41
ENDBRANCH  21  40
TORSDOF 11
ENDMDL