MODEL 5
REMARK VINA RESULT: -9.464632606      1.248      1.582
REMARK  10 active torsions:
REMARK  status: ('A' for Active; 'I' for Inactive)
REMARK    1  A    between atoms: C2_2  and  C3_3
REMARK    2  A    between atoms: C3_3  and  C4_4
REMARK    3  A    between atoms: C4_4  and  C5_5
REMARK    4  A    between atoms: C5_5  and  C6_6
REMARK    5  A    between atoms: C6_6  and  N1_7
REMARK    6  A    between atoms: C8_9  and  C9_10
REMARK       I    between atoms: C9_10  and  N2_12
REMARK    7  A    between atoms: N2_12  and  C10_14
REMARK    8  A    between atoms: C11_15  and  N3_16
REMARK       I    between atoms: N3_16  and  C12_18
REMARK       I    between atoms: C12_18  and  N4_20
REMARK    9  A    between atoms: C15_24  and  N5_25
REMARK   10  A    between atoms: C20_34  and  N8_35
ROOT
HETATM    1  N3  UNL     1      14.836  22.549  16.457  1.00  0.00    -0.318 N
ATOM      2  H3  UNL     1      15.122  21.582  16.303  1.00  0.00     0.170 HD
HETATM    3  C12 UNL     1      13.842  23.037  15.526  1.00  0.00     0.324 C
HETATM    4  O2  UNL     1      13.415  24.187  15.643  1.00  0.00    -0.247 OA
HETATM    5  N4  UNL     1      13.388  22.187  14.504  1.00  0.00    -0.308 N
ATOM      6  H4  UNL     1      13.501  22.469  13.531  1.00  0.00     0.170 HD
HETATM    7  C13 UNL     1      12.838  21.070  14.773  1.00  0.00     0.043 A
HETATM    8  C14 UNL     1      12.618  20.586  16.033  1.00  0.00     0.080 A
HETATM    9  C15 UNL     1      12.174  19.283  16.268  1.00  0.00     0.130 A
HETATM   10  N7  UNL     1      11.964  18.497  15.198  1.00  0.00    -0.324 N
ATOM     11  H7  UNL     1      11.638  17.542  15.345  1.00  0.00     0.169 HD
HETATM   12  C20 UNL     1      12.170  18.929  13.930  1.00  0.00     0.149 A
HETATM   13  C24 UNL     1      12.603  20.214  13.706  1.00  0.00     0.082 A
ENDROOT
BRANCH   1  14
HETATM   14  C11 UNL     1      15.463  23.169  17.517  1.00  0.00     0.110 C
HETATM   15  C10 UNL     1      16.001  24.207  18.267  1.00  0.00     0.108 C
BRANCH  15  16
HETATM   16  N2  UNL     1      17.147  24.997  17.827  1.00  0.00    -0.332 N
HETATM   17  C9  UNL     1      18.435  24.624  18.199  1.00  0.00     0.259 C
HETATM   18  O1  UNL     1      18.646  23.628  18.960  1.00  0.00    -0.267 OA
ATOM     19  H2  UNL     1      17.004  25.823  17.246  1.00  0.00     0.168 HD
BRANCH  17  20
HETATM   20  C8  UNL     1      19.578  25.391  17.683  1.00  0.00     0.073 A
HETATM   21  C7  UNL     1      19.524  26.336  16.635  1.00  0.00     0.129 A
HETATM   22  N1  UNL     1      20.717  26.928  16.513  1.00  0.00    -0.300 N
HETATM   23  N11 UNL     1      21.505  26.400  17.426  1.00  0.00    -0.298 N
HETATM   24  C25 UNL     1      20.850  25.455  18.155  1.00  0.00     0.041 A
HETATM   25  C27 UNL     1      22.879  26.873  17.644  1.00  0.00     0.178 C
HETATM   26  C26 UNL     1      21.458  24.595  19.234  1.00  0.00     0.071 C
BRANCH  22  27
HETATM   27  C6  UNL     1      21.056  27.973  15.551  1.00  0.00     0.148 C
BRANCH  27  28
HETATM   28  C5  UNL     1      20.100  27.894  14.381  1.00  0.00     0.022 C
BRANCH  28  29
HETATM   29  C4  UNL     1      20.792  27.753  13.054  1.00  0.00     0.002 C
BRANCH  29  30
HETATM   30  C3  UNL     1      20.595  26.462  12.372  1.00  0.00    -0.000 C
BRANCH  30  31
HETATM   31  C2  UNL     1      20.099  25.392  13.314  1.00  0.00    -0.005 C
HETATM   32  C1  UNL     1      21.228  24.573  13.851  1.00  0.00     0.005 C
ENDBRANCH  30  31
ENDBRANCH  29  30
ENDBRANCH  28  29
ENDBRANCH  27  28
ENDBRANCH  22  27
ENDBRANCH  17  20
ENDBRANCH  15  16
ENDBRANCH   1  14
BRANCH   9  33
HETATM   33  N5  UNL     1      11.960  18.887  17.621  1.00  0.00    -0.251 N
HETATM   34  C16 UNL     1      10.842  18.225  18.042  1.00  0.00     0.120 A
HETATM   35  C17 UNL     1      10.945  17.989  19.404  1.00  0.00     0.045 A
HETATM   36  C18 UNL     1      12.168  18.541  19.759  1.00  0.00     0.024 A
HETATM   37  C19 UNL     1      12.822  18.605  21.082  1.00  0.00     0.070 C
HETATM   38  N6  UNL     1      12.711  19.052  18.649  1.00  0.00    -0.297 N
ATOM     39  H6  UNL     1      13.617  19.518  18.623  1.00  0.00     0.187 HD
ENDBRANCH   9  33
BRANCH  12  40
HETATM   40  N8  UNL     1      11.991  18.081  12.794  1.00  0.00    -0.180 N
HETATM   41  N9  UNL     1      11.009  18.290  11.855  1.00  0.00    -0.287 N
HETATM   42  C21 UNL     1      11.154  17.247  10.988  1.00  0.00     0.135 A
ATOM     43  H9  UNL     1      10.330  19.050  11.815  1.00  0.00     0.188 HD
HETATM   44  C22 UNL     1      12.197  16.454  11.412  1.00  0.00     0.041 A
HETATM   45  C23 UNL     1      12.658  15.193  10.713  1.00  0.00     0.071 C
HETATM   46  N10 UNL     1      12.654  17.020  12.507  1.00  0.00    -0.281 N
ATOM     47  H10 UNL     1      13.435  16.662  13.057  1.00  0.00     0.189 HD
ENDBRANCH  12  40
TORSDOF 10
ENDMDL