MODEL 3
REMARK VINA RESULT: -8.246021790      1.331      1.534
REMARK  15 active torsions:
REMARK  status: ('A' for Active; 'I' for Inactive)
REMARK    1  A    between atoms: C3_3  and  C4_4
REMARK    2  A    between atoms: C5_5  and  C6_6
REMARK       I    between atoms: C6_6  and  N1_8
REMARK    3  A    between atoms: C7_10  and  C8_11
REMARK    4  A    between atoms: C12_15  and  O2_16
REMARK    5  A    between atoms: C17_23  and  C18_24
REMARK    6  A    between atoms: C22_29  and  C23_30
REMARK    7  A    between atoms: C23_30  and  O5_31
REMARK    8  A    between atoms: O5_31  and  C24_32
REMARK    9  A    between atoms: C24_32  and  C25_34
REMARK   10  A    between atoms: C25_34  and  N2_35
REMARK   11  A    between atoms: C25_34  and  C26_39
REMARK   12  A    between atoms: C26_39  and  C27_40
REMARK   13  A    between atoms: C27_40  and  C28_41
REMARK   14  A    between atoms: C28_41  and  C29_42
REMARK   15  A    between atoms: C29_42  and  N3_43
ROOT
HETATM    1  C4  UNL     1      16.728  22.034  16.727  1.00  0.00     0.030 C
HETATM    2  C5  UNL     1      15.926  23.165  16.136  1.00  0.00     0.091 C
HETATM    3  C15 UNL     1      14.443  23.019  16.518  1.00  0.00     0.007 C
HETATM    4  C16 UNL     1      13.521  23.666  15.554  1.00  0.00     0.011 C
HETATM    5  C17 UNL     1      14.099  21.512  16.748  1.00  0.00     0.072 C
HETATM    6  C20 UNL     1      14.747  21.188  18.016  1.00  0.00    -0.001 A
HETATM    7  C21 UNL     1      14.032  22.025  19.131  1.00  0.00     0.021 C
HETATM    8  C22 UNL     1      15.149  19.888  18.486  1.00  0.00    -0.049 A
HETATM    9  C30 UNL     1      16.456  20.257  18.469  1.00  0.00    -0.014 A
HETATM   10  C31 UNL     1      16.212  21.605  18.033  1.00  0.00     0.030 A
ENDROOT
BRANCH   8  11
HETATM   11  C23 UNL     1      14.569  18.631  18.973  1.00  0.00     0.213 C
BRANCH  11  12
HETATM   12  O5  UNL     1      13.428  18.250  18.329  1.00  0.00    -0.316 OA
BRANCH  12  13
HETATM   13  C24 UNL     1      12.207  18.681  18.848  1.00  0.00     0.289 C
HETATM   14  O6  UNL     1      12.103  18.932  20.074  1.00  0.00    -0.263 OA
BRANCH  13  15
HETATM   15  C25 UNL     1      11.001  18.858  17.994  1.00  0.00     0.282 C
BRANCH  15  16
HETATM   16  N2  UNL     1      11.002  20.179  17.447  1.00  0.00    -0.066 N
ATOM     17  H23 UNL     1      10.900  20.896  18.165  1.00  0.00     0.275 HD
ATOM     18  H22 UNL     1      11.920  20.454  17.100  1.00  0.00     0.275 HD
ATOM     19  H21 UNL     1      10.281  20.245  16.729  1.00  0.00     0.275 HD
ENDBRANCH  15  16
BRANCH  15  20
HETATM   20  C26 UNL     1      11.091  17.835  16.895  1.00  0.00     0.043 C
BRANCH  20  21
HETATM   21  C27 UNL     1      10.557  16.489  17.180  1.00  0.00     0.004 C
BRANCH  21  22
HETATM   22  C28 UNL     1      10.330  15.570  16.016  1.00  0.00     0.027 C
BRANCH  22  23
HETATM   23  C29 UNL     1      10.515  16.251  14.677  1.00  0.00     0.229 C
BRANCH  23  24
HETATM   24  N3  UNL     1      11.564  15.657  13.905  1.00  0.00    -0.079 N
ATOM     25  H33 UNL     1      12.128  16.370  13.442  1.00  0.00     0.274 HD
ATOM     26  H32 UNL     1      12.278  15.249  14.507  1.00  0.00     0.274 HD
ATOM     27  H31 UNL     1      11.212  14.973  13.235  1.00  0.00     0.274 HD
ENDBRANCH  23  24
ENDBRANCH  22  23
ENDBRANCH  21  22
ENDBRANCH  20  21
ENDBRANCH  15  20
ENDBRANCH  13  15
ENDBRANCH  12  13
ENDBRANCH  11  12
ENDBRANCH   8  11
BRANCH   5  28
HETATM   28  C18 UNL     1      14.247  20.841  15.495  1.00  0.00     0.128 C
HETATM   29  C19 UNL     1      15.075  21.107  14.315  1.00  0.00     0.091 C
HETATM   30  O4  UNL     1      13.546  19.792  15.321  1.00  0.00    -0.298 OA
ENDBRANCH   5  28
BRANCH   1  31
HETATM   31  C3  UNL     1      18.151  22.419  16.822  1.00  0.00    -0.025 C
HETATM   32  C2  UNL     1      18.716  22.821  17.942  1.00  0.00    -0.035 C
HETATM   33  C1  UNL     1      20.172  23.184  17.908  1.00  0.00     0.036 C
ENDBRANCH   1  31
BRANCH   2  34
HETATM   34  C6  UNL     1      16.397  24.509  16.543  1.00  0.00     0.226 C
HETATM   35  O1  UNL     1      16.383  24.954  17.696  1.00  0.00    -0.273 OA
HETATM   36  N1  UNL     1      16.926  25.428  15.550  1.00  0.00    -0.340 N
HETATM   37  C7  UNL     1      18.214  25.538  15.407  1.00  0.00     0.069 C
ATOM     38  H1  UNL     1      16.294  25.981  14.970  1.00  0.00     0.167 HD
BRANCH  37  39
HETATM   39  C8  UNL     1      18.813  26.446  14.422  1.00  0.00     0.038 C
HETATM   40  C9  UNL     1      18.965  25.727  13.077  1.00  0.00     0.023 C
HETATM   41  C10 UNL     1      20.452  25.734  12.781  1.00  0.00     0.059 C
HETATM   42  C11 UNL     1      21.075  24.770  13.766  1.00  0.00     0.044 C
HETATM   43  C14 UNL     1      20.808  27.038  13.405  1.00  0.00     0.138 C
HETATM   44  C12 UNL     1      20.935  25.506  15.099  1.00  0.00     0.131 C
HETATM   45  C13 UNL     1      20.241  26.813  14.763  1.00  0.00     0.093 C
HETATM   46  O3  UNL     1      21.378  28.002  12.977  1.00  0.00    -0.297 OA
BRANCH  44  47
HETATM   47  O2  UNL     1      22.191  25.809  15.617  1.00  0.00    -0.395 OA
ATOM     48  H2  UNL     1      22.113  26.117  16.512  1.00  0.00     0.210 HD
ENDBRANCH  44  47
ENDBRANCH  37  39
ENDBRANCH   2  34
TORSDOF 15
ENDMDL