MODEL 5
REMARK VINA RESULT: -8.673846384      3.105      7.428
REMARK  13 active torsions:
REMARK  status: ('A' for Active; 'I' for Inactive)
REMARK       I    between atoms: C2_2  and  N1_4
REMARK    1  A    between atoms: N1_4  and  C3_6
REMARK    2  A    between atoms: C3_6  and  C4_7
REMARK    3  A    between atoms: C4_7  and  C5_8
REMARK    4  A    between atoms: C5_8  and  C6_9
REMARK    5  A    between atoms: C6_9  and  N2_10
REMARK       I    between atoms: N2_10  and  C7_12
REMARK    6  A    between atoms: C7_12  and  C8_14
REMARK    7  A    between atoms: C8_14  and  C9_15
REMARK    8  A    between atoms: C9_15  and  C10_16
REMARK    9  A    between atoms: C10_16  and  O3_17
REMARK   10  A    between atoms: N3_19  and  C11_21
REMARK   11  A    between atoms: C12_23  and  S2_24
REMARK   12  A    between atoms: S2_24  and  C13_25
REMARK   13  A    between atoms: C13_25  and  C14_26
ROOT
HETATM    1  C11 UNL     1      16.160  23.328  17.259  1.00  0.00     0.084 A
HETATM    2  S1  UNL     1      16.589  24.372  18.576  1.00  0.00    -0.064 SA
HETATM    3  C12 UNL     1      17.436  22.840  18.725  1.00  0.00     0.052 A
HETATM    4  C25 UNL     1      16.981  22.273  17.697  1.00  0.00    -0.004 A
HETATM    5  C26 UNL     1      17.204  20.908  17.050  1.00  0.00     0.053 C
ENDROOT
BRANCH   1   6
HETATM    6  N3  UNL     1      15.357  23.509  16.244  1.00  0.00    -0.334 N
HETATM    7  C10 UNL     1      14.146  22.996  15.902  1.00  0.00     0.116 C
ATOM      8  H3  UNL     1      15.717  24.177  15.563  1.00  0.00     0.168 HD
BRANCH   7   9
HETATM    9  C9  UNL     1      13.794  21.630  15.434  1.00  0.00     0.093 C
BRANCH   9  10
HETATM   10  C8  UNL     1      12.488  21.631  14.650  1.00  0.00     0.111 C
BRANCH  10  11
HETATM   11  C7  UNL     1      11.571  20.622  15.248  1.00  0.00     0.217 C
HETATM   12  N2  UNL     1      11.454  20.474  16.634  1.00  0.00    -0.361 N
ATOM     13  H2  UNL     1      12.014  21.090  17.223  1.00  0.00     0.162 HD
HETATM   14  O2  UNL     1      10.874  19.871  14.481  1.00  0.00    -0.274 OA
BRANCH  12  15
HETATM   15  C6  UNL     1      10.588  19.503  17.300  1.00  0.00     0.122 C
BRANCH  15  16
HETATM   16  C5  UNL     1      11.350  18.417  17.938  1.00  0.00     0.021 C
BRANCH  16  17
HETATM   17  C4  UNL     1      11.134  18.136  19.373  1.00  0.00     0.021 C
BRANCH  17  18
HETATM   18  C3  UNL     1      12.341  17.837  20.181  1.00  0.00     0.122 C
BRANCH  18  19
HETATM   19  N1  UNL     1      13.030  18.998  20.624  1.00  0.00    -0.361 N
HETATM   20  C2  UNL     1      14.233  19.441  19.980  1.00  0.00     0.213 C
HETATM   21  C1  UNL     1      14.977  20.644  20.417  1.00  0.00     0.117 C
HETATM   22  O1  UNL     1      14.653  18.772  19.012  1.00  0.00    -0.274 OA
ATOM     23  H1  UNL     1      12.663  19.526  21.416  1.00  0.00     0.162 HD
ENDBRANCH  18  19
ENDBRANCH  17  18
ENDBRANCH  16  17
ENDBRANCH  15  16
ENDBRANCH  12  15
ENDBRANCH  10  11
ENDBRANCH   9  10
ENDBRANCH   7   9
BRANCH   7  24
HETATM   24  O3  UNL     1      13.115  23.786  15.981  1.00  0.00    -0.349 OA
ATOM     25  H3  UNL     1      13.308  24.602  16.429  1.00  0.00     0.219 HD
ENDBRANCH   7  24
ENDBRANCH   1   6
BRANCH   3  26
HETATM   26  S2  UNL     1      18.623  22.436  20.042  1.00  0.00    -0.117 SA
BRANCH  26  27
HETATM   27  C13 UNL     1      20.260  23.019  19.821  1.00  0.00     0.124 C
BRANCH  27  28
HETATM   28  C14 UNL     1      20.311  24.136  18.846  1.00  0.00     0.020 A
HETATM   29  C15 UNL     1      20.112  23.885  17.511  1.00  0.00     0.027 A
HETATM   30  C16 UNL     1      20.161  24.959  16.653  1.00  0.00    -0.006 A
HETATM   31  C17 UNL     1      19.971  24.805  15.293  1.00  0.00     0.053 A
HETATM   32  C21 UNL     1      20.406  26.201  17.188  1.00  0.00     0.048 A
HETATM   33  C18 UNL     1      20.018  25.872  14.440  1.00  0.00     0.103 A
HETATM   34  C19 UNL     1      20.263  27.122  14.979  1.00  0.00     0.104 A
HETATM   35  O6  UNL     1      19.833  25.786  13.054  1.00  0.00    -0.346 OA
HETATM   36  C20 UNL     1      20.455  27.287  16.331  1.00  0.00     0.070 A
HETATM   37  O5  UNL     1      20.300  28.174  14.065  1.00  0.00    -0.346 OA
HETATM   38  C23 UNL     1      20.850  27.994  12.766  1.00  0.00     0.202 C
HETATM   39  C24 UNL     1      20.603  26.632  12.207  1.00  0.00     0.202 C
HETATM   40  N4  UNL     1      20.600  26.430  18.508  1.00  0.00    -0.322 N
HETATM   41  C22 UNL     1      20.553  25.389  19.342  1.00  0.00     0.253 A
ATOM     42  H4  UNL     1      20.777  27.373  18.855  1.00  0.00     0.169 HD
HETATM   43  O4  UNL     1      20.738  25.639  20.569  1.00  0.00    -0.268 OA
ENDBRANCH  27  28
ENDBRANCH  26  27
ENDBRANCH   3  26
TORSDOF 13
ENDMDL