MODEL 2
REMARK VINA RESULT: -8.950251640      1.915      9.797
REMARK  14 active torsions:
REMARK  status: ('A' for Active; 'I' for Inactive)
REMARK    1  A    between atoms: C2_2  and  C4_4
REMARK    2  A    between atoms: C4_4  and  N1_5
REMARK    3  A    between atoms: N1_5  and  C5_7
REMARK    4  A    between atoms: C7_9  and  O1_10
REMARK    5  A    between atoms: O1_10  and  C8_11
REMARK    6  A    between atoms: C8_11  and  C9_12
REMARK    7  A    between atoms: C9_12  and  O2_13
REMARK    8  A    between atoms: C11_17  and  C12_18
REMARK    9  A    between atoms: C18_25  and  N4_26
REMARK   10  A    between atoms: N4_26  and  C19_28
REMARK   11  A    between atoms: C19_28  and  O3_29
REMARK   12  A    between atoms: C19_28  and  C20_31
REMARK       I    between atoms: N6_37  and  C24_39
REMARK   13  A    between atoms: C24_39  and  C25_41
REMARK   14  A    between atoms: C25_41  and  N7_42
ROOT
HETATM    1  C12 UNL     1      19.457  25.353  16.742  1.00  0.00     0.060 A
HETATM    2  C13 UNL     1      20.306  26.422  16.567  1.00  0.00    -0.022 A
HETATM    3  C14 UNL     1      21.405  26.789  17.512  1.00  0.00     0.051 C
HETATM    4  C15 UNL     1      19.951  27.040  15.412  1.00  0.00     0.016 A
HETATM    5  C16 UNL     1      20.625  28.260  14.848  1.00  0.00     0.069 C
HETATM    6  N3  UNL     1      18.888  26.393  14.827  1.00  0.00    -0.340 N
HETATM    7  C17 UNL     1      18.333  26.809  13.556  1.00  0.00     0.158 C
HETATM    8  C18 UNL     1      18.581  25.352  15.643  1.00  0.00     0.124 A
ENDROOT
BRANCH   8   9
HETATM    9  N4  UNL     1      17.695  24.299  15.393  1.00  0.00    -0.322 N
ATOM     10  H4  UNL     1      18.060  23.665  14.681  1.00  0.00     0.169 HD
BRANCH   9  11
HETATM   11  C19 UNL     1      16.466  23.890  15.848  1.00  0.00     0.152 C
BRANCH  11  12
HETATM   12  O3  UNL     1      15.958  24.573  16.847  1.00  0.00    -0.345 OA
ATOM     13  H3  UNL     1      15.654  25.450  16.647  1.00  0.00     0.219 HD
ENDBRANCH  11  12
BRANCH  11  14
HETATM   14  C20 UNL     1      15.579  22.828  15.421  1.00  0.00     0.020 A
HETATM   15  C21 UNL     1      15.876  22.060  14.286  1.00  0.00     0.033 A
HETATM   16  C22 UNL     1      15.023  21.086  13.826  1.00  0.00     0.090 A
HETATM   17  N5  UNL     1      13.859  20.828  14.454  1.00  0.00    -0.352 N
HETATM   18  C23 UNL     1      13.565  21.554  15.541  1.00  0.00     0.108 A
ATOM     19  H5  UNL     1      13.223  20.106  14.114  1.00  0.00     0.166 HD
HETATM   20  N6  UNL     1      12.420  21.324  16.128  1.00  0.00    -0.312 N
HETATM   21  C28 UNL     1      14.389  22.552  16.051  1.00  0.00     0.064 A
HETATM   22  C24 UNL     1      11.521  20.340  15.631  1.00  0.00     0.251 C
ATOM     23  H6  UNL     1      12.167  21.861  16.957  1.00  0.00     0.170 HD
HETATM   24  O4  UNL     1      10.775  20.654  14.671  1.00  0.00    -0.271 OA
BRANCH  22  25
HETATM   25  C25 UNL     1      11.400  18.966  16.165  1.00  0.00     0.375 C
BRANCH  25  26
HETATM   26  N7  UNL     1      10.875  19.026  17.512  1.00  0.00     0.100 N
HETATM   27  C26 UNL     1      11.770  18.820  18.627  1.00  0.00     0.303 A
HETATM   28  C27 UNL     1      10.733  17.787  18.256  1.00  0.00     0.303 A
ENDBRANCH  25  26
ENDBRANCH  22  25
ENDBRANCH  11  14
ENDBRANCH   9  11
ENDBRANCH   8   9
BRANCH   1  29
HETATM   29  C11 UNL     1      19.513  24.429  17.879  1.00  0.00     0.123 A
HETATM   30  N2  UNL     1      20.631  24.026  18.469  1.00  0.00    -0.322 N
HETATM   31  C7  UNL     1      20.617  23.204  19.570  1.00  0.00     0.147 A
ATOM     32  H2  UNL     1      21.528  24.335  18.095  1.00  0.00     0.169 HD
HETATM   33  C6  UNL     1      19.443  22.769  20.099  1.00  0.00     0.104 A
HETATM   34  C5  UNL     1      18.247  23.191  19.475  1.00  0.00     0.106 A
HETATM   35  N8  UNL     1      18.343  23.982  18.420  1.00  0.00    -0.328 N
ATOM     36  H8  UNL     1      17.475  24.282  17.976  1.00  0.00     0.169 HD
BRANCH  31  37
HETATM   37  O1  UNL     1      21.831  22.863  20.066  1.00  0.00    -0.334 OA
BRANCH  37  38
HETATM   38  C8  UNL     1      22.949  23.628  20.293  1.00  0.00     0.203 C
BRANCH  38  39
HETATM   39  C9  UNL     1      22.697  24.686  21.333  1.00  0.00     0.193 C
BRANCH  39  40
HETATM   40  O2  UNL     1      22.255  25.902  20.765  1.00  0.00    -0.394 OA
HETATM   41  C10 UNL     1      21.045  26.214  21.416  1.00  0.00     0.201 C
ENDBRANCH  39  40
ENDBRANCH  38  39
ENDBRANCH  37  38
ENDBRANCH  31  37
BRANCH  34  42
HETATM   42  N1  UNL     1      17.189  22.774  20.040  1.00  0.00    -0.372 N
ATOM     43  H1  UNL     1      17.240  22.670  21.053  1.00  0.00     0.161 HD
BRANCH  42  44
HETATM   44  C4  UNL     1      15.941  22.433  19.445  1.00  0.00     0.154 C
BRANCH  44  45
HETATM   45  C2  UNL     1      15.789  20.942  19.330  1.00  0.00    -0.075 C
HETATM   46  C1  UNL     1      16.306  20.228  18.349  1.00  0.00     0.015 C
HETATM   47  C3  UNL     1      15.007  20.219  20.393  1.00  0.00     0.044 C
ENDBRANCH  44  45
ENDBRANCH  42  44
ENDBRANCH  34  42
ENDBRANCH   1  29
TORSDOF 14
ENDMDL