MODEL 2
REMARK VINA RESULT: -5.450264181      2.432      4.107
REMARK  2 active torsions:
REMARK  status: ('A' for Active; 'I' for Inactive)
REMARK    1  A    between atoms: N1_1  and  N2_4
REMARK       I    between atoms: C1_6  and  N4_8
REMARK    2  A    between atoms: N4_8  and  C2_10
ROOT
HETATM    1  C2  UNL     1      36.206  15.833  31.752  1.00  0.00     0.181 A
HETATM    2  N5  UNL     1      35.213  15.844  32.578  1.00  0.00    -0.290 N
ATOM      3  H5  UNL     1      35.036  16.584  33.258  1.00  0.00     0.172 HD
HETATM    4  C3  UNL     1      34.405  14.693  32.416  1.00  0.00     0.328 A
HETATM    5  O1  UNL     1      33.360  14.359  33.037  1.00  0.00    -0.247 OA
HETATM    6  N6  UNL     1      34.980  13.911  31.381  1.00  0.00    -0.272 N
ATOM      7  H6  UNL     1      34.638  13.019  31.023  1.00  0.00     0.174 HD
HETATM    8  C4  UNL     1      36.135  14.628  30.945  1.00  0.00     0.293 A
HETATM    9  O2  UNL     1      36.879  14.208  30.030  1.00  0.00    -0.264 OA
ENDROOT
BRANCH   1  10
HETATM   10  N4  UNL     1      37.238  16.808  31.603  1.00  0.00    -0.311 N
HETATM   11  C1  UNL     1      38.602  16.553  31.846  1.00  0.00     0.208 C
HETATM   12  N2  UNL     1      39.340  16.069  30.929  1.00  0.00    -0.280 N
HETATM   13  N3  UNL     1      39.143  16.840  33.113  1.00  0.00    -0.062 NA
ATOM     14  H2  UNL     1      38.944  15.863  30.012  1.00  0.00     0.189 HD
ATOM     15  H4  UNL     1      36.971  17.745  31.304  1.00  0.00     0.170 HD
BRANCH  12  16
HETATM   16  N1  UNL     1      40.686  15.820  31.175  1.00  0.00    -0.343 N
ATOM     17  H12 UNL     1      41.343  16.600  31.163  1.00  0.00     0.176 HD
ATOM     18  H11 UNL     1      41.005  14.869  31.364  1.00  0.00     0.176 HD
ENDBRANCH  12  16
ENDBRANCH   1  10
TORSDOF 2
ENDMDL