MODEL 3
REMARK VINA RESULT: -5.920394081      1.312      3.843
REMARK  0 active torsions:
REMARK  status: ('A' for Active; 'I' for Inactive)
ROOT
HETATM    1  N1  UNL     1      39.207  17.284  34.998  1.00  0.00    -0.233 N
ATOM      2  H11 UNL     1      38.411  17.231  35.634  1.00  0.00     0.174 HD
ATOM      3  H12 UNL     1      40.181  17.415  35.268  1.00  0.00     0.174 HD
HETATM    4  C1  UNL     1      38.935  17.171  33.719  1.00  0.00     0.693 C
HETATM    5  N2  UNL     1      40.050  17.245  32.828  1.00  0.00    -0.132 N
ATOM      6  H2  UNL     1      40.896  17.660  33.220  1.00  0.00     0.205 HD
HETATM    7  N3  UNL     1      40.147  16.831  31.495  1.00  0.00    -0.281 N
ATOM      8  H3  UNL     1      41.056  17.001  31.066  1.00  0.00     0.187 HD
HETATM    9  C2  UNL     1      39.199  16.215  30.634  1.00  0.00     0.117 C
HETATM   10  C3  UNL     1      39.569  15.782  29.452  1.00  0.00     0.135 C
HETATM   11  N4  UNL     1      38.726  15.160  28.521  1.00  0.00    -0.113 NA
HETATM   12  C4  UNL     1      37.793  16.011  30.958  1.00  0.00     0.268 C
HETATM   13  O1  UNL     1      37.112  15.479  30.079  1.00  0.00    -0.280 OA
HETATM   14  C5  UNL     1      37.051  16.350  32.193  1.00  0.00     0.312 C
HETATM   15  O2  UNL     1      35.832  16.045  32.230  1.00  0.00    -0.263 OA
HETATM   16  N5  UNL     1      37.582  16.988  33.343  1.00  0.00    -0.152 N
ATOM     17  H5  UNL     1      36.892  17.368  33.990  1.00  0.00     0.188 HD
ENDROOT
TORSDOF 0
ENDMDL