MODEL 4
REMARK VINA RESULT: -5.422594928      2.343      5.478
REMARK  2 active torsions:
REMARK  status: ('A' for Active; 'I' for Inactive)
REMARK    1  A    between atoms: N1_1  and  N2_4
REMARK       I    between atoms: N2_4  and  C1_6
REMARK       I    between atoms: C1_6  and  N3_8
REMARK    2  A    between atoms: N3_8  and  C2_10
ROOT
HETATM    1  C2  UNL     1      40.505  17.282  32.565  1.00  0.00     0.193 A
HETATM    2  N4  UNL     1      41.508  17.965  33.066  1.00  0.00    -0.290 N
ATOM      3  H4  UNL     1      42.422  18.043  32.620  1.00  0.00     0.172 HD
HETATM    4  C3  UNL     1      41.176  18.575  34.282  1.00  0.00     0.316 A
HETATM    5  O2  UNL     1      41.927  19.308  35.022  1.00  0.00    -0.262 OA
HETATM    6  C4  UNL     1      39.794  18.226  34.573  1.00  0.00     0.316 A
HETATM    7  O3  UNL     1      39.096  18.559  35.560  1.00  0.00    -0.262 OA
HETATM    8  N5  UNL     1      39.411  17.404  33.453  1.00  0.00    -0.290 N
ATOM      9  H5  UNL     1      38.495  16.976  33.321  1.00  0.00     0.172 HD
ENDROOT
BRANCH   1  10
HETATM   10  N3  UNL     1      40.581  16.564  31.331  1.00  0.00    -0.279 N
HETATM   11  C1  UNL     1      39.475  15.962  30.692  1.00  0.00     0.341 C
HETATM   12  N2  UNL     1      39.644  15.257  29.448  1.00  0.00    -0.258 N
HETATM   13  O1  UNL     1      38.329  16.036  31.206  1.00  0.00    -0.245 OA
ATOM     14  H2  UNL     1      40.560  15.178  29.005  1.00  0.00     0.191 HD
ATOM     15  H3  UNL     1      41.493  16.481  30.883  1.00  0.00     0.173 HD
BRANCH  12  16
HETATM   16  N1  UNL     1      38.510  14.686  28.872  1.00  0.00    -0.341 N
ATOM     17  H12 UNL     1      38.038  13.905  29.328  1.00  0.00     0.177 HD
ATOM     18  H11 UNL     1      38.182  15.078  27.989  1.00  0.00     0.177 HD
ENDBRANCH  12  16
ENDBRANCH   1  10
TORSDOF 2
ENDMDL