MODEL 5
REMARK VINA RESULT: -5.389539318      1.651      2.276
REMARK  0 active torsions:
REMARK  status: ('A' for Active; 'I' for Inactive)
REMARK       I    between atoms: C1_2  and  N2_4
ROOT
HETATM    1  N1  UNL     1      38.722  14.426  28.517  1.00  0.00    -0.040 NA
HETATM    2  C1  UNL     1      38.317  15.741  28.809  1.00  0.00     0.334 C
HETATM    3  O1  UNL     1      38.683  16.730  28.085  1.00  0.00    -0.251 OA
HETATM    4  N2  UNL     1      37.497  16.030  29.905  1.00  0.00    -0.291 N
ATOM      5  H2  UNL     1      36.485  16.000  29.782  1.00  0.00     0.172 HD
HETATM    6  C2  UNL     1      37.969  16.330  31.060  1.00  0.00     0.193 A
HETATM    7  N3  UNL     1      37.088  16.597  32.073  1.00  0.00    -0.277 N
ATOM      8  H3  UNL     1      36.084  16.554  31.896  1.00  0.00     0.189 HD
HETATM    9  N4  UNL     1      37.526  16.907  33.270  1.00  0.00    -0.250 N
ATOM     10  H4  UNL     1      36.840  17.099  33.999  1.00  0.00     0.192 HD
HETATM   11  C3  UNL     1      38.831  16.987  33.587  1.00  0.00     0.341 A
HETATM   12  O2  UNL     1      39.230  17.289  34.752  1.00  0.00    -0.245 OA
HETATM   13  N5  UNL     1      39.740  16.734  32.629  1.00  0.00    -0.271 N
ATOM     14  H5  UNL     1      40.738  16.784  32.835  1.00  0.00     0.174 HD
HETATM   15  C4  UNL     1      39.305  16.409  31.376  1.00  0.00     0.295 A
HETATM   16  O3  UNL     1      40.151  16.176  30.492  1.00  0.00    -0.264 OA
ENDROOT
TORSDOF 0
ENDMDL