MODEL 4
REMARK VINA RESULT: -6.231599605      0.989      1.356
REMARK  2 active torsions:
REMARK  status: ('A' for Active; 'I' for Inactive)
REMARK       I    between atoms: C1_2  and  N3_4
REMARK    1  A    between atoms: N3_4  and  N4_6
REMARK    2  A    between atoms: N4_6  and  C2_8
ROOT
HETATM    1  C2  UNL     1      40.212  16.649  31.741  1.00  0.00     0.715 A
HETATM    2  N5  UNL     1      39.175  16.804  32.593  1.00  0.00    -0.127 N
ATOM      3  H5  UNL     1      38.244  16.410  32.457  1.00  0.00     0.206 HD
HETATM    4  N6  UNL     1      39.543  17.538  33.624  1.00  0.00    -0.237 N
ATOM      5  H6  UNL     1      38.947  17.801  34.410  1.00  0.00     0.192 HD
HETATM    6  C3  UNL     1      40.828  17.880  33.469  1.00  0.00     0.353 A
HETATM    7  O1  UNL     1      41.532  18.589  34.266  1.00  0.00    -0.245 OA
HETATM    8  N7  UNL     1      41.226  17.327  32.308  1.00  0.00    -0.137 N
ATOM      9  H7  UNL     1      42.164  17.410  31.915  1.00  0.00     0.189 HD
ENDROOT
BRANCH   1  10
HETATM   10  N4  UNL     1      40.291  16.021  30.635  1.00  0.00    -0.128 N
ATOM     11  H4  UNL     1      40.337  15.003  30.689  1.00  0.00     0.205 HD
BRANCH  10  12
HETATM   12  N3  UNL     1      40.320  16.573  29.381  1.00  0.00    -0.262 N
HETATM   13  C1  UNL     1      39.234  16.884  28.795  1.00  0.00     0.216 C
HETATM   14  N1  UNL     1      37.999  16.664  29.430  1.00  0.00    -0.065 NA
HETATM   15  N2  UNL     1      39.272  17.449  27.510  1.00  0.00    -0.065 NA
ATOM     16  H3  UNL     1      41.213  16.736  28.918  1.00  0.00     0.190 HD
ENDBRANCH  10  12
ENDBRANCH   1  10
TORSDOF 2
ENDMDL