MODEL 2
REMARK VINA RESULT: -6.077605694      1.908      4.373
REMARK  1 active torsions:
REMARK  status: ('A' for Active; 'I' for Inactive)
REMARK       I    between atoms: N1_1  and  C1_5
REMARK       I    between atoms: C1_5  and  N2_6
REMARK       I    between atoms: C1_5  and  N3_10
REMARK    1  A    between atoms: N3_10  and  C2_12
ROOT
HETATM    1  C2  UNL     1      39.209  16.394  32.172  1.00  0.00     0.188 A
HETATM    2  N4  UNL     1      40.260  16.098  31.351  1.00  0.00    -0.277 N
ATOM      3  H4  UNL     1      41.207  16.171  31.723  1.00  0.00     0.189 HD
HETATM    4  N5  UNL     1      40.101  15.723  30.100  1.00  0.00    -0.250 N
ATOM      5  H5  UNL     1      40.926  15.516  29.538  1.00  0.00     0.192 HD
HETATM    6  C3  UNL     1      38.885  15.604  29.540  1.00  0.00     0.341 A
HETATM    7  O1  UNL     1      38.758  15.242  28.338  1.00  0.00    -0.245 OA
HETATM    8  N6  UNL     1      37.835  15.885  30.316  1.00  0.00    -0.271 N
ATOM      9  H6  UNL     1      36.900  15.803  29.918  1.00  0.00     0.174 HD
HETATM   10  C4  UNL     1      37.959  16.278  31.621  1.00  0.00     0.294 A
HETATM   11  O2  UNL     1      36.909  16.524  32.281  1.00  0.00    -0.264 OA
ENDROOT
BRANCH   1  12
HETATM   12  N3  UNL     1      39.416  16.750  33.365  1.00  0.00    -0.322 N
HETATM   13  C1  UNL     1      39.634  17.995  33.972  1.00  0.00     0.481 C
HETATM   14  N1  UNL     1      38.460  18.833  34.122  1.00  0.00    -0.033 N
HETATM   15  N2  UNL     1      40.177  17.841  35.341  1.00  0.00    -0.033 N
ATOM     16  H13 UNL     1      37.783  18.477  34.796  1.00  0.00     0.278 HD
ATOM     17  H12 UNL     1      38.643  19.718  34.594  1.00  0.00     0.278 HD
ATOM     18  H11 UNL     1      38.085  18.939  33.179  1.00  0.00     0.278 HD
ATOM     19  H23 UNL     1      40.361  18.726  35.813  1.00  0.00     0.278 HD
ATOM     20  H22 UNL     1      39.500  17.485  36.015  1.00  0.00     0.278 HD
ATOM     21  H21 UNL     1      41.003  17.251  35.236  1.00  0.00     0.278 HD
ATOM     22  H3  UNL     1      39.427  15.971  34.024  1.00  0.00     0.165 HD
ENDBRANCH   1  12
TORSDOF 1
ENDMDL