MODEL 3
REMARK VINA RESULT: -5.538686488      1.788      2.368
REMARK  3 active torsions:
REMARK  status: ('A' for Active; 'I' for Inactive)
REMARK    1  A    between atoms: C3_7  and  N3_8
REMARK    2  A    between atoms: N4_11  and  N5_12
REMARK       I    between atoms: N5_12  and  C4_14
REMARK    3  A    between atoms: N7_16  and  N8_18
ROOT
HETATM    1  C1  UNL     1      36.651  15.331  31.081  1.00  0.00     0.093 C
HETATM    2  C2  UNL     1      38.084  15.694  30.952  1.00  0.00     0.133 A
HETATM    3  N1  UNL     1      38.784  15.631  29.773  1.00  0.00    -0.273 N
ATOM      4  H1  UNL     1      38.408  15.335  28.872  1.00  0.00     0.189 HD
HETATM    5  N2  UNL     1      40.022  16.017  29.998  1.00  0.00    -0.129 N
ATOM      6  H2  UNL     1      40.754  16.064  29.290  1.00  0.00     0.205 HD
HETATM    7  C3  UNL     1      40.186  16.337  31.280  1.00  0.00     0.713 A
HETATM    8  N4  UNL     1      38.955  16.128  31.868  1.00  0.00    -0.070 N
ENDROOT
BRANCH   8   9
HETATM    9  N5  UNL     1      38.766  16.362  33.209  1.00  0.00    -0.250 N
HETATM   10  C4  UNL     1      38.938  17.603  33.843  1.00  0.00     0.222 C
HETATM   11  N6  UNL     1      40.082  17.921  34.632  1.00  0.00    -0.061 NA
HETATM   12  N7  UNL     1      38.019  18.513  33.752  1.00  0.00    -0.279 N
ATOM     13  H7  UNL     1      37.166  18.335  33.222  1.00  0.00     0.189 HD
ATOM     14  H5  UNL     1      38.479  15.573  33.788  1.00  0.00     0.191 HD
BRANCH  12  15
HETATM   15  N8  UNL     1      38.210  19.730  34.385  1.00  0.00    -0.343 N
ATOM     16  H82 UNL     1      39.062  19.887  34.924  1.00  0.00     0.176 HD
ATOM     17  H81 UNL     1      37.494  20.452  34.301  1.00  0.00     0.176 HD
ENDBRANCH  12  15
ENDBRANCH   8   9
BRANCH   7  18
HETATM   18  N3  UNL     1      41.253  16.754  31.864  1.00  0.00    -0.232 N
ATOM     19  H32 UNL     1      42.193  16.777  31.468  1.00  0.00     0.174 HD
ATOM     20  H31 UNL     1      41.350  17.128  32.808  1.00  0.00     0.174 HD
ENDBRANCH   7  18
TORSDOF 3
ENDMDL