MODEL 1
REMARK VINA RESULT: -5.790229980      0.000      0.000
REMARK  2 active torsions:
REMARK  status: ('A' for Active; 'I' for Inactive)
REMARK    1  A    between atoms: N1_1  and  N2_4
REMARK    2  A    between atoms: N2_4  and  C1_6
ROOT
HETATM    1  C1  UNL     1      38.593  16.903  33.761  1.00  0.00     0.156 C
HETATM    2  C2  UNL     1      38.928  16.741  32.503  1.00  0.00     0.140 A
HETATM    3  N3  UNL     1      40.276  16.910  32.064  1.00  0.00    -0.281 N
ATOM      4  H3  UNL     1      40.983  17.162  32.754  1.00  0.00     0.188 HD
HETATM    5  N4  UNL     1      40.671  16.746  30.734  1.00  0.00    -0.260 N
ATOM      6  H4  UNL     1      41.648  16.877  30.472  1.00  0.00     0.190 HD
HETATM    7  C3  UNL     1      39.731  16.402  29.762  1.00  0.00     0.328 A
HETATM    8  O1  UNL     1      40.026  16.239  28.535  1.00  0.00    -0.261 OA
HETATM    9  C4  UNL     1      38.341  16.213  30.127  1.00  0.00     0.316 A
HETATM   10  O2  UNL     1      37.450  15.899  29.267  1.00  0.00    -0.262 OA
HETATM   11  N5  UNL     1      37.980  16.389  31.489  1.00  0.00    -0.303 N
ATOM     12  H5  UNL     1      37.005  16.259  31.756  1.00  0.00     0.171 HD
ENDROOT
BRANCH   1  13
HETATM   13  N2  UNL     1      39.587  17.250  34.699  1.00  0.00    -0.315 N
ATOM     14  H2  UNL     1      40.318  17.907  34.426  1.00  0.00     0.185 HD
BRANCH  13  15
HETATM   15  N1  UNL     1      39.598  16.715  36.007  1.00  0.00    -0.345 N
ATOM     16  H12 UNL     1      40.157  15.879  36.177  1.00  0.00     0.176 HD
ATOM     17  H11 UNL     1      39.070  17.141  36.769  1.00  0.00     0.176 HD
ENDBRANCH  13  15
ENDBRANCH   1  13
TORSDOF 2
ENDMDL