MODEL 4
REMARK VINA RESULT: -5.634103146      0.068      2.167
REMARK  1 active torsions:
REMARK  status: ('A' for Active; 'I' for Inactive)
REMARK       I    between atoms: C1_4  and  N3_6
REMARK    1  A    between atoms: N3_6  and  N4_8
ROOT
HETATM    1  N4  UNL     1      38.666  16.069  31.542  1.00  0.00    -0.150 N
HETATM    2  C2  UNL     1      39.521  16.699  32.364  1.00  0.00     0.353 A
HETATM    3  O1  UNL     1      40.735  16.743  32.057  1.00  0.00    -0.244 OA
HETATM    4  N5  UNL     1      39.055  17.274  33.508  1.00  0.00    -0.259 N
ATOM      5  H5  UNL     1      39.717  17.749  34.120  1.00  0.00     0.175 HD
HETATM    6  C3  UNL     1      37.761  17.242  33.863  1.00  0.00     0.332 A
HETATM    7  O2  UNL     1      37.395  17.794  34.935  1.00  0.00    -0.246 OA
HETATM    8  N6  UNL     1      36.906  16.612  33.038  1.00  0.00    -0.259 N
ATOM      9  H6  UNL     1      35.914  16.564  33.268  1.00  0.00     0.175 HD
HETATM   10  C4  UNL     1      37.368  16.045  31.909  1.00  0.00     0.353 A
HETATM   11  O3  UNL     1      36.562  15.444  31.123  1.00  0.00    -0.244 OA
ENDROOT
BRANCH   1  12
HETATM   12  N3  UNL     1      39.085  15.453  30.342  1.00  0.00    -0.259 N
HETATM   13  C1  UNL     1      38.898  15.979  29.066  1.00  0.00     0.201 C
HETATM   14  N1  UNL     1      37.851  15.655  28.394  1.00  0.00    -0.372 N
HETATM   15  N2  UNL     1      39.828  16.866  28.469  1.00  0.00    -0.062 NA
ATOM     16  H12 UNL     1      37.714  16.041  27.460  1.00  0.00     0.158 HD
ATOM     17  H11 UNL     1      37.181  15.017  28.824  1.00  0.00     0.158 HD
ATOM     18  H3  UNL     1      39.561  14.554  30.415  1.00  0.00     0.190 HD
ENDBRANCH   1  12
TORSDOF 1
ENDMDL