MODEL 3
REMARK VINA RESULT: -6.220786949      2.349      4.608
REMARK  3 active torsions:
REMARK  status: ('A' for Active; 'I' for Inactive)
REMARK    1  A    between atoms: N1_1  and  N2_4
REMARK    2  A    between atoms: N2_4  and  N3_6
REMARK       I    between atoms: N3_6  and  C1_8
REMARK       I    between atoms: C1_8  and  N5_10
REMARK    3  A    between atoms: N5_10  and  C2_12
ROOT
HETATM    1  N3  UNL     1      38.033  14.815  30.063  1.00  0.00    -0.259 N
ATOM      2  H3  UNL     1      38.311  14.532  31.003  1.00  0.00     0.191 HD
HETATM    3  C1  UNL     1      38.820  15.582  29.423  1.00  0.00     0.222 C
HETATM    4  N4  UNL     1      38.479  16.000  28.124  1.00  0.00    -0.061 NA
HETATM    5  N5  UNL     1      40.023  16.012  30.002  1.00  0.00    -0.161 N
ATOM      6  H5  UNL     1      40.873  15.920  29.445  1.00  0.00     0.187 HD
ENDROOT
BRANCH   5   7
HETATM    7  C2  UNL     1      40.137  16.513  31.178  1.00  0.00     0.703 A
HETATM    8  N6  UNL     1      41.244  17.126  31.628  1.00  0.00    -0.128 N
HETATM    9  N7  UNL     1      41.022  17.527  32.888  1.00  0.00    -0.237 N
ATOM     10  H6  UNL     1      42.107  17.262  31.101  1.00  0.00     0.205 HD
HETATM   11  C3  UNL     1      39.777  17.177  33.259  1.00  0.00     0.353 A
ATOM     12  H7  UNL     1      41.694  18.021  33.475  1.00  0.00     0.192 HD
HETATM   13  O1  UNL     1      39.205  17.384  34.380  1.00  0.00    -0.245 OA
HETATM   14  N8  UNL     1      39.251  16.550  32.180  1.00  0.00    -0.139 N
ATOM     15  H8  UNL     1      38.310  16.159  32.138  1.00  0.00     0.189 HD
ENDBRANCH   5   7
BRANCH   1  16
HETATM   16  N2  UNL     1      36.821  14.334  29.577  1.00  0.00    -0.247 N
ATOM     17  H2  UNL     1      36.629  14.332  28.575  1.00  0.00     0.207 HD
BRANCH  16  18
HETATM   18  N1  UNL     1      35.874  13.859  30.477  1.00  0.00    -0.331 N
ATOM     19  H12 UNL     1      35.972  14.074  31.469  1.00  0.00     0.178 HD
ATOM     20  H11 UNL     1      35.096  13.301  30.127  1.00  0.00     0.178 HD
ENDBRANCH  16  18
ENDBRANCH   1  16
TORSDOF 3
ENDMDL