MODEL 5
REMARK VINA RESULT: -8.627061923      3.967      7.756
REMARK  8 active torsions:
REMARK  status: ('A' for Active; 'I' for Inactive)
REMARK    1  A    between atoms: C2_5  and  O2_6
REMARK    2  A    between atoms: C3_8  and  C4_9
REMARK    3  A    between atoms: C4_9  and  C5_10
REMARK    4  A    between atoms: C7_15  and  N4_16
REMARK    5  A    between atoms: N4_16  and  C8_18
REMARK    6  A    between atoms: C11_23  and  N6_24
REMARK    7  A    between atoms: N6_24  and  C12_26
REMARK    8  A    between atoms: C12_26  and  C13_27
ROOT
HETATM    1  C5  UNL     1      38.829   3.811  13.880  1.00  0.00     0.030 A
HETATM    2  C6  UNL     1      38.230   3.393  12.711  1.00  0.00     0.123 A
HETATM    3  N2  UNL     1      38.652   2.127  12.458  1.00  0.00    -0.288 N
ATOM      4  H2  UNL     1      38.370   1.565  11.655  1.00  0.00     0.187 HD
HETATM    5  N3  UNL     1      39.486   1.729  13.409  1.00  0.00    -0.068 N
HETATM    6  C7  UNL     1      40.152   0.576  13.594  1.00  0.00     0.716 A
HETATM    7  N5  UNL     1      40.941   0.465  14.678  1.00  0.00    -0.021 N
ATOM      8  H5  UNL     1      41.454  -0.403  14.832  1.00  0.00     0.203 HD
HETATM    9  C11 UNL     1      41.073   1.468  15.565  1.00  0.00     0.694 A
HETATM   10  N7  UNL     1      40.407   2.622  15.381  1.00  0.00    -0.173 N
ATOM     11  H7  UNL     1      40.502   3.388  16.049  1.00  0.00     0.186 HD
HETATM   12  C14 UNL     1      39.608   2.752  14.295  1.00  0.00     0.172 A
ENDROOT
BRANCH   1  13
HETATM   13  C4  UNL     1      38.688   4.974  14.475  1.00  0.00     0.051 C
BRANCH  13  14
HETATM   14  C3  UNL     1      37.658   5.212  15.474  1.00  0.00     0.088 A
HETATM   15  C2  UNL     1      37.720   4.842  16.803  1.00  0.00     0.171 A
HETATM   16  N1  UNL     1      36.586   5.225  17.434  1.00  0.00    -0.287 N
HETATM   17  C1  UNL     1      35.828   5.830  16.496  1.00  0.00     0.326 A
ATOM     18  H1  UNL     1      36.352   5.085  18.418  1.00  0.00     0.172 HD
HETATM   19  O1  UNL     1      34.678   6.324  16.717  1.00  0.00    -0.247 OA
HETATM   20  N8  UNL     1      36.470   5.824  15.312  1.00  0.00    -0.305 N
ATOM     21  H8  UNL     1      36.117   6.217  14.439  1.00  0.00     0.171 HD
BRANCH  15  22
HETATM   22  O2  UNL     1      38.752   4.180  17.454  1.00  0.00    -0.344 OA
ATOM     23  H2  UNL     1      39.668   4.371  17.289  1.00  0.00     0.219 HD
ENDBRANCH  15  22
ENDBRANCH  13  14
ENDBRANCH   1  13
BRANCH   6  24
HETATM   24  N4  UNL     1      40.050  -0.413  12.760  1.00  0.00    -0.219 N
ATOM     25  H4  UNL     1      39.319  -0.374  12.049  1.00  0.00     0.178 HD
BRANCH  24  26
HETATM   26  C8  UNL     1      40.909  -1.558  12.787  1.00  0.00     0.099 A
HETATM   27  C9  UNL     1      41.616  -1.922  11.533  1.00  0.00     0.028 A
HETATM   28  C10 UNL     1      40.506  -2.812  12.058  1.00  0.00     0.028 A
ENDBRANCH  24  26
ENDBRANCH   6  24
BRANCH   9  29
HETATM   29  N6  UNL     1      41.829   1.368  16.608  1.00  0.00    -0.225 N
ATOM     30  H6  UNL     1      42.762   0.974  16.490  1.00  0.00     0.177 HD
BRANCH  29  31
HETATM   31  C12 UNL     1      41.427   1.782  17.926  1.00  0.00     0.149 C
BRANCH  31  32
HETATM   32  C13 UNL     1      42.535   2.702  18.455  1.00  0.00     0.106 C
HETATM   33  S1  UNL     1      44.042   1.792  18.805  1.00  0.00    -0.096 SA
ENDBRANCH  31  32
ENDBRANCH  29  31
ENDBRANCH   9  29
TORSDOF 8
ENDMDL