MODEL 5
REMARK VINA RESULT: -7.653563982      5.442      7.655
REMARK  6 active torsions:
REMARK  status: ('A' for Active; 'I' for Inactive)
REMARK    1  A    between atoms: C2_2  and  N1_3
REMARK    2  A    between atoms: N1_3  and  C3_5
REMARK    3  A    between atoms: C6_13  and  N5_14
REMARK    4  A    between atoms: N5_14  and  C7_16
REMARK    5  A    between atoms: C9_20  and  N7_21
REMARK    6  A    between atoms: C12_26  and  O1_27
ROOT
HETATM    1  C3  UNL     1      39.560  -1.982  10.875  1.00  0.00     0.134 A
HETATM    2  N2  UNL     1      38.218  -1.926  11.115  1.00  0.00    -0.281 N
ATOM      3  H2  UNL     1      37.519  -2.553  10.715  1.00  0.00     0.189 HD
HETATM    4  N3  UNL     1      37.964  -0.933  11.947  1.00  0.00    -0.278 N
HETATM    5  C4  UNL     1      36.669  -0.522  12.464  1.00  0.00     0.179 C
HETATM    6  C5  UNL     1      39.129  -0.311  12.275  1.00  0.00     0.155 A
HETATM    7  N4  UNL     1      39.397   0.738  13.074  1.00  0.00    -0.174 N
ATOM      8  H4  UNL     1      38.635   1.209  13.561  1.00  0.00     0.186 HD
HETATM    9  C6  UNL     1      40.660   1.172  13.238  1.00  0.00     0.686 A
HETATM   10  N9  UNL     1      41.639   0.526  12.579  1.00  0.00    -0.176 N
ATOM     11  H9  UNL     1      42.596   0.857  12.703  1.00  0.00     0.186 HD
HETATM   12  C14 UNL     1      41.439  -0.520  11.772  1.00  0.00     0.132 A
HETATM   13  N10 UNL     1      42.414  -1.123  11.147  1.00  0.00    -0.384 N
ATOM     14 1H10 UNL     1      42.261  -1.921  10.531  1.00  0.00     0.157 HD
ATOM     15 2H10 UNL     1      43.372  -0.794  11.271  1.00  0.00     0.157 HD
HETATM   16  C15 UNL     1      40.144  -0.964  11.604  1.00  0.00     0.099 A
ENDROOT
BRANCH   9  17
HETATM   17  N5  UNL     1      40.914   2.181  14.008  1.00  0.00    -0.186 N
ATOM     18  H5  UNL     1      41.888   2.434  14.172  1.00  0.00     0.184 HD
BRANCH  17  19
HETATM   19  C7  UNL     1      39.904   2.947  14.630  1.00  0.00     0.116 A
HETATM   20  C8  UNL     1      38.883   3.520  13.904  1.00  0.00     0.140 A
HETATM   21  N6  UNL     1      37.955   4.233  14.545  1.00  0.00    -0.199 N
HETATM   22  C9  UNL     1      37.928   4.449  15.870  1.00  0.00     0.681 A
ATOM     23  H6  UNL     1      37.209   4.646  13.986  1.00  0.00     0.183 HD
HETATM   24  N8  UNL     1      38.933   3.887  16.595  1.00  0.00    -0.168 N
HETATM   25  C12 UNL     1      39.891   3.159  15.994  1.00  0.00     0.186 A
ATOM     26  H8  UNL     1      38.960   4.019  17.606  1.00  0.00     0.186 HD
BRANCH  22  27
HETATM   27  N7  UNL     1      36.908   5.220  16.483  1.00  0.00    -0.226 N
HETATM   28  C10 UNL     1      35.720   5.506  15.712  1.00  0.00     0.168 C
HETATM   29  C11 UNL     1      37.015   5.723  17.834  1.00  0.00     0.168 C
ENDBRANCH  22  27
BRANCH  25  30
HETATM   30  O1  UNL     1      40.932   2.574  16.726  1.00  0.00    -0.339 OA
HETATM   31  C13 UNL     1      40.791   2.244  18.089  1.00  0.00     0.211 C
ENDBRANCH  25  30
ENDBRANCH  17  19
ENDBRANCH   9  17
BRANCH   1  32
HETATM   32  N1  UNL     1      40.209  -2.795  10.130  1.00  0.00    -0.375 N
ATOM     33  H1  UNL     1      40.539  -2.511   9.208  1.00  0.00     0.161 HD
BRANCH  32  34
HETATM   34  C2  UNL     1      40.461  -4.130  10.633  1.00  0.00     0.116 C
HETATM   35  C1  UNL     1      40.539  -5.127   9.495  1.00  0.00     0.026 C
ENDBRANCH  32  34
ENDBRANCH   1  32
TORSDOF 6
ENDMDL