MODEL 1
REMARK VINA RESULT: -8.546071812      0.000      0.000
REMARK  5 active torsions:
REMARK  status: ('A' for Active; 'I' for Inactive)
REMARK    1  A    between atoms: N1_1  and  C1_4
REMARK    2  A    between atoms: C4_11  and  N4_12
REMARK    3  A    between atoms: N6_21  and  C12_22
REMARK    4  A    between atoms: C12_22  and  C13_23
REMARK    5  A    between atoms: C13_23  and  C14_24
ROOT
HETATM    1  C1  UNL     1      41.305   1.666  16.090  1.00  0.00     0.678 A
HETATM    2  N2  UNL     1      41.293   0.748  15.110  1.00  0.00    -0.174 N
ATOM      3  H2  UNL     1      41.876  -0.084  15.200  1.00  0.00     0.186 HD
HETATM    4  C2  UNL     1      40.525   0.901  14.004  1.00  0.00     0.169 A
HETATM    5  C3  UNL     1      39.724   2.011  13.846  1.00  0.00     0.136 A
HETATM    6  N3  UNL     1      39.084   1.892  12.672  1.00  0.00    -0.183 N
ATOM      7  H3  UNL     1      38.423   2.571  12.294  1.00  0.00     0.184 HD
HETATM    8  C4  UNL     1      39.447   0.741  12.066  1.00  0.00     0.700 A
HETATM    9  N6  UNL     1      40.324   0.150  12.890  1.00  0.00    -0.164 N
HETATM   10  C15 UNL     1      39.753   2.941  14.868  1.00  0.00     0.163 A
HETATM   11  N8  UNL     1      38.934   4.091  14.720  1.00  0.00    -0.080 NA
HETATM   12  N9  UNL     1      40.530   2.755  15.952  1.00  0.00    -0.177 N
ATOM     13  H9  UNL     1      40.529   3.460  16.689  1.00  0.00     0.185 HD
ENDROOT
BRANCH   8  14
HETATM   14  N4  UNL     1      38.942   0.307  10.798  1.00  0.00    -0.127 N
HETATM   15  C5  UNL     1      39.522   0.737   9.525  1.00  0.00     0.168 C
HETATM   16  C6  UNL     1      38.367   0.643   8.518  1.00  0.00     0.007 C
HETATM   17  C7  UNL     1      38.239  -0.692   7.919  1.00  0.00     0.006 C
HETATM   18  C11 UNL     1      37.162   1.173   9.220  1.00  0.00     0.029 C
HETATM   19  C8  UNL     1      37.209  -1.602   8.448  1.00  0.00     0.002 C
HETATM   20  C9  UNL     1      36.068  -0.952   9.175  1.00  0.00     0.023 C
HETATM   21  C10 UNL     1      36.684   0.040  10.142  1.00  0.00     0.100 C
HETATM   22  N5  UNL     1      37.853  -0.568  10.707  1.00  0.00    -0.119 NA
ENDBRANCH   8  14
BRANCH   9  23
HETATM   23  C12 UNL     1      40.975  -1.123  12.641  1.00  0.00     0.158 C
BRANCH  23  24
HETATM   24  C13 UNL     1      42.278  -0.947  11.909  1.00  0.00     0.120 C
BRANCH  24  25
HETATM   25  C14 UNL     1      42.229  -1.507  10.542  1.00  0.00     0.232 C
HETATM   26  N7  UNL     1      43.181  -1.127   9.571  1.00  0.00    -0.062 NA
HETATM   27  O1  UNL     1      41.339  -2.324  10.238  1.00  0.00    -0.277 OA
ENDBRANCH  24  25
ENDBRANCH  23  24
ENDBRANCH   9  23
BRANCH   1  28
HETATM   28  N1  UNL     1      42.031   1.543  17.155  1.00  0.00    -0.234 N
ATOM     29  H12 UNL     1      41.688   0.968  17.924  1.00  0.00     0.174 HD
ATOM     30  H11 UNL     1      42.937   1.999  17.261  1.00  0.00     0.174 HD
ENDBRANCH   1  28
TORSDOF 5
ENDMDL