MODEL 3
REMARK VINA RESULT: -8.007969316      2.459      3.630
REMARK  6 active torsions:
REMARK  status: ('A' for Active; 'I' for Inactive)
REMARK    1  A    between atoms: N1_2  and  C2_3
REMARK    2  A    between atoms: N1_2  and  C5_7
REMARK    3  A    between atoms: C2_3  and  C3_4
REMARK    4  A    between atoms: C7_11  and  C8_12
REMARK    5  A    between atoms: C10_16  and  N5_17
REMARK    6  A    between atoms: C11_22  and  N7_23
ROOT
HETATM    1  C3  UNL     1      40.719   4.335   4.928  1.00  0.00     0.144 C
HETATM    2  C4  UNL     1      41.949   4.304   5.732  1.00  0.00     0.060 C
HETATM    3  N2  UNL     1      42.936   4.283   6.352  1.00  0.00    -0.197 NA
ENDROOT
BRANCH   1   4
HETATM    4  C2  UNL     1      40.334   2.935   4.491  1.00  0.00     0.155 C
BRANCH   4   5
HETATM    5  N1  UNL     1      38.997   2.595   4.877  1.00  0.00    -0.221 N
HETATM    6  C1  UNL     1      37.919   3.028   4.007  1.00  0.00     0.168 C
BRANCH   5   7
HETATM    7  C5  UNL     1      38.669   1.879   6.052  1.00  0.00     0.682 A
HETATM    8  N3  UNL     1      39.002   2.391   7.282  1.00  0.00    -0.201 N
HETATM    9  C6  UNL     1      38.731   1.799   8.432  1.00  0.00     0.121 A
ATOM     10  H3  UNL     1      39.491   3.286   7.311  1.00  0.00     0.183 HD
HETATM   11  C7  UNL     1      38.070   0.590   8.440  1.00  0.00     0.056 A
HETATM   12  C15 UNL     1      37.732   0.071   7.220  1.00  0.00     0.269 A
HETATM   13  O1  UNL     1      37.127  -1.030   7.158  1.00  0.00    -0.267 OA
HETATM   14  N10 UNL     1      38.026   0.704   6.041  1.00  0.00    -0.155 N
ATOM     15  H10 UNL     1      37.756   0.281   5.154  1.00  0.00     0.187 HD
BRANCH  11  16
HETATM   16  C8  UNL     1      37.766  -0.066   9.737  1.00  0.00     0.186 C
HETATM   17  C9  UNL     1      37.483   0.952  10.809  1.00  0.00     0.066 A
HETATM   18  N4  UNL     1      36.406   1.751  11.024  1.00  0.00    -0.193 N
HETATM   19  C12 UNL     1      38.562   0.996  11.653  1.00  0.00     0.030 A
HETATM   20  C10 UNL     1      36.399   2.591  12.073  1.00  0.00     0.677 A
ATOM     21  H4  UNL     1      35.607   1.714  10.391  1.00  0.00     0.184 HD
HETATM   22  N6  UNL     1      37.455   2.638  12.905  1.00  0.00    -0.177 N
HETATM   23  C11 UNL     1      38.529   1.866  12.722  1.00  0.00     0.124 A
ATOM     24  H6  UNL     1      37.435   3.280  13.697  1.00  0.00     0.185 HD
HETATM   25  C13 UNL     1      39.612   0.032  11.223  1.00  0.00     0.180 C
HETATM   26  N8  UNL     1      38.905  -0.802  10.249  1.00  0.00    -0.300 N
HETATM   27  C14 UNL     1      39.284  -2.108   9.884  1.00  0.00     0.181 C
HETATM   28  N9  UNL     1      39.611  -3.181   9.569  1.00  0.00    -0.172 NA
BRANCH  20  29
HETATM   29  N5  UNL     1      35.354   3.336  12.240  1.00  0.00    -0.234 N
ATOM     30  H52 UNL     1      35.093   3.711  13.152  1.00  0.00     0.174 HD
ATOM     31  H51 UNL     1      34.785   3.545  11.420  1.00  0.00     0.174 HD
ENDBRANCH  20  29
BRANCH  23  32
HETATM   32  N7  UNL     1      39.544   1.912  13.519  1.00  0.00    -0.385 N
ATOM     33  H72 UNL     1      39.675   2.737  14.103  1.00  0.00     0.157 HD
ATOM     34  H71 UNL     1      40.216   1.147  13.580  1.00  0.00     0.157 HD
ENDBRANCH  23  32
ENDBRANCH  11  16
ENDBRANCH   5   7
ENDBRANCH   4   5
ENDBRANCH   1   4
TORSDOF 6
ENDMDL