MODEL 5
REMARK VINA RESULT: -9.012328278      3.969      7.654
REMARK  4 active torsions:
REMARK  status: ('A' for Active; 'I' for Inactive)
REMARK    1  A    between atoms: C2_2  and  C3_3
REMARK    2  A    between atoms: C3_3  and  N1_4
REMARK    3  A    between atoms: C6_12  and  N4_13
REMARK    4  A    between atoms: C12_26  and  C13_27
ROOT
HETATM    1  N4  UNL     1      38.759   1.627   9.695  1.00  0.00    -0.066 N
HETATM    2  N5  UNL     1      38.255   2.573  10.623  1.00  0.00    -0.273 N
ATOM      3  H5  UNL     1      37.964   3.488  10.281  1.00  0.00     0.189 HD
HETATM    4  C7  UNL     1      38.138   2.294  12.011  1.00  0.00     0.199 A
HETATM    5  N6  UNL     1      38.510   1.115  12.455  1.00  0.00    -0.347 N
ATOM      6  H6  UNL     1      38.429   0.907  13.450  1.00  0.00     0.167 HD
HETATM    7  C8  UNL     1      39.020   0.131  11.584  1.00  0.00     0.098 A
HETATM    8  C9  UNL     1      39.143   0.376  10.235  1.00  0.00     0.174 A
HETATM    9  N7  UNL     1      39.644  -0.712   9.632  1.00  0.00    -0.329 N
ATOM     10  H7  UNL     1      39.838  -0.805   8.635  1.00  0.00     0.168 HD
HETATM   11  C10 UNL     1      39.852  -1.675  10.579  1.00  0.00     0.133 A
HETATM   12  C11 UNL     1      40.373  -2.956  10.288  1.00  0.00     0.119 C
HETATM   13  N8  UNL     1      40.787  -4.018  10.057  1.00  0.00    -0.190 NA
HETATM   14  C12 UNL     1      39.460  -1.147  11.800  1.00  0.00     0.097 A
ENDROOT
BRANCH  14  15
HETATM   15  C13 UNL     1      39.532  -1.878  13.056  1.00  0.00     0.270 C
HETATM   16  N9  UNL     1      40.201  -1.278  14.154  1.00  0.00    -0.057 NA
HETATM   17  O2  UNL     1      39.030  -3.009  13.205  1.00  0.00    -0.271 OA
ENDBRANCH  14  15
BRANCH   1  18
HETATM   18  C6  UNL     1      38.840   1.965   8.308  1.00  0.00     0.708 A
HETATM   19  N3  UNL     1      38.104   1.375   7.348  1.00  0.00    -0.171 N
HETATM   20  C5  UNL     1      38.413   1.936   6.143  1.00  0.00     0.170 A
ATOM     21  H3  UNL     1      37.424   0.629   7.498  1.00  0.00     0.186 HD
HETATM   22  N2  UNL     1      38.183   1.947   4.830  1.00  0.00    -0.291 N
HETATM   23  C14 UNL     1      39.369   2.898   6.384  1.00  0.00     0.172 A
HETATM   24  C4  UNL     1      38.967   2.882   4.277  1.00  0.00     0.330 A
ATOM     25  H2  UNL     1      37.524   1.347   4.332  1.00  0.00     0.172 HD
HETATM   26  N1  UNL     1      39.714   3.487   5.228  1.00  0.00    -0.278 N
HETATM   27  O1  UNL     1      39.006   3.161   3.050  1.00  0.00    -0.246 OA
HETATM   28  N10 UNL     1      39.617   2.900   7.716  1.00  0.00    -0.170 N
ATOM     29  H10 UNL     1      40.282   3.507   8.195  1.00  0.00     0.186 HD
BRANCH  26  30
HETATM   30  C3  UNL     1      40.659   4.544   4.973  1.00  0.00     0.162 C
BRANCH  30  31
HETATM   31  C2  UNL     1      42.011   4.094   5.305  1.00  0.00    -0.017 C
HETATM   32  C1  UNL     1      42.594   4.492   6.418  1.00  0.00     0.008 C
ENDBRANCH  30  31
ENDBRANCH  26  30
ENDBRANCH   1  18
TORSDOF 4
ENDMDL