MODEL 2
REMARK VINA RESULT: -8.497046997      1.435      2.274
REMARK  5 active torsions:
REMARK  status: ('A' for Active; 'I' for Inactive)
REMARK    1  A    between atoms: C2_2  and  N1_4
REMARK    2  A    between atoms: N2_7  and  C6_8
REMARK    3  A    between atoms: C7_11  and  N4_12
REMARK    4  A    between atoms: C8_15  and  C9_16
REMARK    5  A    between atoms: C11_25  and  N10_26
ROOT
HETATM    1  N4  UNL     1      39.491   1.235  12.818  1.00  0.00    -0.069 N
HETATM    2  N5  UNL     1      39.005   2.310  13.402  1.00  0.00    -0.272 N
ATOM      3  H5  UNL     1      38.234   2.809  12.959  1.00  0.00     0.188 HD
HETATM    4  C8  UNL     1      39.501   2.771  14.568  1.00  0.00     0.131 A
HETATM    5  C10 UNL     1      40.544   2.087  15.154  1.00  0.00     0.163 A
HETATM    6  N8  UNL     1      41.099   2.528  16.379  1.00  0.00    -0.080 NA
HETATM    7  N9  UNL     1      41.067   0.971  14.573  1.00  0.00    -0.175 N
ATOM      8  H9  UNL     1      41.839   0.456  14.997  1.00  0.00     0.185 HD
HETATM    9  C11 UNL     1      40.511   0.586  13.413  1.00  0.00     0.700 A
ENDROOT
BRANCH   1  10
HETATM   10  C7  UNL     1      38.941   0.756  11.556  1.00  0.00     0.154 A
HETATM   11  N3  UNL     1      39.013   1.442  10.461  1.00  0.00    -0.320 N
HETATM   12  C6  UNL     1      38.498   0.968   9.342  1.00  0.00     0.148 A
ATOM     13  H3  UNL     1      39.470   2.354  10.463  1.00  0.00     0.169 HD
HETATM   14  S1  UNL     1      37.870  -0.540   9.846  1.00  0.00    -0.062 SA
HETATM   15  C12 UNL     1      38.313  -0.469  11.493  1.00  0.00     0.104 A
BRANCH  12  16
HETATM   16  N2  UNL     1      38.501   1.593   8.043  1.00  0.00    -0.358 N
HETATM   17  C5  UNL     1      39.497   2.607   7.835  1.00  0.00     0.155 C
HETATM   18  C4  UNL     1      39.424   3.251   6.489  1.00  0.00     0.292 C
HETATM   19  N1  UNL     1      38.971   2.232   5.557  1.00  0.00     0.095 N
HETATM   20  C14 UNL     1      37.595   1.887   5.764  1.00  0.00     0.292 C
HETATM   21  C13 UNL     1      37.527   1.161   7.104  1.00  0.00     0.155 C
BRANCH  19  22
HETATM   22  C2  UNL     1      39.371   2.498   4.214  1.00  0.00     0.215 C
HETATM   23  C1  UNL     1      40.568   3.362   4.041  1.00  0.00     0.042 C
HETATM   24  C3  UNL     1      38.211   3.072   3.450  1.00  0.00     0.042 C
ENDBRANCH  19  22
ENDBRANCH  12  16
ENDBRANCH   1  10
BRANCH   9  25
HETATM   25  N10 UNL     1      40.967  -0.485  12.804  1.00  0.00    -0.233 N
ATOM     26 2H10 UNL     1      41.788  -0.409  12.204  1.00  0.00     0.174 HD
ATOM     27 1H10 UNL     1      40.465  -1.358  12.972  1.00  0.00     0.174 HD
ENDBRANCH   9  25
BRANCH   4  28
HETATM   28  C9  UNL     1      38.960   3.956  15.206  1.00  0.00     0.141 C
HETATM   29  N6  UNL     1      38.548   3.901  16.412  1.00  0.00    -0.386 N
ATOM     30  H62 UNL     1      38.594   3.027  16.937  1.00  0.00     0.157 HD
ATOM     31  H61 UNL     1      38.168   4.735  16.860  1.00  0.00     0.157 HD
HETATM   32  N7  UNL     1      38.896   5.166  14.479  1.00  0.00    -0.081 NA
ENDBRANCH   4  28
TORSDOF 5
ENDMDL