MODEL 1
REMARK VINA RESULT: -8.962358786      0.000      0.000
REMARK  5 active torsions:
REMARK  status: ('A' for Active; 'I' for Inactive)
REMARK    1  A    between atoms: N2_5  and  C4_6
REMARK    2  A    between atoms: C8_19  and  C9_20
REMARK    3  A    between atoms: C9_20  and  N7_21
REMARK    4  A    between atoms: C9_20  and  C10_25
REMARK    5  A    between atoms: N8_31  and  N9_32
ROOT
HETATM    1  C4  UNL     1      39.404   2.915  14.822  1.00  0.00     0.150 A
HETATM    2  N3  UNL     1      40.060   3.023  15.996  1.00  0.00    -0.175 N
ATOM      3  H3  UNL     1      39.784   3.754  16.650  1.00  0.00     0.186 HD
HETATM    4  C5  UNL     1      41.061   2.202  16.329  1.00  0.00     0.679 A
HETATM    5  N4  UNL     1      41.643   2.364  17.471  1.00  0.00    -0.234 N
ATOM      6  H41 UNL     1      42.407   1.737  17.725  1.00  0.00     0.174 HD
ATOM      7  H42 UNL     1      41.344   3.105  18.105  1.00  0.00     0.174 HD
HETATM    8  N5  UNL     1      41.454   1.225  15.494  1.00  0.00    -0.173 N
ATOM      9  H5  UNL     1      42.219   0.608  15.765  1.00  0.00     0.186 HD
HETATM   10  C6  UNL     1      40.852   1.052  14.308  1.00  0.00     0.174 A
HETATM   11  C7  UNL     1      39.832   1.897  13.978  1.00  0.00     0.125 A
HETATM   12  N6  UNL     1      39.404   1.515  12.752  1.00  0.00    -0.337 N
ATOM     13  H6  UNL     1      38.646   1.956  12.232  1.00  0.00     0.167 HD
HETATM   14  C8  UNL     1      40.129   0.468  12.323  1.00  0.00     0.137 A
HETATM   15  N8  UNL     1      41.025   0.178  13.280  1.00  0.00    -0.229 N
ENDROOT
BRANCH  14  16
HETATM   16  C9  UNL     1      39.971  -0.234  11.038  1.00  0.00     0.256 C
BRANCH  16  17
HETATM   17  N7  UNL     1      39.581   0.679   9.968  1.00  0.00    -0.068 N
ATOM     18  H73 UNL     1      38.715   1.169  10.194  1.00  0.00     0.275 HD
ATOM     19  H72 UNL     1      40.209   1.480   9.915  1.00  0.00     0.275 HD
ATOM     20  H71 UNL     1      39.514   0.200   9.070  1.00  0.00     0.275 HD
ENDBRANCH  16  17
BRANCH  16  21
HETATM   21  C10 UNL     1      38.936  -1.330  11.076  1.00  0.00     0.024 C
HETATM   22  C11 UNL     1      38.943  -2.034   9.742  1.00  0.00     0.007 C
HETATM   23  C12 UNL     1      40.130  -2.949   9.570  1.00  0.00     0.000 C
HETATM   24  C13 UNL     1      39.994  -4.033  10.642  1.00  0.00     0.000 C
HETATM   25  C14 UNL     1      40.127  -3.359  11.972  1.00  0.00     0.000 C
HETATM   26  C15 UNL     1      39.128  -2.283  12.225  1.00  0.00     0.007 C
ENDBRANCH  16  21
ENDBRANCH  14  16
BRANCH  15  27
HETATM   27  N9  UNL     1      41.997  -0.814  13.315  1.00  0.00    -0.335 N
ATOM     28  H92 UNL     1      42.518  -1.188  14.107  1.00  0.00     0.177 HD
ATOM     29  H91 UNL     1      42.301  -1.299  12.472  1.00  0.00     0.177 HD
ENDBRANCH  15  27
BRANCH   1  30
HETATM   30  N2  UNL     1      38.348   3.751  14.421  1.00  0.00    -0.355 N
HETATM   31  C3  UNL     1      38.647   5.114  13.999  1.00  0.00     0.169 C
HETATM   32  C2  UNL     1      37.905   6.064  14.896  1.00  0.00     0.082 C
HETATM   33  N1  UNL     1      36.726   5.579  15.467  1.00  0.00    -0.375 N
HETATM   34  C1  UNL     1      36.585   5.725  16.881  1.00  0.00     0.154 C
HETATM   35  C17 UNL     1      36.065   4.486  14.878  1.00  0.00     0.082 C
HETATM   36  C16 UNL     1      36.952   3.377  14.388  1.00  0.00     0.169 C
ENDBRANCH   1  30
TORSDOF 5
ENDMDL