MODEL 4
REMARK VINA RESULT: -8.418308143      2.019      3.530
REMARK  8 active torsions:
REMARK  status: ('A' for Active; 'I' for Inactive)
REMARK    1  A    between atoms: C4_7  and  N3_8
REMARK    2  A    between atoms: N3_8  and  C5_10
REMARK    3  A    between atoms: N7_21  and  O1_22
REMARK    4  A    between atoms: C12_28  and  N9_29
REMARK    5  A    between atoms: N9_29  and  C13_31
REMARK    6  A    between atoms: C13_31  and  C14_32
REMARK    7  A    between atoms: C14_32  and  C15_33
REMARK    8  A    between atoms: C15_33  and  N10_34
ROOT
HETATM    1  N1  UNL     1      40.434  -4.945   9.481  1.00  0.00    -0.188 NA
HETATM    2  C1  UNL     1      40.206  -3.820   9.659  1.00  0.00     0.137 C
HETATM    3  C2  UNL     1      39.928  -2.439   9.900  1.00  0.00     0.190 A
HETATM    4  N2  UNL     1      39.213  -1.767   8.986  1.00  0.00    -0.330 N
ATOM      5  H2  UNL     1      38.879  -2.233   8.143  1.00  0.00     0.168 HD
HETATM    6  C3  UNL     1      38.944  -0.468   9.202  1.00  0.00     0.094 A
HETATM    7  C4  UNL     1      38.243   0.469   8.456  1.00  0.00     0.093 A
HETATM    8  C10 UNL     1      38.315   1.627   9.199  1.00  0.00     0.121 A
HETATM    9  N8  UNL     1      39.018   1.411  10.334  1.00  0.00    -0.359 N
ATOM     10  H8  UNL     1      39.215   2.105  11.055  1.00  0.00     0.165 HD
HETATM   11  C11 UNL     1      39.411   0.134  10.351  1.00  0.00     0.105 A
HETATM   12  C12 UNL     1      40.159  -0.568  11.306  1.00  0.00     0.132 A
HETATM   13  N11 UNL     1      40.398  -1.864  11.040  1.00  0.00    -0.318 N
ATOM     14  H11 UNL     1      40.937  -2.423  11.700  1.00  0.00     0.169 HD
ENDROOT
BRANCH  12  15
HETATM   15  N9  UNL     1      40.564   0.052  12.356  1.00  0.00    -0.374 N
ATOM     16  H9  UNL     1      40.059   0.878  12.677  1.00  0.00     0.161 HD
BRANCH  15  17
HETATM   17  C13 UNL     1      41.720  -0.402  13.086  1.00  0.00     0.123 C
BRANCH  17  18
HETATM   18  C14 UNL     1      41.418  -0.484  14.582  1.00  0.00     0.047 C
BRANCH  18  19
HETATM   19  C15 UNL     1      41.063   0.910  15.083  1.00  0.00     0.231 C
BRANCH  19  20
HETATM   20  N10 UNL     1      41.689   1.181  16.357  1.00  0.00    -0.079 N
ATOM     21 3H10 UNL     1      41.078   1.723  16.967  1.00  0.00     0.274 HD
ATOM     22 2H10 UNL     1      41.767   0.337  16.924  1.00  0.00     0.274 HD
ATOM     23 1H10 UNL     1      42.594   1.635  16.233  1.00  0.00     0.274 HD
ENDBRANCH  19  20
ENDBRANCH  18  19
ENDBRANCH  17  18
ENDBRANCH  15  17
ENDBRANCH  12  15
BRANCH   7  24
HETATM   24  N3  UNL     1      37.611   0.227   7.203  1.00  0.00    -0.188 N
ATOM     25  H3  UNL     1      37.099  -0.646   7.072  1.00  0.00     0.184 HD
BRANCH  24  26
HETATM   26  C5  UNL     1      37.662   1.070   6.228  1.00  0.00     0.684 A
HETATM   27  N4  UNL     1      38.797   1.555   5.711  1.00  0.00    -0.172 N
HETATM   28  C6  UNL     1      38.820   2.438   4.689  1.00  0.00     0.177 A
ATOM     29  H4  UNL     1      39.685   1.244   6.107  1.00  0.00     0.186 HD
HETATM   30  C7  UNL     1      37.624   2.873   4.139  1.00  0.00     0.096 A
HETATM   31  N7  UNL     1      39.782   3.070   3.995  1.00  0.00    -0.201 N
HETATM   32  C8  UNL     1      36.459   2.366   4.680  1.00  0.00     0.139 A
HETATM   33  N6  UNL     1      37.931   3.734   3.153  1.00  0.00    -0.346 N
HETATM   34  N5  UNL     1      36.498   1.486   5.701  1.00  0.00    -0.199 N
ATOM     35  H5  UNL     1      35.622   1.127   6.081  1.00  0.00     0.183 HD
HETATM   36  C9  UNL     1      39.274   3.865   3.054  1.00  0.00     0.216 A
ATOM     37  H6  UNL     1      37.253   4.218   2.565  1.00  0.00     0.167 HD
BRANCH  31  38
HETATM   38  O1  UNL     1      41.124   2.905   4.238  1.00  0.00    -0.280 OA
ATOM     39  H1  UNL     1      41.755   3.615   4.196  1.00  0.00     0.245 HD
ENDBRANCH  31  38
ENDBRANCH  24  26
ENDBRANCH   7  24
TORSDOF 8
ENDMDL