MODEL 4
REMARK VINA RESULT: -8.450112208      4.143      7.642
REMARK  8 active torsions:
REMARK  status: ('A' for Active; 'I' for Inactive)
REMARK    1  A    between atoms: N1_1  and  C1_4
REMARK    2  A    between atoms: C2_8  and  N3_9
REMARK    3  A    between atoms: N3_9  and  C3_11
REMARK    4  A    between atoms: C3_11  and  C4_12
REMARK    5  A    between atoms: C4_12  and  N4_13
REMARK    6  A    between atoms: N4_13  and  C5_15
REMARK    7  A    between atoms: C6_18  and  N6_19
REMARK    8  A    between atoms: N6_19  and  C7_21
ROOT
HETATM    1  C5  UNL     1      39.619   2.661  13.987  1.00  0.00     0.152 A
HETATM    2  N5  UNL     1      39.442   3.687  14.866  1.00  0.00    -0.174 N
ATOM      3  H5  UNL     1      40.148   3.868  15.579  1.00  0.00     0.186 HD
HETATM    4  C6  UNL     1      38.349   4.461  14.802  1.00  0.00     0.681 A
HETATM    5  N7  UNL     1      37.442   4.200  13.855  1.00  0.00    -0.174 N
ATOM      6  H7  UNL     1      36.611   4.789  13.806  1.00  0.00     0.186 HD
HETATM    7  C11 UNL     1      37.569   3.180  12.944  1.00  0.00     0.159 A
HETATM    8  N8  UNL     1      36.667   2.902  11.986  1.00  0.00    -0.296 N
ATOM      9  H8  UNL     1      35.788   3.381  11.791  1.00  0.00     0.177 HD
HETATM   10  S1  UNL     1      37.328   1.587  11.186  1.00  0.00     0.069 SA
HETATM   11  N9  UNL     1      38.731   1.416  12.082  1.00  0.00    -0.306 N
ATOM     12  H9  UNL     1      39.473   0.726  11.963  1.00  0.00     0.176 HD
HETATM   13  C12 UNL     1      38.653   2.397  12.992  1.00  0.00     0.130 A
ENDROOT
BRANCH   1  14
HETATM   14  N4  UNL     1      40.675   1.997  14.132  1.00  0.00    -0.352 N
ATOM     15  H4  UNL     1      41.439   2.329  13.543  1.00  0.00     0.166 HD
BRANCH  14  16
HETATM   16  C4  UNL     1      41.033   0.896  14.931  1.00  0.00     0.082 C
BRANCH  16  17
HETATM   17  C3  UNL     1      41.350  -0.358  14.137  1.00  0.00     0.167 C
BRANCH  17  18
HETATM   18  N3  UNL     1      42.113  -0.051  12.944  1.00  0.00    -0.349 N
ATOM     19  H3  UNL     1      42.710   0.776  12.951  1.00  0.00     0.163 HD
BRANCH  18  20
HETATM   20  C2  UNL     1      42.075  -0.767  11.880  1.00  0.00     0.258 A
HETATM   21  O1  UNL     1      42.740  -0.573  10.760  1.00  0.00    -0.186 OA
HETATM   22  N2  UNL     1      42.421  -1.522   9.930  1.00  0.00    -0.088 N
HETATM   23  C1  UNL     1      41.536  -2.344  10.520  1.00  0.00     0.699 A
ATOM     24  H2  UNL     1      42.784  -1.625   8.982  1.00  0.00     0.214 HD
HETATM   25  N10 UNL     1      41.314  -1.866  11.761  1.00  0.00    -0.152 N
ATOM     26  H10 UNL     1      40.692  -2.261  12.467  1.00  0.00     0.188 HD
BRANCH  23  27
HETATM   27  N1  UNL     1      41.022  -3.382   9.964  1.00  0.00    -0.233 N
ATOM     28  H12 UNL     1      40.485  -4.132  10.401  1.00  0.00     0.174 HD
ATOM     29  H11 UNL     1      41.087  -3.598   8.969  1.00  0.00     0.174 HD
ENDBRANCH  23  27
ENDBRANCH  18  20
ENDBRANCH  17  18
ENDBRANCH  16  17
ENDBRANCH  14  16
ENDBRANCH   1  14
BRANCH   4  30
HETATM   30  N6  UNL     1      38.193   5.438  15.649  1.00  0.00    -0.221 N
ATOM     31  H6  UNL     1      38.464   6.389  15.400  1.00  0.00     0.178 HD
BRANCH  30  32
HETATM   32  C7  UNL     1      37.638   5.155  16.929  1.00  0.00     0.099 C
HETATM   33  C8  UNL     1      38.093   6.122  18.035  1.00  0.00     0.026 C
HETATM   34  C9  UNL     1      36.702   5.971  18.615  1.00  0.00     0.004 C
HETATM   35  C10 UNL     1      36.234   5.660  17.186  1.00  0.00     0.026 C
ENDBRANCH  30  32
ENDBRANCH   4  30
TORSDOF 8
ENDMDL