MODEL 1
REMARK VINA RESULT: -8.688377307      0.000      0.000
REMARK  6 active torsions:
REMARK  status: ('A' for Active; 'I' for Inactive)
REMARK    1  A    between atoms: O1_2  and  C2_3
REMARK    2  A    between atoms: C4_8  and  C5_9
REMARK    3  A    between atoms: C5_9  and  O2_10
REMARK    4  A    between atoms: O2_10  and  C6_11
REMARK    5  A    between atoms: C7_14  and  N3_15
REMARK    6  A    between atoms: C13_28  and  N7_29
ROOT
HETATM    1  C6  UNL     1      39.856   1.800  14.061  1.00  0.00     0.170 A
HETATM    2  N2  UNL     1      40.449   2.133  15.249  1.00  0.00    -0.170 N
ATOM      3  H2  UNL     1      40.206   3.021  15.688  1.00  0.00     0.186 HD
HETATM    4  C7  UNL     1      41.332   1.340  15.853  1.00  0.00     0.678 A
HETATM    5  N4  UNL     1      41.668   0.170  15.294  1.00  0.00    -0.194 N
ATOM      6  H4  UNL     1      42.345  -0.433  15.761  1.00  0.00     0.184 HD
HETATM    7  C8  UNL     1      41.122  -0.228  14.117  1.00  0.00     0.047 A
HETATM    8  C9  UNL     1      40.193   0.605  13.480  1.00  0.00     0.054 A
HETATM    9  C10 UNL     1      39.804  -0.115  12.244  1.00  0.00     0.042 A
HETATM   10  C11 UNL     1      38.940   0.214  11.249  1.00  0.00     0.142 A
HETATM   11  C12 UNL     1      38.164   1.382  11.145  1.00  0.00     0.119 C
HETATM   12  N5  UNL     1      37.500   2.307  10.988  1.00  0.00    -0.190 NA
HETATM   13  N6  UNL     1      38.791  -0.689  10.207  1.00  0.00    -0.181 N
ATOM     14  H6  UNL     1      38.144  -0.452   9.455  1.00  0.00     0.185 HD
HETATM   15  C13 UNL     1      39.437  -1.837  10.132  1.00  0.00     0.677 A
HETATM   16  N8  UNL     1      40.272  -2.137  11.111  1.00  0.00    -0.195 N
ATOM     17  H8  UNL     1      40.775  -3.023  11.060  1.00  0.00     0.184 HD
HETATM   18  C14 UNL     1      40.500  -1.337  12.178  1.00  0.00     0.046 A
HETATM   19  C15 UNL     1      41.359  -1.466  13.347  1.00  0.00     0.117 A
ENDROOT
BRANCH  15  20
HETATM   20  N7  UNL     1      39.264  -2.663   9.124  1.00  0.00    -0.234 N
ATOM     21  H72 UNL     1      39.638  -2.441   8.202  1.00  0.00     0.174 HD
ATOM     22  H71 UNL     1      38.755  -3.540   9.231  1.00  0.00     0.174 HD
ENDBRANCH  15  20
BRANCH   1  23
HETATM   23  O2  UNL     1      38.971   2.667  13.527  1.00  0.00    -0.333 OA
BRANCH  23  24
HETATM   24  C5  UNL     1      39.035   4.063  13.588  1.00  0.00     0.210 C
BRANCH  24  25
HETATM   25  C4  UNL     1      37.752   4.734  14.003  1.00  0.00     0.212 C
HETATM   26  N1  UNL     1      38.047   6.119  14.333  1.00  0.00    -0.066 N
HETATM   27  C3  UNL     1      38.163   6.231  15.756  1.00  0.00     0.264 C
ATOM     28  H12 UNL     1      37.364   6.769  13.944  1.00  0.00     0.277 HD
ATOM     29  H11 UNL     1      38.869   6.472  13.844  1.00  0.00     0.277 HD
HETATM   30  C2  UNL     1      38.138   4.834  16.320  1.00  0.00     0.148 C
HETATM   31  C16 UNL     1      37.286   4.099  15.314  1.00  0.00     0.069 C
BRANCH  30  32
HETATM   32  O1  UNL     1      37.581   4.796  17.598  1.00  0.00    -0.389 OA
HETATM   33  C1  UNL     1      37.999   5.941  18.267  1.00  0.00     0.202 C
ENDBRANCH  30  32
ENDBRANCH  24  25
ENDBRANCH  23  24
ENDBRANCH   1  23
BRANCH   4  34
HETATM   34  N3  UNL     1      41.846   1.722  16.968  1.00  0.00    -0.234 N
ATOM     35  H32 UNL     1      41.837   2.703  17.249  1.00  0.00     0.174 HD
ATOM     36  H31 UNL     1      42.268   1.022  17.578  1.00  0.00     0.174 HD
ENDBRANCH   4  34
TORSDOF 6
ENDMDL