MODEL 1
REMARK VINA RESULT: -6.109093167      0.000      0.000
REMARK  1 active torsions:
REMARK  status: ('A' for Active; 'I' for Inactive)
REMARK    1  A    between atoms: C2_2  and  C3_3
ROOT
HETATM    1  C3  UNL     1      16.387   1.474  13.713  1.00  0.00     0.238 C
HETATM    2  N1  UNL     1      17.251   2.390  13.042  1.00  0.00    -0.065 N
ATOM      3  H11 UNL     1      17.533   2.063  12.118  1.00  0.00     0.277 HD
ATOM      4  H12 UNL     1      18.180   2.436  13.460  1.00  0.00     0.277 HD
HETATM    5  C4  UNL     1      16.586   3.683  13.003  1.00  0.00     0.269 C
HETATM    6  C5  UNL     1      16.092   4.127  14.352  1.00  0.00     0.254 C
HETATM    7  C6  UNL     1      17.236   4.147  15.341  1.00  0.00     0.020 C
HETATM    8  C7  UNL     1      18.484   4.750  14.759  1.00  0.00     0.012 C
HETATM    9  C8  UNL     1      17.444   2.665  15.586  1.00  0.00     0.066 C
HETATM   10  C9  UNL     1      16.141   2.014  15.103  1.00  0.00     0.274 C
HETATM   11  C10 UNL     1      15.647   1.035  16.031  1.00  0.00     0.104 C
HETATM   12  N2  UNL     1      15.265   0.244  16.769  1.00  0.00    -0.194 NA
HETATM   13  N3  UNL     1      15.220   3.141  14.916  1.00  0.00     0.116 N
HETATM   14  C11 UNL     1      14.572   3.526  16.117  1.00  0.00     0.312 C
ENDROOT
BRANCH   1  15
HETATM   15  C2  UNL     1      16.821   0.052  13.684  1.00  0.00     0.032 C
HETATM   16  C1  UNL     1      16.931  -0.558  12.338  1.00  0.00     0.007 C
ENDBRANCH   1  15
TORSDOF 1
ENDMDL