MODEL 1
REMARK VINA RESULT: -5.964132263      0.000      0.000
REMARK  1 active torsions:
REMARK  status: ('A' for Active; 'I' for Inactive)
REMARK    1  A    between atoms: O1_2  and  C2_3
ROOT
HETATM    1  C2  UNL     1      16.325   2.774  13.384  1.00  0.00     0.159 C
HETATM    2  C3  UNL     1      16.877   3.929  12.570  1.00  0.00     0.304 C
HETATM    3  N1  UNL     1      18.223   4.255  12.983  1.00  0.00     0.086 N
HETATM    4  C4  UNL     1      18.710   5.427  12.328  1.00  0.00     0.310 C
HETATM    5  C5  UNL     1      18.379   4.291  14.416  1.00  0.00     0.273 C
HETATM    6  C6  UNL     1      17.059   4.374  15.141  1.00  0.00     0.044 C
HETATM    7  C7  UNL     1      16.179   3.171  14.840  1.00  0.00     0.013 C
HETATM    8  C8  UNL     1      14.763   3.600  15.044  1.00  0.00     0.015 C
HETATM    9  C9  UNL     1      14.306   3.517  16.478  1.00  0.00     0.028 C
HETATM   10  C10 UNL     1      14.587   2.111  16.959  1.00  0.00     0.232 C
HETATM   11  N2  UNL     1      16.013   1.937  16.967  1.00  0.00    -0.074 N
ATOM     12  H21 UNL     1      16.263   1.061  17.424  1.00  0.00     0.277 HD
ATOM     13  H22 UNL     1      16.450   2.598  17.609  1.00  0.00     0.277 HD
HETATM   14  C11 UNL     1      16.617   2.020  15.671  1.00  0.00     0.244 C
ENDROOT
BRANCH   1  15
HETATM   15  O1  UNL     1      17.136   1.666  13.209  1.00  0.00    -0.388 OA
HETATM   16  C1  UNL     1      16.655   0.914  12.152  1.00  0.00     0.202 C
ENDBRANCH   1  15
TORSDOF 1
ENDMDL