MODEL 4
REMARK VINA RESULT: -5.932757764      2.570      4.650
REMARK  2 active torsions:
REMARK  status: ('A' for Active; 'I' for Inactive)
REMARK    1  A    between atoms: C4_5  and  O1_6
REMARK    2  A    between atoms: C6_9  and  N2_10
ROOT
HETATM    1  N1  UNL     1      16.682   0.014  15.776  1.00  0.00    -0.197 NA
HETATM    2  C1  UNL     1      16.519   0.715  14.855  1.00  0.00     0.064 C
HETATM    3  C2  UNL     1      16.296   1.577  13.728  1.00  0.00     0.097 C
HETATM    4  C3  UNL     1      16.830   0.974  12.434  1.00  0.00     0.051 C
HETATM    5  C4  UNL     1      16.529   1.896  11.282  1.00  0.00     0.121 C
HETATM    6  C5  UNL     1      17.111   3.271  11.554  1.00  0.00     0.067 C
HETATM    7  C6  UNL     1      16.469   3.792  12.789  1.00  0.00     0.226 C
HETATM    8  C11 UNL     1      16.953   2.949  13.933  1.00  0.00     0.055 C
ENDROOT
BRANCH   5   9
HETATM    9  O1  UNL     1      15.133   1.972  11.158  1.00  0.00    -0.395 OA
ATOM     10  H1  UNL     1      14.939   2.183  10.252  1.00  0.00     0.210 HD
ENDBRANCH   5   9
BRANCH   7  11
HETATM   11  N2  UNL     1      16.645   5.194  12.966  1.00  0.00     0.093 N
HETATM   12  C7  UNL     1      17.680   5.784  12.186  1.00  0.00     0.273 C
HETATM   13  C8  UNL     1      18.038   7.045  12.984  1.00  0.00     0.032 C
HETATM   14  C9  UNL     1      18.028   6.448  14.400  1.00  0.00     0.032 C
HETATM   15  C10 UNL     1      16.763   5.616  14.325  1.00  0.00     0.273 C
ENDBRANCH   7  11
TORSDOF 2
ENDMDL