MODEL 2
REMARK VINA RESULT: -6.172696032      1.552      5.265
REMARK  1 active torsions:
REMARK  status: ('A' for Active; 'I' for Inactive)
REMARK    1  A    between atoms: N1_6  and  C6_7
ROOT
HETATM    1  C1  UNL     1      18.158   7.000  12.514  1.00  0.00     0.010 C
HETATM    2  C2  UNL     1      17.546   5.625  12.633  1.00  0.00    -0.018 C
HETATM    3  C3  UNL     1      18.331   4.846  13.659  1.00  0.00     0.011 C
HETATM    4  C4  UNL     1      17.579   4.929  14.956  1.00  0.00     0.020 C
HETATM    5  C5  UNL     1      17.284   3.516  15.421  1.00  0.00     0.278 C
HETATM    6  N1  UNL     1      15.925   3.341  15.006  1.00  0.00     0.095 N
HETATM    7  C10 UNL     1      15.237   4.579  15.225  1.00  0.00     0.278 C
HETATM    8  C11 UNL     1      16.245   5.576  14.658  1.00  0.00     0.020 C
HETATM    9  C12 UNL     1      16.135   5.652  13.159  1.00  0.00     0.011 C
ENDROOT
BRANCH   6  10
HETATM   10  C6  UNL     1      15.356   2.204  15.617  1.00  0.00     0.250 C
HETATM   11  C7  UNL     1      14.328   2.523  16.684  1.00  0.00     0.065 C
HETATM   12  C8  UNL     1      14.166   1.140  17.316  1.00  0.00     0.234 C
HETATM   13  N2  UNL     1      15.374   0.408  17.028  1.00  0.00    -0.073 N
HETATM   14  C9  UNL     1      16.308   1.352  16.414  1.00  0.00     0.268 C
ATOM     15  H22 UNL     1      15.761  -0.064  17.846  1.00  0.00     0.277 HD
ATOM     16  H21 UNL     1      15.212  -0.424  16.461  1.00  0.00     0.277 HD
ENDBRANCH   6  10
TORSDOF 1
ENDMDL