MODEL 1
REMARK VINA RESULT: -5.771760240      0.000      0.000
REMARK  1 active torsions:
REMARK  status: ('A' for Active; 'I' for Inactive)
REMARK    1  A    between atoms: C3_4  and  N2_5
ROOT
HETATM    1  N1  UNL     1      15.083  -0.063  17.487  1.00  0.00    -0.192 NA
HETATM    2  C1  UNL     1      15.361   0.856  16.839  1.00  0.00     0.089 C
HETATM    3  C2  UNL     1      15.717   1.999  16.057  1.00  0.00     0.110 C
HETATM    4  C3  UNL     1      16.255   1.886  14.842  1.00  0.00     0.096 C
ENDROOT
BRANCH   4   5
HETATM    5  N2  UNL     1      16.606   3.009  14.070  1.00  0.00    -0.386 N
HETATM    6  C4  UNL     1      16.954   4.249  14.706  1.00  0.00     0.142 C
HETATM    7  C5  UNL     1      18.422   4.501  14.377  1.00  0.00     0.144 C
HETATM    8  N3  UNL     1      18.669   4.312  12.970  1.00  0.00    -0.363 N
HETATM    9  C6  UNL     1      19.649   4.945  12.150  1.00  0.00     0.073 C
HETATM   10  C9  UNL     1      17.941   3.420  12.123  1.00  0.00     0.104 C
HETATM   11  N4  UNL     1      20.788   5.454  12.536  1.00  0.00    -0.389 N
HETATM   12  C7  UNL     1      19.147   4.927  10.748  1.00  0.00     0.078 C
ATOM     13  H42 UNL     1      21.131   5.466  13.496  1.00  0.00     0.157 HD
ATOM     14  H41 UNL     1      21.489   5.907  11.949  1.00  0.00     0.157 HD
HETATM   15  C8  UNL     1      17.839   4.191  10.825  1.00  0.00     0.034 C
HETATM   16  C10 UNL     1      16.629   2.955  12.637  1.00  0.00     0.147 C
ENDBRANCH   4   5
TORSDOF 1
ENDMDL