MODEL 1
REMARK VINA RESULT: -5.427750802      0.000      0.000
REMARK  4 active torsions:
REMARK  status: ('A' for Active; 'I' for Inactive)
REMARK    1  A    between atoms: C2_2  and  O1_4
REMARK    2  A    between atoms: C2_2  and  C4_6
REMARK    3  A    between atoms: C5_7  and  C6_8
REMARK    4  A    between atoms: C6_8  and  N1_9
ROOT
HETATM    1  C4  UNL     1      15.676   1.977  16.333  1.00  0.00    -0.067 C
HETATM    2  C5  UNL     1      16.306   2.591  15.497  1.00  0.00    -0.073 C
ENDROOT
BRANCH   2   3
HETATM    3  C6  UNL     1      17.051   3.333  14.452  1.00  0.00     0.365 C
BRANCH   3   4
HETATM    4  N1  UNL     1      17.611   4.495  15.071  1.00  0.00     0.100 N
HETATM    5  C7  UNL     1      16.870   5.706  14.821  1.00  0.00     0.283 C
HETATM    6  C8  UNL     1      16.411   5.717  13.377  1.00  0.00     0.104 C
HETATM    7  S1  UNL     1      17.952   5.741  12.403  1.00  0.00    -0.166 SA
HETATM    8  C9  UNL     1      19.338   5.380  13.505  1.00  0.00     0.104 C
HETATM    9  C10 UNL     1      19.004   4.602  14.719  1.00  0.00     0.283 C
ENDBRANCH   3   4
ENDBRANCH   2   3
BRANCH   1  10
HETATM   10  C2  UNL     1      14.888   1.217  17.312  1.00  0.00     0.114 C
HETATM   11  C1  UNL     1      13.403   1.212  16.932  1.00  0.00     0.060 C
HETATM   12  C3  UNL     1      15.030   1.935  18.645  1.00  0.00     0.060 C
BRANCH  10  13
HETATM   13  O1  UNL     1      15.372  -0.076  17.364  1.00  0.00    -0.378 OA
ATOM     14  H1  UNL     1      15.085  -0.565  16.602  1.00  0.00     0.211 HD
ENDBRANCH  10  13
ENDBRANCH   1  10
TORSDOF 4
ENDMDL