MODEL 3
REMARK VINA RESULT: -4.261150067      1.244      1.399
REMARK  2 active torsions:
REMARK  status: ('A' for Active; 'I' for Inactive)
REMARK    1  A    between atoms: S1_2  and  C2_3
REMARK    2  A    between atoms: C3_4  and  O1_5
ROOT
HETATM    1  C2  UNL     1      16.672   3.610  14.583  1.00  0.00     0.091 C
HETATM    2  C3  UNL     1      16.790   3.035  13.230  1.00  0.00     0.135 C
HETATM    3  C4  UNL     1      17.521   3.743  12.174  1.00  0.00     0.077 C
HETATM    4  C5  UNL     1      18.565   4.726  12.588  1.00  0.00     0.249 C
HETATM    5  N1  UNL     1      19.475   4.283  13.574  1.00  0.00    -0.061 N
ATOM      6  H11 UNL     1      20.339   4.822  13.530  1.00  0.00     0.278 HD
ATOM      7  H12 UNL     1      19.835   3.358  13.338  1.00  0.00     0.278 HD
HETATM    8  C6  UNL     1      18.957   4.290  14.877  1.00  0.00     0.250 C
HETATM    9  C7  UNL     1      17.542   4.785  14.909  1.00  0.00     0.091 C
HETATM   10  S2  UNL     1      17.623   5.987  13.530  1.00  0.00    -0.128 SA
ENDROOT
BRANCH   1  11
HETATM   11  S1  UNL     1      14.938   3.869  15.101  1.00  0.00    -0.165 SA
HETATM   12  C1  UNL     1      14.474   2.872  16.511  1.00  0.00     0.090 C
ENDBRANCH   1  11
BRANCH   2  13
HETATM   13  O1  UNL     1      17.256   1.704  13.260  1.00  0.00    -0.394 OA
ATOM     14  H1  UNL     1      16.925   1.195  12.530  1.00  0.00     0.210 HD
ENDBRANCH   2  13
TORSDOF 2
ENDMDL