MODEL 5
REMARK VINA RESULT: -4.592977020      2.233      4.656
REMARK  2 active torsions:
REMARK  status: ('A' for Active; 'I' for Inactive)
REMARK    1  A    between atoms: C2_2  and  C3_3
REMARK    2  A    between atoms: C9_13  and  O1_14
ROOT
HETATM    1  C3  UNL     1      18.293   6.768  13.520  1.00  0.00     0.022 A
HETATM    2  C4  UNL     1      17.405   6.159  14.554  1.00  0.00     0.287 C
HETATM    3  N1  UNL     1      17.817   4.889  15.067  1.00  0.00     0.114 N
HETATM    4  C5  UNL     1      16.926   3.871  14.528  1.00  0.00     0.277 C
HETATM    5  C6  UNL     1      17.003   4.081  13.008  1.00  0.00     0.066 C
HETATM    6  C7  UNL     1      18.411   4.429  12.601  1.00  0.00     0.224 C
HETATM    7  N2  UNL     1      19.379   3.944  13.569  1.00  0.00    -0.042 N
ATOM      8  H21 UNL     1      20.333   4.083  13.238  1.00  0.00     0.279 HD
ATOM      9  H22 UNL     1      19.372   2.925  13.620  1.00  0.00     0.279 HD
HETATM   10  C8  UNL     1      19.187   4.532  14.869  1.00  0.00     0.503 C
HETATM   11  C9  UNL     1      18.701   5.873  12.416  1.00  0.00     0.099 A
HETATM   12  C11 UNL     1      17.651   6.868  12.124  1.00  0.00     0.055 A
ENDROOT
BRANCH   1  13
HETATM   13  C2  UNL     1      19.088   7.959  13.960  1.00  0.00     0.010 C
HETATM   14  C1  UNL     1      19.063   8.284  15.402  1.00  0.00     0.006 C
ENDBRANCH   1  13
BRANCH  11  15
HETATM   15  O1  UNL     1      19.929   6.154  11.836  1.00  0.00    -0.382 OA
HETATM   16  C10 UNL     1      19.954   5.910  10.498  1.00  0.00     0.202 C
ENDBRANCH  11  15
TORSDOF 2
ENDMDL