MODEL 1
REMARK VINA RESULT: -5.254214379      0.000      0.000
REMARK  4 active torsions:
REMARK  status: ('A' for Active; 'I' for Inactive)
REMARK    1  A    between atoms: C2_2  and  N1_4
REMARK    2  A    between atoms: N1_4  and  C4_6
REMARK    3  A    between atoms: C4_6  and  N2_8
REMARK    4  A    between atoms: N3_10  and  C5_12
ROOT
HETATM    1  N2  UNL     1      17.348   2.423  15.813  1.00  0.00    -0.274 N
ATOM      2  H2  UNL     1      17.974   2.783  16.535  1.00  0.00     0.189 HD
HETATM    3  N3  UNL     1      17.157   3.046  14.710  1.00  0.00    -0.269 N
ATOM      4  H3  UNL     1      16.532   2.687  13.989  1.00  0.00     0.190 HD
ENDROOT
BRANCH   1   5
HETATM    5  C4  UNL     1      16.639   1.204  15.975  1.00  0.00     0.186 C
HETATM    6  S1  UNL     1      16.739   0.117  14.768  1.00  0.00    -0.040 SA
BRANCH   5   7
HETATM    7  N1  UNL     1      15.894   0.993  17.150  1.00  0.00    -0.362 N
ATOM      8  H1  UNL     1      16.108   0.208  17.766  1.00  0.00     0.162 HD
BRANCH   7   9
HETATM    9  C2  UNL     1      14.819   1.910  17.472  1.00  0.00     0.076 C
HETATM   10  C1  UNL     1      14.805   2.130  18.970  1.00  0.00     0.032 C
HETATM   11  C3  UNL     1      13.524   1.276  16.995  1.00  0.00     0.032 C
ENDBRANCH   7   9
ENDBRANCH   5   7
ENDBRANCH   1   5
BRANCH   3  12
HETATM   12  C5  UNL     1      17.865   4.264  14.550  1.00  0.00     0.190 C
HETATM   13  N4  UNL     1      17.375   5.437  14.661  1.00  0.00    -0.360 N
HETATM   14  C6  UNL     1      18.396   6.458  14.430  1.00  0.00     0.142 C
ATOM     15  H4  UNL     1      16.399   5.636  14.882  1.00  0.00     0.162 HD
HETATM   16  C7  UNL     1      19.462   5.667  13.682  1.00  0.00     0.142 C
HETATM   17  N5  UNL     1      19.239   4.346  14.247  1.00  0.00    -0.360 N
ATOM     18  H5  UNL     1      19.941   3.620  14.395  1.00  0.00     0.162 HD
ENDBRANCH   3  12
TORSDOF 4
ENDMDL