MODEL 2
REMARK VINA RESULT: -5.949482482      1.184      1.314
REMARK  3 active torsions:
REMARK  status: ('A' for Active; 'I' for Inactive)
REMARK    1  A    between atoms: O1_1  and  C1_3
REMARK    2  A    between atoms: C4_6  and  N1_7
REMARK    3  A    between atoms: C10_13  and  O2_14
ROOT
HETATM    1  N1  UNL     1      16.998   3.207  15.002  1.00  0.00    -0.407 N
HETATM    2  C5  UNL     1      16.389   3.191  13.726  1.00  0.00     0.124 C
HETATM    3  C6  UNL     1      16.596   4.485  12.981  1.00  0.00     0.033 C
HETATM    4  C7  UNL     1      16.608   5.692  13.906  1.00  0.00     0.017 C
HETATM    5  C8  UNL     1      18.008   5.290  14.260  1.00  0.00     0.033 C
HETATM    6  C9  UNL     1      18.063   4.108  15.209  1.00  0.00     0.124 C
HETATM    7  C10 UNL     1      18.089   4.758  12.832  1.00  0.00     0.129 C
ENDROOT
BRANCH   1   8
HETATM    8  C4  UNL     1      16.248   2.773  16.110  1.00  0.00     0.081 C
HETATM    9  C3  UNL     1      14.741   2.918  15.939  1.00  0.00     0.027 C
HETATM   10  C2  UNL     1      14.198   1.909  16.944  1.00  0.00     0.034 C
HETATM   11  C1  UNL     1      15.065   0.704  16.591  1.00  0.00     0.120 C
HETATM   12  C11 UNL     1      16.424   1.347  16.526  1.00  0.00     0.056 C
BRANCH  11  13
HETATM   13  O1  UNL     1      15.003  -0.284  17.552  1.00  0.00    -0.396 OA
ATOM     14  H1  UNL     1      15.510  -1.051  17.312  1.00  0.00     0.210 HD
ENDBRANCH  11  13
ENDBRANCH   1   8
BRANCH   7  15
HETATM   15  O2  UNL     1      18.879   3.647  12.655  1.00  0.00    -0.395 OA
ATOM     16  H2  UNL     1      18.413   2.830  12.515  1.00  0.00     0.210 HD
ENDBRANCH   7  15
TORSDOF 3
ENDMDL