MODEL 4
REMARK VINA RESULT: -4.162864304      1.658      4.332
REMARK  3 active torsions:
REMARK  status: ('A' for Active; 'I' for Inactive)
REMARK    1  A    between atoms: N1_2  and  C2_4
REMARK    2  A    between atoms: C2_4  and  N2_6
REMARK    3  A    between atoms: N2_6  and  N3_8
ROOT
HETATM    1  N2  UNL     1      17.469   2.646  15.842  1.00  0.00    -0.274 N
ATOM      2  H2  UNL     1      18.447   2.438  16.044  1.00  0.00     0.189 HD
ENDROOT
BRANCH   1   3
HETATM    3  C2  UNL     1      16.508   1.656  16.122  1.00  0.00     0.186 C
HETATM    4  S1  UNL     1      16.520   0.278  15.262  1.00  0.00    -0.040 SA
BRANCH   3   5
HETATM    5  N1  UNL     1      15.551   1.866  17.139  1.00  0.00    -0.370 N
HETATM    6  C1  UNL     1      14.293   1.167  17.177  1.00  0.00     0.148 C
ATOM      7  H1  UNL     1      15.759   2.541  17.876  1.00  0.00     0.161 HD
ENDBRANCH   3   5
ENDBRANCH   1   3
BRANCH   1   8
HETATM    8  N3  UNL     1      17.159   3.894  15.303  1.00  0.00    -0.290 N
HETATM    9  C3  UNL     1      18.241   4.656  14.857  1.00  0.00     0.095 C
HETATM   10  C4  UNL     1      18.502   4.429  13.398  1.00  0.00     0.122 C
HETATM   11  S2  UNL     1      16.833   3.968  12.794  1.00  0.00    -0.137 SA
HETATM   12  C5  UNL     1      16.048   3.933  14.451  1.00  0.00     0.164 C
HETATM   13  C6  UNL     1      15.182   5.151  14.561  1.00  0.00     0.046 C
ENDBRANCH   1   8
TORSDOF 3
ENDMDL