MODEL 2
REMARK VINA RESULT: -5.651832650      1.004      1.016
REMARK  3 active torsions:
REMARK  status: ('A' for Active; 'I' for Inactive)
REMARK    1  A    between atoms: C5_6  and  N2_7
REMARK    2  A    between atoms: N2_7  and  C6_9
REMARK    3  A    between atoms: C6_9  and  N3_11
ROOT
HETATM    1  N3  UNL     1      16.882   2.038  15.224  1.00  0.00    -0.270 N
ATOM      2  H3  UNL     1      17.729   2.439  15.625  1.00  0.00     0.180 HD
HETATM    3  C7  UNL     1      16.481   0.732  15.565  1.00  0.00     0.184 C
HETATM    4  N4  UNL     1      16.132  -0.341  15.840  1.00  0.00    -0.172 NA
ENDROOT
BRANCH   1   5
HETATM    5  C6  UNL     1      16.094   2.787  14.317  1.00  0.00     0.181 C
HETATM    6  S1  UNL     1      15.062   3.881  14.938  1.00  0.00    -0.040 SA
BRANCH   5   7
HETATM    7  N2  UNL     1      16.205   2.585  12.941  1.00  0.00    -0.360 N
ATOM      8  H2  UNL     1      15.542   3.075  12.341  1.00  0.00     0.162 HD
BRANCH   7   9
HETATM    9  C5  UNL     1      17.162   1.758  12.308  1.00  0.00     0.112 C
HETATM   10  C4  UNL     1      17.931   2.397  11.171  1.00  0.00     0.028 C
HETATM   11  C3  UNL     1      19.140   1.467  10.942  1.00  0.00     0.032 C
HETATM   12  C2  UNL     1      18.629   0.073  10.556  1.00  0.00     0.272 C
HETATM   13  N1  UNL     1      17.791  -0.412  11.603  1.00  0.00     0.086 N
HETATM   14  C1  UNL     1      17.483  -1.799  11.544  1.00  0.00     0.310 C
HETATM   15  C8  UNL     1      16.630   0.444  11.767  1.00  0.00     0.296 C
ENDBRANCH   7   9
ENDBRANCH   5   7
ENDBRANCH   1   5
TORSDOF 3
ENDMDL