MODEL 4
REMARK VINA RESULT: -5.237929245      1.549      2.231
REMARK  5 active torsions:
REMARK  status: ('A' for Active; 'I' for Inactive)
REMARK    1  A    between atoms: O1_1  and  C1_3
REMARK    2  A    between atoms: C1_3  and  C2_4
REMARK    3  A    between atoms: C2_4  and  C3_5
REMARK    4  A    between atoms: C4_6  and  C5_7
REMARK    5  A    between atoms: C5_7  and  O2_8
ROOT
HETATM    1  C5  UNL     1      15.782   4.862  14.253  1.00  0.00     0.151 C
HETATM    2  C6  UNL     1      16.713   5.773  14.996  1.00  0.00     0.323 C
HETATM    3  N1  UNL     1      17.641   6.343  14.064  1.00  0.00     0.092 N
HETATM    4  C7  UNL     1      17.052   6.646  12.779  1.00  0.00     0.273 C
HETATM    5  C8  UNL     1      16.680   5.367  12.056  1.00  0.00     0.039 C
HETATM    6  C9  UNL     1      16.572   4.255  13.108  1.00  0.00     0.037 C
HETATM    7  C10 UNL     1      18.003   4.008  13.579  1.00  0.00     0.039 C
HETATM    8  C11 UNL     1      18.685   5.340  13.800  1.00  0.00     0.273 C
ENDROOT
BRANCH   1   9
HETATM    9  C4  UNL     1      15.230   3.819  15.123  1.00  0.00    -0.066 C
HETATM   10  C3  UNL     1      14.764   2.973  15.857  1.00  0.00    -0.101 C
BRANCH  10  11
HETATM   11  C2  UNL     1      14.183   1.963  16.745  1.00  0.00     0.120 C
BRANCH  11  12
HETATM   12  C1  UNL     1      15.256   1.166  17.458  1.00  0.00     0.176 C
BRANCH  12  13
HETATM   13  O1  UNL     1      14.958  -0.190  17.225  1.00  0.00    -0.400 OA
ATOM     14  H1  UNL     1      15.040  -0.627  18.065  1.00  0.00     0.209 HD
ENDBRANCH  12  13
ENDBRANCH  11  12
ENDBRANCH  10  11
ENDBRANCH   1   9
BRANCH   1  15
HETATM   15  O2  UNL     1      14.741   5.605  13.650  1.00  0.00    -0.375 OA
ATOM     16  H2  UNL     1      14.371   5.124  12.919  1.00  0.00     0.211 HD
ENDBRANCH   1  15
TORSDOF 5
ENDMDL