MODEL 4
REMARK VINA RESULT: -5.178280530      2.353      4.373
REMARK  3 active torsions:
REMARK  status: ('A' for Active; 'I' for Inactive)
REMARK    1  A    between atoms: C5_6  and  O1_7
REMARK    2  A    between atoms: C8_11  and  C9_12
REMARK    3  A    between atoms: C9_12  and  O2_15
ROOT
HETATM    1  C1  UNL     1      16.052   1.691  12.318  1.00  0.00     0.310 C
HETATM    2  N1  UNL     1      16.963   2.259  13.312  1.00  0.00     0.092 N
HETATM    3  C2  UNL     1      17.503   3.482  12.802  1.00  0.00     0.282 C
HETATM    4  C3  UNL     1      17.421   4.451  13.906  1.00  0.00    -0.007 C
HETATM    5  C4  UNL     1      16.909   5.835  13.578  1.00  0.00     0.043 C
HETATM    6  C5  UNL     1      17.857   6.340  14.649  1.00  0.00     0.119 C
HETATM    7  C6  UNL     1      18.710   5.111  14.349  1.00  0.00     0.043 C
HETATM    8  C7  UNL     1      16.639   3.851  15.038  1.00  0.00     0.050 C
HETATM    9  C8  UNL     1      16.203   2.537  14.487  1.00  0.00     0.256 C
ENDROOT
BRANCH   6  10
HETATM   10  O1  UNL     1      18.472   7.547  14.358  1.00  0.00    -0.396 OA
ATOM     11  H1  UNL     1      18.039   8.311  14.721  1.00  0.00     0.210 HD
ENDBRANCH   6  10
BRANCH   9  12
HETATM   12  C9  UNL     1      16.372   1.494  15.576  1.00  0.00     0.081 C
HETATM   13  C10 UNL     1      16.543   0.150  14.960  1.00  0.00     0.047 C
HETATM   14  C11 UNL     1      15.193   1.515  16.535  1.00  0.00     0.047 C
BRANCH  12  15
HETATM   15  O2  UNL     1      17.491   1.826  16.327  1.00  0.00    -0.388 OA
ATOM     16  H2  UNL     1      17.200   2.120  17.183  1.00  0.00     0.210 HD
ENDBRANCH  12  15
ENDBRANCH   9  12
TORSDOF 3
ENDMDL