MODEL 1
REMARK VINA RESULT: -5.529203506      0.000      0.000
REMARK  4 active torsions:
REMARK  status: ('A' for Active; 'I' for Inactive)
REMARK    1  A    between atoms: C2_2  and  C5_5
REMARK    2  A    between atoms: N1_6  and  N2_8
REMARK    3  A    between atoms: N2_8  and  C6_10
REMARK    4  A    between atoms: C6_10  and  N3_12
ROOT
HETATM    1  N3  UNL     1      14.597   2.089  16.436  1.00  0.00    -0.269 N
ATOM      2  H3  UNL     1      13.715   2.548  16.663  1.00  0.00     0.180 HD
HETATM    3  C7  UNL     1      14.899   0.865  17.012  1.00  0.00     0.184 C
HETATM    4  N4  UNL     1      15.128  -0.172  17.516  1.00  0.00    -0.172 NA
ENDROOT
BRANCH   1   5
HETATM    5  C6  UNL     1      15.493   2.708  15.541  1.00  0.00     0.199 C
HETATM    6  S1  UNL     1      15.074   4.181  14.890  1.00  0.00    -0.038 SA
BRANCH   5   7
HETATM    7  N2  UNL     1      16.746   2.195  15.127  1.00  0.00    -0.276 N
ATOM      8  H2  UNL     1      17.485   2.067  15.819  1.00  0.00     0.189 HD
BRANCH   7   9
HETATM    9  N1  UNL     1      16.995   1.862  13.800  1.00  0.00    -0.313 N
HETATM   10  C5  UNL     1      16.684   0.719  13.295  1.00  0.00     0.088 C
ATOM     11  H1  UNL     1      17.444   2.554  13.200  1.00  0.00     0.185 HD
BRANCH  10  12
HETATM   12  C2  UNL     1      16.953   0.378  11.887  1.00  0.00    -0.018 C
HETATM   13  C1  UNL     1      16.930  -1.130  11.711  1.00  0.00     0.020 C
HETATM   14  C3  UNL     1      18.311   0.910  11.488  1.00  0.00     0.020 C
HETATM   15  C4  UNL     1      15.915   1.036  10.997  1.00  0.00     0.020 C
ENDBRANCH  10  12
ENDBRANCH   7   9
ENDBRANCH   5   7
ENDBRANCH   1   5
TORSDOF 4
ENDMDL