MODEL 5
REMARK VINA RESULT: -5.577985101      3.477      5.055
REMARK  2 active torsions:
REMARK  status: ('A' for Active; 'I' for Inactive)
REMARK    1  A    between atoms: N2_6  and  C5_7
REMARK    2  A    between atoms: C8_10  and  O1_11
ROOT
HETATM    1  C1  UNL     1      17.933   5.213  12.322  1.00  0.00     0.309 C
HETATM    2  N1  UNL     1      17.041   4.112  12.045  1.00  0.00     0.086 N
HETATM    3  C2  UNL     1      16.752   3.441  13.267  1.00  0.00     0.273 C
HETATM    4  C3  UNL     1      15.911   2.216  13.143  1.00  0.00     0.060 C
HETATM    5  C4  UNL     1      16.827   1.005  12.928  1.00  0.00     0.275 C
HETATM    6  N2  UNL     1      17.197   0.999  11.560  1.00  0.00     0.095 N
HETATM    7  C10 UNL     1      18.157   2.037  11.321  1.00  0.00     0.303 C
HETATM    8  C11 UNL     1      17.435   3.291  10.961  1.00  0.00     0.302 C
ENDROOT
BRANCH   6   9
HETATM    9  C5  UNL     1      17.530  -0.259  10.992  1.00  0.00     0.225 C
HETATM   10  C6  UNL     1      18.997  -0.451  10.697  1.00  0.00     0.038 C
HETATM   11  C7  UNL     1      19.286  -1.913  10.859  1.00  0.00     0.034 C
HETATM   12  C8  UNL     1      17.930  -2.558  11.061  1.00  0.00     0.120 C
HETATM   13  C9  UNL     1      17.208  -1.443  11.831  1.00  0.00     0.067 C
BRANCH  12  14
HETATM   14  O1  UNL     1      18.085  -3.679  11.883  1.00  0.00    -0.396 OA
ATOM     15  H1  UNL     1      18.915  -3.608  12.341  1.00  0.00     0.210 HD
ENDBRANCH  12  14
ENDBRANCH   6   9
TORSDOF 2
ENDMDL