MODEL 2
REMARK VINA RESULT: -5.535904846      2.934      4.765
REMARK  3 active torsions:
REMARK  status: ('A' for Active; 'I' for Inactive)
REMARK    1  A    between atoms: C2_2  and  N1_3
REMARK    2  A    between atoms: C6_7  and  O1_8
REMARK    3  A    between atoms: C9_12  and  O2_13
ROOT
HETATM    1  N1  UNL     1      17.408   2.140  11.946  1.00  0.00    -0.406 N
HETATM    2  C3  UNL     1      17.458   3.228  11.020  1.00  0.00     0.117 C
HETATM    3  C4  UNL     1      17.397   4.580  11.584  1.00  0.00     0.022 C
HETATM    4  C5  UNL     1      16.537   4.723  12.816  1.00  0.00     0.041 C
HETATM    5  C6  UNL     1      17.027   3.591  13.744  1.00  0.00     0.078 C
HETATM    6  C7  UNL     1      16.584   3.803  15.136  1.00  0.00     0.042 C
HETATM    7  C8  UNL     1      15.577   2.768  15.603  1.00  0.00     0.035 C
HETATM    8  C9  UNL     1      16.198   1.410  15.400  1.00  0.00     0.120 C
HETATM    9  C10 UNL     1      16.641   1.155  13.981  1.00  0.00     0.059 C
HETATM   10  C11 UNL     1      16.529   2.337  13.064  1.00  0.00     0.115 C
ENDROOT
BRANCH   1  11
HETATM   11  C2  UNL     1      17.382   0.869  11.329  1.00  0.00     0.113 C
HETATM   12  C1  UNL     1      18.775   0.380  10.976  1.00  0.00     0.026 C
ENDBRANCH   1  11
BRANCH   5  13
HETATM   13  O1  UNL     1      18.419   3.633  13.645  1.00  0.00    -0.388 OA
ATOM     14  H1  UNL     1      18.700   2.750  13.855  1.00  0.00     0.210 HD
ENDBRANCH   5  13
BRANCH   8  15
HETATM   15  O2  UNL     1      17.351   1.314  16.205  1.00  0.00    -0.396 OA
ATOM     16  H2  UNL     1      17.940   0.674  15.821  1.00  0.00     0.210 HD
ENDBRANCH   8  15
TORSDOF 3
ENDMDL