MODEL 5
REMARK VINA RESULT: -5.019015714      2.905      5.169
REMARK  4 active torsions:
REMARK  status: ('A' for Active; 'I' for Inactive)
REMARK    1  A    between atoms: C2_2  and  N1_4
REMARK    2  A    between atoms: N1_4  and  C4_6
REMARK    3  A    between atoms: C4_6  and  N2_8
REMARK    4  A    between atoms: N2_8  and  N3_10
ROOT
HETATM    1  N2  UNL     1      17.104   2.554  11.957  1.00  0.00    -0.295 N
ATOM      2  H2  UNL     1      16.413   2.659  11.215  1.00  0.00     0.183 HD
ENDROOT
BRANCH   1   3
HETATM    3  C4  UNL     1      17.329   3.575  12.899  1.00  0.00     0.182 C
HETATM    4  S1  UNL     1      17.610   5.105  12.417  1.00  0.00    -0.040 SA
BRANCH   3   5
HETATM    5  N1  UNL     1      17.314   3.286  14.273  1.00  0.00    -0.362 N
ATOM      6  H1  UNL     1      18.141   3.496  14.831  1.00  0.00     0.162 HD
BRANCH   5   7
HETATM    7  C2  UNL     1      16.172   2.703  14.913  1.00  0.00     0.075 C
HETATM    8  C1  UNL     1      15.140   3.766  15.186  1.00  0.00     0.032 C
HETATM    9  C3  UNL     1      16.558   1.974  16.198  1.00  0.00     0.032 C
ENDBRANCH   5   7
ENDBRANCH   3   5
ENDBRANCH   1   3
BRANCH   1  10
HETATM   10  N3  UNL     1      17.878   1.373  12.082  1.00  0.00    -0.225 NA
HETATM   11  C5  UNL     1      16.983   0.278  12.187  1.00  0.00     0.140 C
HETATM   12  C6  UNL     1      16.719  -0.487  10.951  1.00  0.00     0.183 C
HETATM   13  O1  UNL     1      17.597  -0.268   9.916  1.00  0.00    -0.389 OA
HETATM   14  C7  UNL     1      18.878  -0.115  10.472  1.00  0.00     0.183 C
HETATM   15  C8  UNL     1      18.883   1.276  11.086  1.00  0.00     0.140 C
ENDBRANCH   1  10
TORSDOF 4
ENDMDL