MODEL 2
REMARK VINA RESULT: -4.572599928      2.284      3.721
REMARK  3 active torsions:
REMARK  status: ('A' for Active; 'I' for Inactive)
REMARK    1  A    between atoms: C6_7  and  O1_8
REMARK    2  A    between atoms: C7_10  and  C8_11
REMARK    3  A    between atoms: C8_11  and  O2_14
ROOT
HETATM    1  C1  UNL     1      16.985   2.343  11.214  1.00  0.00     0.309 C
HETATM    2  N1  UNL     1      16.495   3.042  12.406  1.00  0.00     0.085 N
HETATM    3  C2  UNL     1      17.547   3.840  13.004  1.00  0.00     0.277 C
HETATM    4  C3  UNL     1      17.375   3.751  14.493  1.00  0.00     0.030 C
HETATM    5  C4  UNL     1      16.811   5.093  14.971  1.00  0.00     0.010 C
HETATM    6  C5  UNL     1      15.346   4.963  14.702  1.00  0.00     0.033 C
HETATM    7  C6  UNL     1      15.002   3.486  14.879  1.00  0.00     0.131 C
HETATM    8  C7  UNL     1      16.281   2.756  14.746  1.00  0.00     0.047 C
HETATM    9  C11 UNL     1      16.249   2.006  13.405  1.00  0.00     0.287 C
ENDROOT
BRANCH   8  10
HETATM   10  C8  UNL     1      16.584   1.763  15.802  1.00  0.00     0.063 C
HETATM   11  C9  UNL     1      16.519   0.336  15.382  1.00  0.00     0.046 C
HETATM   12  C10 UNL     1      15.569   1.940  16.931  1.00  0.00     0.046 C
BRANCH  10  13
HETATM   13  O2  UNL     1      17.829   2.053  16.349  1.00  0.00    -0.390 OA
ATOM     14  H2  UNL     1      18.075   1.352  16.940  1.00  0.00     0.210 HD
ENDBRANCH  10  13
ENDBRANCH   8  10
BRANCH   7  15
HETATM   15  O1  UNL     1      14.340   3.329  16.064  1.00  0.00    -0.395 OA
ATOM     16  H1  UNL     1      13.411   3.237  15.885  1.00  0.00     0.210 HD
ENDBRANCH   7  15
TORSDOF 3
ENDMDL