MODEL 1
REMARK VINA RESULT: -5.136640746      0.000      0.000
REMARK  1 active torsions:
REMARK  status: ('A' for Active; 'I' for Inactive)
REMARK    1  A    between atoms: C3_4  and  O1_5
ROOT
HETATM    1  C1  UNL     1      17.072   1.898  14.126  1.00  0.00     0.023 C
HETATM    2  C2  UNL     1      16.598   2.270  12.728  1.00  0.00     0.084 C
HETATM    3  S1  UNL     1      16.828   0.944  11.550  1.00  0.00    -0.131 SA
HETATM    4  C3  UNL     1      18.416   0.158  11.584  1.00  0.00     0.182 C
HETATM    5  C4  UNL     1      19.322   0.845  10.598  1.00  0.00     0.082 C
HETATM    6  C5  UNL     1      19.200   2.332  10.615  1.00  0.00     0.090 C
HETATM    7  C6  UNL     1      20.260   2.911   9.697  1.00  0.00     0.048 C
HETATM    8  C7  UNL     1      19.355   2.817  12.042  1.00  0.00     0.315 C
HETATM    9  N1  UNL     1      18.435   3.847  12.214  1.00  0.00     0.139 N
HETATM   10  C8  UNL     1      17.072   3.601  12.324  1.00  0.00     0.305 A
HETATM   11  C9  UNL     1      17.609   3.841  11.035  1.00  0.00     0.291 A
HETATM   12  C10 UNL     1      17.451   5.224  10.411  1.00  0.00     0.084 C
HETATM   13  O2  UNL     1      17.988   2.827  10.223  1.00  0.00    -0.338 OA
ENDROOT
BRANCH   4  14
HETATM   14  O1  UNL     1      18.261  -1.164  11.098  1.00  0.00    -0.385 OA
ATOM     15  H1  UNL     1      18.649  -1.757  11.731  1.00  0.00     0.211 HD
ENDBRANCH   4  14
TORSDOF 1
ENDMDL