MODEL 4
REMARK VINA RESULT: -5.621317554      2.769      4.308
REMARK  2 active torsions:
REMARK  status: ('A' for Active; 'I' for Inactive)
REMARK    1  A    between atoms: O1_2  and  C2_3
REMARK    2  A    between atoms: C11_14  and  O4_15
ROOT
HETATM    1  C2  UNL     1      17.366   1.481  12.391  1.00  0.00     0.158 C
HETATM    2  C3  UNL     1      18.786   1.626  11.963  1.00  0.00     0.045 C
HETATM    3  C4  UNL     1      19.222   0.655  10.921  1.00  0.00     0.015 C
HETATM    4  C5  UNL     1      18.837   3.031  11.371  1.00  0.00     0.160 C
HETATM    5  O2  UNL     1      19.661   3.035  10.263  1.00  0.00    -0.370 OA
HETATM    6  C6  UNL     1      19.658   4.267   9.647  1.00  0.00     0.075 C
HETATM    7  C7  UNL     1      20.048   4.063   8.186  1.00  0.00     0.048 C
HETATM    8  C8  UNL     1      20.567   5.228  10.343  1.00  0.00     0.048 C
HETATM    9  C9  UNL     1      18.267   4.898   9.619  1.00  0.00     0.205 C
HETATM   10  O3  UNL     1      17.363   3.821   9.687  1.00  0.00    -0.378 OA
HETATM   11  C10 UNL     1      17.398   3.369  11.002  1.00  0.00     0.182 C
HETATM   12  C11 UNL     1      16.617   2.108  11.208  1.00  0.00     0.179 C
ENDROOT
BRANCH   1  13
HETATM   13  O1  UNL     1      16.956   0.203  12.642  1.00  0.00    -0.388 OA
HETATM   14  C1  UNL     1      17.093  -0.020  14.030  1.00  0.00     0.202 C
ENDBRANCH   1  13
BRANCH  12  15
HETATM   15  O4  UNL     1      16.605   1.277  10.115  1.00  0.00    -0.390 OA
ATOM     16  H4  UNL     1      15.833   0.725  10.101  1.00  0.00     0.210 HD
ENDBRANCH  12  15
TORSDOF 2
ENDMDL