MODEL 3
REMARK VINA RESULT: -6.740691256      2.942      4.444
REMARK  1 active torsions:
REMARK  status: ('A' for Active; 'I' for Inactive)
REMARK    1  A    between atoms: C4_4  and  C5_5
ROOT
HETATM    1  C5  UNL     1      16.768   3.267  13.768  1.00  0.00     0.205 A
HETATM    2  O1  UNL     1      18.173   3.246  13.875  1.00  0.00    -0.342 OA
HETATM    3  C6  UNL     1      17.555   2.295  12.923  1.00  0.00     0.179 A
HETATM    4  C7  UNL     1      17.791   2.591  11.491  1.00  0.00     0.068 C
HETATM    5  C8  UNL     1      19.004   1.938  10.902  1.00  0.00     0.039 C
HETATM    6  C9  UNL     1      18.870   0.472  10.677  1.00  0.00     0.156 C
HETATM    7  C10 UNL     1      17.525   0.052  10.152  1.00  0.00     0.058 C
HETATM    8  C11 UNL     1      16.762  -0.214  11.432  1.00  0.00     0.179 C
HETATM    9  N1  UNL     1      17.757  -0.019  12.434  1.00  0.00    -0.200 N
HETATM   10  N2  UNL     1      17.561   0.960  13.330  1.00  0.00    -0.277 N
ATOM     11  H2  UNL     1      17.415   0.728  14.312  1.00  0.00     0.185 HD
HETATM   12  O2  UNL     1      18.957  -0.169  11.909  1.00  0.00    -0.258 OA
ENDROOT
BRANCH   1  13
HETATM   13  C4  UNL     1      16.091   2.693  14.971  1.00  0.00     0.012 C
HETATM   14  C2  UNL     1      15.368   3.422  15.784  1.00  0.00    -0.089 C
HETATM   15  C1  UNL     1      14.706   2.833  16.969  1.00  0.00     0.042 C
HETATM   16  C3  UNL     1      15.206   4.871  15.518  1.00  0.00     0.042 C
ENDBRANCH   1  13
TORSDOF 1
ENDMDL