MODEL 3
REMARK VINA RESULT: -6.753508662      1.031      1.766
REMARK  4 active torsions:
REMARK  status: ('A' for Active; 'I' for Inactive)
REMARK    1  A    between atoms: C6_6  and  C7_7
REMARK    2  A    between atoms: C7_7  and  O2_9
REMARK    3  A    between atoms: O2_9  and  O3_10
REMARK    4  A    between atoms: N1_15  and  O4_16
ROOT
HETATM    1  C1  UNL     1      17.431   5.814  14.286  1.00  0.00     0.016 C
HETATM    2  C2  UNL     1      18.018   4.456  14.373  1.00  0.00    -0.029 C
HETATM    3  C3  UNL     1      19.533   4.638  14.558  1.00  0.00     0.016 C
HETATM    4  C4  UNL     1      17.816   3.598  13.172  1.00  0.00     0.013 C
HETATM    5  C5  UNL     1      16.849   2.475  13.357  1.00  0.00     0.039 C
HETATM    6  C6  UNL     1      16.990   1.742  14.653  1.00  0.00     0.129 C
HETATM    7  C8  UNL     1      15.799   2.110  15.546  1.00  0.00     0.040 C
HETATM    8  C9  UNL     1      16.092   3.600  15.744  1.00  0.00     0.025 C
HETATM    9  C10 UNL     1      17.571   3.686  15.617  1.00  0.00     0.095 C
HETATM   10  N1  UNL     1      18.069   2.323  15.397  1.00  0.00    -0.175 NA
ENDROOT
BRANCH   6  11
HETATM   11  C7  UNL     1      17.067   0.287  14.526  1.00  0.00     0.313 C
HETATM   12  O1  UNL     1      16.584  -0.423  15.437  1.00  0.00    -0.260 OA
BRANCH  11  13
HETATM   13  O2  UNL     1      17.659  -0.311  13.423  1.00  0.00    -0.159 OA
BRANCH  13  14
HETATM   14  O3  UNL     1      16.910  -0.869  12.462  1.00  0.00    -0.242 OA
ATOM     15  H3  UNL     1      16.575  -1.752  12.561  1.00  0.00     0.254 HD
ENDBRANCH  13  14
ENDBRANCH  11  13
ENDBRANCH   6  11
BRANCH  10  16
HETATM   16  O4  UNL     1      18.384   1.697  16.520  1.00  0.00    -0.311 OA
ATOM     17  H4  UNL     1      18.725   0.817  16.412  1.00  0.00     0.237 HD
ENDBRANCH  10  16
TORSDOF 4
ENDMDL