MODEL 4
REMARK VINA RESULT: -6.045186441      1.413      4.982
REMARK  2 active torsions:
REMARK  status: ('A' for Active; 'I' for Inactive)
REMARK    1  A    between atoms: C10_12  and  C11_13
REMARK    2  A    between atoms: C11_13  and  O3_14
ROOT
HETATM    1  C1  UNL     1      18.299   3.554  10.122  1.00  0.00     0.015 C
HETATM    2  C2  UNL     1      18.555   2.589  11.279  1.00  0.00    -0.041 C
HETATM    3  C3  UNL     1      19.759   1.766  11.002  1.00  0.00     0.015 C
HETATM    4  C4  UNL     1      18.581   3.370  12.596  1.00  0.00     0.022 C
HETATM    5  C5  UNL     1      17.153   2.956  12.828  1.00  0.00     0.087 C
HETATM    6  C6  UNL     1      17.304   1.933  11.698  1.00  0.00     0.029 C
HETATM    7  C7  UNL     1      17.348   0.652  12.432  1.00  0.00     0.179 C
HETATM    8  O1  UNL     1      16.738   0.813  13.651  1.00  0.00    -0.332 OA
HETATM    9  C8  UNL     1      16.946   2.104  14.086  1.00  0.00     0.287 C
HETATM   10  O2  UNL     1      18.001   2.243  14.957  1.00  0.00    -0.330 OA
HETATM   11  C9  UNL     1      17.520   2.595  16.191  1.00  0.00     0.208 C
HETATM   12  C10 UNL     1      16.035   2.338  16.089  1.00  0.00     0.175 C
HETATM   13  O4  UNL     1      15.794   2.526  14.737  1.00  0.00    -0.323 OA
ENDROOT
BRANCH  12  14
HETATM   14  C11 UNL     1      15.703   0.929  16.530  1.00  0.00     0.198 C
BRANCH  14  15
HETATM   15  O3  UNL     1      16.848   0.172  16.740  1.00  0.00    -0.398 OA
ATOM     16  H3  UNL     1      16.651  -0.754  16.805  1.00  0.00     0.209 HD
ENDBRANCH  14  15
ENDBRANCH  12  14
TORSDOF 2
ENDMDL