MODEL 3
REMARK VINA RESULT: -5.484846212      2.216      3.794
REMARK  2 active torsions:
REMARK  status: ('A' for Active; 'I' for Inactive)
REMARK    1  A    between atoms: C4_4  and  O1_6
REMARK    2  A    between atoms: C6_9  and  O3_10
ROOT
HETATM    1  C1  UNL     1      15.292   3.392  15.033  1.00  0.00     0.015 C
HETATM    2  C2  UNL     1      16.390   3.407  14.328  1.00  0.00    -0.075 C
HETATM    3  C3  UNL     1      16.716   2.305  13.357  1.00  0.00     0.102 C
HETATM    4  C4  UNL     1      17.261   2.857  12.072  1.00  0.00     0.165 C
HETATM    5  C5  UNL     1      18.300   1.802  11.606  1.00  0.00     0.079 C
HETATM    6  O2  UNL     1      17.926   4.025  12.104  1.00  0.00    -0.318 OA
HETATM    7  C6  UNL     1      17.511   5.000  12.938  1.00  0.00     0.177 C
HETATM    8  C8  UNL     1      18.583   6.056  13.194  1.00  0.00     0.045 C
HETATM    9  C9  UNL     1      19.931   5.399  13.106  1.00  0.00     0.015 C
HETATM   10  C10 UNL     1      18.274   6.571  14.586  1.00  0.00     0.010 C
HETATM   11  C11 UNL     1      17.168   5.667  15.128  1.00  0.00     0.015 C
HETATM   12  C12 UNL     1      17.433   4.426  14.351  1.00  0.00     0.077 C
ENDROOT
BRANCH   4  13
HETATM   13  O1  UNL     1      16.221   2.769  11.137  1.00  0.00    -0.365 OA
ATOM     14  H1  UNL     1      16.264   1.892  10.776  1.00  0.00     0.213 HD
ENDBRANCH   4  13
BRANCH   7  15
HETATM   15  O3  UNL     1      16.308   5.566  12.607  1.00  0.00    -0.359 OA
HETATM   16  C7  UNL     1      16.300   6.458  11.576  1.00  0.00     0.205 C
ENDBRANCH   7  15
TORSDOF 2
ENDMDL