MODEL 3
REMARK VINA RESULT: -6.160858516      1.220      1.429
REMARK  2 active torsions:
REMARK  status: ('A' for Active; 'I' for Inactive)
REMARK    1  A    between atoms: O1_2  and  C2_3
REMARK    2  A    between atoms: C2_3  and  C3_5
ROOT
HETATM    1  C3  UNL     1      16.997   1.761  14.533  1.00  0.00     0.081 C
HETATM    2  C4  UNL     1      16.895   1.190  13.154  1.00  0.00     0.068 C
HETATM    3  C5  UNL     1      17.981   1.635  12.244  1.00  0.00     0.076 C
HETATM    4  C6  UNL     1      18.368   3.071  12.426  1.00  0.00     0.187 C
HETATM    5  C7  UNL     1      17.806   3.738  13.634  1.00  0.00     0.188 C
HETATM    6  N1  UNL     1      17.916   2.791  14.774  1.00  0.00    -0.383 N
ATOM      7  H1  UNL     1      18.540   2.875  15.576  1.00  0.00     0.159 HD
HETATM    8  O3  UNL     1      19.747   3.284  12.350  1.00  0.00    -0.318 OA
HETATM    9  C8  UNL     1      19.650   3.657  11.023  1.00  0.00     0.164 C
HETATM   10  C9  UNL     1      20.024   2.555  10.056  1.00  0.00     0.078 C
HETATM   11  C10 UNL     1      20.323   4.952  10.649  1.00  0.00     0.078 C
HETATM   12  O4  UNL     1      18.271   3.812  11.228  1.00  0.00    -0.318 OA
ENDROOT
BRANCH   1  13
HETATM   13  C2  UNL     1      16.859   0.646  15.496  1.00  0.00     0.305 C
HETATM   14  O2  UNL     1      16.756  -0.482  15.338  1.00  0.00    -0.258 OA
BRANCH  13  15
HETATM   15  O1  UNL     1      16.943   1.143  16.867  1.00  0.00    -0.322 OA
HETATM   16  C1  UNL     1      15.762   1.355  17.581  1.00  0.00     0.213 C
ENDBRANCH  13  15
ENDBRANCH   1  13
TORSDOF 2
ENDMDL