MODEL 3
REMARK VINA RESULT: -6.360760560      1.679      2.681
REMARK  1 active torsions:
REMARK  status: ('A' for Active; 'I' for Inactive)
REMARK    1  A    between atoms: N1_1  and  C1_5
ROOT
HETATM    1  C1  UNL     1      17.748   2.503  14.191  1.00  0.00     0.223 C
HETATM    2  C2  UNL     1      16.958   1.203  13.953  1.00  0.00     0.096 C
HETATM    3  C3  UNL     1      17.142   0.224  15.068  1.00  0.00     0.268 C
HETATM    4  O1  UNL     1      17.822   0.713  16.157  1.00  0.00    -0.329 OA
HETATM    5  C4  UNL     1      16.572   0.996  16.740  1.00  0.00     0.289 C
HETATM    6  C5  UNL     1      16.341   2.459  16.616  1.00  0.00     0.229 C
HETATM    7  O2  UNL     1      15.788   2.852  15.398  1.00  0.00    -0.372 OA
HETATM    8  C6  UNL     1      16.785   3.503  14.669  1.00  0.00     0.096 C
HETATM    9  C7  UNL     1      16.299   4.453  13.601  1.00  0.00     0.023 C
HETATM   10  C8  UNL     1      15.138   5.111  14.343  1.00  0.00     0.008 C
HETATM   11  C9  UNL     1      15.856   5.390  15.680  1.00  0.00     0.008 C
HETATM   12  C10 UNL     1      17.210   4.743  15.350  1.00  0.00     0.023 C
HETATM   13  C11 UNL     1      17.418   5.378  13.993  1.00  0.00     0.015 C
HETATM   14  O3  UNL     1      15.936   0.217  15.807  1.00  0.00    -0.329 OA
ENDROOT
BRANCH   1  15
HETATM   15  N1  UNL     1      18.397   2.791  12.935  1.00  0.00    -0.072 N
ATOM     16  H13 UNL     1      18.449   1.989  12.306  1.00  0.00     0.274 HD
ATOM     17  H12 UNL     1      17.851   3.392  12.318  1.00  0.00     0.274 HD
ATOM     18  H11 UNL     1      19.308   3.177  13.184  1.00  0.00     0.274 HD
ENDBRANCH   1  15
TORSDOF 1
ENDMDL