MODEL 1
REMARK VINA RESULT: -6.707464785      0.000      0.000
REMARK  2 active torsions:
REMARK  status: ('A' for Active; 'I' for Inactive)
REMARK    1  A    between atoms: O1_2  and  C2_3
REMARK       I    between atoms: C2_3  and  N1_5
REMARK    2  A    between atoms: C3_6  and  O3_7
ROOT
HETATM    1  C2  UNL     1      16.687   2.085  11.701  1.00  0.00     0.364 C
HETATM    2  O2  UNL     1      16.928   2.310  10.489  1.00  0.00    -0.238 OA
HETATM    3  N1  UNL     1      16.796   3.055  12.747  1.00  0.00    -0.296 N
HETATM    4  C3  UNL     1      17.218   4.324  12.220  1.00  0.00     0.225 C
HETATM    5  C4  UNL     1      17.106   5.492  13.105  1.00  0.00     0.058 C
HETATM    6  C5  UNL     1      17.049   5.196  14.570  1.00  0.00    -0.010 C
HETATM    7  C6  UNL     1      18.072   4.202  15.019  1.00  0.00     0.011 C
HETATM    8  C7  UNL     1      17.508   2.817  15.101  1.00  0.00     0.010 C
HETATM    9  C8  UNL     1      16.305   2.790  16.061  1.00  0.00     0.013 C
HETATM   10  C9  UNL     1      15.500   3.300  14.848  1.00  0.00     0.010 C
HETATM   11  C10 UNL     1      15.625   4.773  14.875  1.00  0.00     0.011 C
HETATM   12  C11 UNL     1      16.476   2.562  14.022  1.00  0.00     0.100 C
ENDROOT
BRANCH   1  13
HETATM   13  O1  UNL     1      16.286   0.760  11.970  1.00  0.00    -0.309 OA
HETATM   14  C1  UNL     1      17.082  -0.349  11.622  1.00  0.00     0.215 C
ENDBRANCH   1  13
BRANCH   4  15
HETATM   15  O3  UNL     1      16.528   4.591  11.014  1.00  0.00    -0.377 OA
ATOM     16  H3  UNL     1      16.321   5.516  10.962  1.00  0.00     0.212 HD
ENDBRANCH   4  15
TORSDOF 2
ENDMDL