MODEL 5
REMARK VINA RESULT: -5.778344082      1.756      3.275
REMARK  2 active torsions:
REMARK  status: ('A' for Active; 'I' for Inactive)
REMARK    1  A    between atoms: C2_2  and  O2_4
REMARK    2  A    between atoms: O2_4  and  C3_5
ROOT
HETATM    1  C3  UNL     1      16.785   2.924  15.015  1.00  0.00     0.273 C
HETATM    2  C4  UNL     1      15.409   3.600  14.808  1.00  0.00     0.116 C
HETATM    3  C5  UNL     1      15.117   4.410  15.999  1.00  0.00     0.065 C
HETATM    4  N1  UNL     1      14.406   3.826  17.054  1.00  0.00    -0.380 N
ATOM      5  H1  UNL     1      13.851   4.415  17.675  1.00  0.00     0.164 HD
HETATM    6  C6  UNL     1      14.448   2.450  17.265  1.00  0.00     0.096 C
HETATM    7  C7  UNL     1      15.318   1.634  16.382  1.00  0.00     0.267 C
HETATM    8  C8  UNL     1      16.016   0.459  17.087  1.00  0.00     0.077 C
HETATM    9  C9  UNL     1      17.187   0.949  16.218  1.00  0.00     0.230 C
HETATM   10  C10 UNL     1      17.035   0.576  14.784  1.00  0.00     0.041 C
HETATM   11  C11 UNL     1      16.981   1.901  14.029  1.00  0.00     0.075 C
HETATM   12  N2  UNL     1      16.624   2.252  16.317  1.00  0.00     0.138 N
ENDROOT
BRANCH   1  13
HETATM   13  O2  UNL     1      17.623   3.966  15.224  1.00  0.00    -0.278 OA
BRANCH  13  14
HETATM   14  C2  UNL     1      18.736   4.418  14.606  1.00  0.00     0.257 C
HETATM   15  C1  UNL     1      18.759   5.369  13.461  1.00  0.00     0.126 C
HETATM   16  O1  UNL     1      19.772   3.949  15.103  1.00  0.00    -0.266 OA
ENDBRANCH  13  14
ENDBRANCH   1  13
TORSDOF 2
ENDMDL