MODEL 2
REMARK VINA RESULT: -5.052427846      1.658      3.508
REMARK  2 active torsions:
REMARK  status: ('A' for Active; 'I' for Inactive)
REMARK    1  A    between atoms: C4_5  and  O1_6
REMARK    2  A    between atoms: C5_8  and  C6_9
ROOT
HETATM    1  C6  UNL     1      16.895   3.270  15.667  1.00  0.00     0.162 C
HETATM    2  C7  UNL     1      17.178   3.891  14.368  1.00  0.00     0.061 C
HETATM    3  N2  UNL     1      17.403   4.377  13.338  1.00  0.00    -0.197 NA
ENDROOT
BRANCH   1   4
HETATM    4  C5  UNL     1      15.853   2.222  15.533  1.00  0.00     0.264 C
HETATM    5  N1  UNL     1      14.587   2.447  16.050  1.00  0.00     0.092 N
HETATM    6  C1  UNL     1      14.260   3.648  16.687  1.00  0.00     0.310 C
HETATM    7  C2  UNL     1      14.230   1.318  16.874  1.00  0.00     0.275 C
HETATM    8  C3  UNL     1      15.580   0.954  17.468  1.00  0.00     0.064 C
HETATM    9  C4  UNL     1      16.408   0.949  16.191  1.00  0.00     0.154 C
BRANCH   9  10
HETATM   10  O1  UNL     1      16.061  -0.159  15.459  1.00  0.00    -0.393 OA
ATOM     11  H1  UNL     1      15.115  -0.180  15.381  1.00  0.00     0.210 HD
ENDBRANCH   9  10
ENDBRANCH   1   4
TORSDOF 2
ENDMDL