MODEL 5
REMARK VINA RESULT: -4.446247600      5.091      5.724
REMARK  2 active torsions:
REMARK  status: ('A' for Active; 'I' for Inactive)
REMARK    1  A    between atoms: O1_2  and  C2_3
REMARK    2  A    between atoms: C7_9  and  O2_10
ROOT
HETATM    1  C2  UNL     1      17.462   2.389  10.797  1.00  0.00     0.290 C
HETATM    2  C3  UNL     1      18.612   2.783  11.640  1.00  0.00     0.105 C
HETATM    3  C4  UNL     1      19.023   1.313  11.469  1.00  0.00     0.282 C
HETATM    4  N1  UNL     1      18.055   1.153  10.408  1.00  0.00     0.133 N
HETATM    5  C5  UNL     1      16.843   0.478  10.755  1.00  0.00     0.256 C
HETATM    6  C6  UNL     1      16.981  -0.773  11.569  1.00  0.00     0.046 C
HETATM    7  C7  UNL     1      16.378   1.667  11.549  1.00  0.00     0.217 C
ENDROOT
BRANCH   1   8
HETATM    8  O1  UNL     1      16.976   3.224   9.863  1.00  0.00    -0.355 OA
HETATM    9  C1  UNL     1      17.419   4.516   9.880  1.00  0.00     0.205 C
ENDBRANCH   1   8
BRANCH   7  10
HETATM   10  O2  UNL     1      15.096   2.050  11.141  1.00  0.00    -0.388 OA
ATOM     11  H2  UNL     1      14.690   2.663  11.743  1.00  0.00     0.210 HD
ENDBRANCH   7  10
TORSDOF 2
ENDMDL