MODEL 5
REMARK VINA RESULT: -4.211440816      1.889      4.223
REMARK  1 active torsions:
REMARK  status: ('A' for Active; 'I' for Inactive)
REMARK    1  A    between atoms: N1_2  and  N2_4
ROOT
HETATM    1  N2  UNL     1      16.828   1.857  13.741  1.00  0.00    -0.234 NA
HETATM    2  C2  UNL     1      16.055   2.337  14.829  1.00  0.00     0.115 C
HETATM    3  C3  UNL     1      16.411   3.675  15.350  1.00  0.00     0.046 C
HETATM    4  C4  UNL     1      17.641   4.298  14.833  1.00  0.00     0.273 C
HETATM    5  N3  UNL     1      17.966   4.047  13.472  1.00  0.00     0.085 N
HETATM    6  C5  UNL     1      18.880   5.066  13.001  1.00  0.00     0.309 C
HETATM    7  C6  UNL     1      16.860   3.941  12.580  1.00  0.00     0.288 C
HETATM    8  C7  UNL     1      16.371   2.510  12.528  1.00  0.00     0.143 C
ENDROOT
BRANCH   1   9
HETATM    9  N1  UNL     1      16.902   0.486  13.625  1.00  0.00    -0.359 N
HETATM   10  C1  UNL     1      16.951  -0.013  12.294  1.00  0.00     0.161 C
ATOM     11  H1  UNL     1      16.921  -0.129  14.439  1.00  0.00     0.173 HD
ENDBRANCH   1   9
TORSDOF 1
ENDMDL