MODEL 1
REMARK VINA RESULT: -5.021089607      0.000      0.000
REMARK  1 active torsions:
REMARK  status: ('A' for Active; 'I' for Inactive)
REMARK    1  A    between atoms: C2_3  and  C3_4
ROOT
HETATM    1  N1  UNL     1      17.301   1.119  16.415  1.00  0.00    -0.197 NA
HETATM    2  C1  UNL     1      16.568   1.758  15.769  1.00  0.00     0.061 C
HETATM    3  C2  UNL     1      15.644   2.536  14.948  1.00  0.00     0.159 C
ENDROOT
BRANCH   3   4
HETATM    4  C3  UNL     1      16.302   3.026  13.684  1.00  0.00     0.232 C
HETATM    5  N2  UNL     1      17.716   3.263  13.858  1.00  0.00    -0.066 N
HETATM    6  C4  UNL     1      18.132   3.998  12.652  1.00  0.00     0.263 C
ATOM      7  H22 UNL     1      17.950   3.736  14.731  1.00  0.00     0.277 HD
ATOM      8  H21 UNL     1      18.257   2.417  14.033  1.00  0.00     0.277 HD
HETATM    9  C5  UNL     1      17.987   3.069  11.499  1.00  0.00     0.300 C
HETATM   10  N3  UNL     1      16.670   2.556  11.337  1.00  0.00     0.097 N
HETATM   11  C6  UNL     1      16.753   1.137  10.951  1.00  0.00     0.275 C
HETATM   12  C8  UNL     1      16.019   2.135  12.532  1.00  0.00     0.256 C
HETATM   13  C7  UNL     1      16.765   0.839  12.458  1.00  0.00     0.068 C
ENDBRANCH   3   4
TORSDOF 1
ENDMDL