MODEL 1
REMARK VINA RESULT: -5.349940618      0.000      0.000
REMARK  2 active torsions:
REMARK  status: ('A' for Active; 'I' for Inactive)
REMARK    1  A    between atoms: C2_2  and  N1_4
REMARK    2  A    between atoms: N2_7  and  O1_8
ROOT
HETATM    1  N1  UNL     1      15.241   2.781  15.240  1.00  0.00     0.094 N
HETATM    2  C4  UNL     1      14.677   2.775  16.555  1.00  0.00     0.289 C
HETATM    3  C5  UNL     1      15.460   2.008  17.571  1.00  0.00     0.150 C
HETATM    4  N2  UNL     1      15.863   0.701  17.115  1.00  0.00    -0.196 NA
HETATM    5  C6  UNL     1      16.396   0.670  15.795  1.00  0.00     0.150 C
HETATM    6  C7  UNL     1      16.405   1.971  15.072  1.00  0.00     0.289 C
ENDROOT
BRANCH   1   7
HETATM    7  C2  UNL     1      15.519   4.096  14.724  1.00  0.00     0.215 C
HETATM    8  C1  UNL     1      16.979   4.459  14.766  1.00  0.00     0.042 C
HETATM    9  C3  UNL     1      14.783   5.094  15.601  1.00  0.00     0.042 C
ENDBRANCH   1   7
BRANCH   4  10
HETATM   10  O1  UNL     1      14.881  -0.222  17.263  1.00  0.00    -0.313 OA
ATOM     11  H1  UNL     1      14.736  -0.725  16.471  1.00  0.00     0.237 HD
ENDBRANCH   4  10
TORSDOF 2
ENDMDL