MODEL 2
REMARK VINA RESULT: -4.647451029      4.633      6.013
REMARK  2 active torsions:
REMARK  status: ('A' for Active; 'I' for Inactive)
REMARK    1  A    between atoms: O1_2  and  C2_3
REMARK    2  A    between atoms: C2_3  and  O2_4
ROOT
HETATM    1  C2  UNL     1      18.217   1.882  11.421  1.00  0.00     0.191 C
HETATM    2  C3  UNL     1      18.678   0.479  11.060  1.00  0.00     0.340 C
HETATM    3  N1  UNL     1      17.479  -0.349  11.062  1.00  0.00     0.093 N
HETATM    4  C4  UNL     1      17.052  -0.607  12.436  1.00  0.00     0.273 C
HETATM    5  C5  UNL     1      16.837   0.695  13.147  1.00  0.00     0.040 C
HETATM    6  C6  UNL     1      16.901   1.841  12.160  1.00  0.00     0.053 C
HETATM    7  C7  UNL     1      15.857   1.502  11.091  1.00  0.00     0.040 C
HETATM    8  C8  UNL     1      16.416   0.298  10.346  1.00  0.00     0.273 C
ENDROOT
BRANCH   1   9
HETATM    9  O1  UNL     1      19.219   2.507  12.109  1.00  0.00    -0.358 OA
HETATM   10  C1  UNL     1      20.284   2.710  11.233  1.00  0.00     0.205 C
ENDBRANCH   1   9
BRANCH   1  11
HETATM   11  O2  UNL     1      17.986   2.551  10.218  1.00  0.00    -0.364 OA
ATOM     12  H2  UNL     1      17.662   3.426  10.398  1.00  0.00     0.213 HD
ENDBRANCH   1  11
TORSDOF 2
ENDMDL