MODEL 1
REMARK VINA RESULT: -5.058156807      0.000      0.000
REMARK  2 active torsions:
REMARK  status: ('A' for Active; 'I' for Inactive)
REMARK    1  A    between atoms: N1_2  and  O1_3
REMARK    2  A    between atoms: N1_2  and  N2_5
ROOT
HETATM    1  N2  UNL     1      16.588   1.668  15.731  1.00  0.00    -0.166 NA
HETATM    2  C2  UNL     1      15.434   1.191  16.508  1.00  0.00     0.124 C
HETATM    3  C3  UNL     1      15.028   2.207  17.510  1.00  0.00     0.018 C
HETATM    4  C4  UNL     1      14.318   3.390  16.999  1.00  0.00     0.013 C
HETATM    5  C5  UNL     1      14.803   3.996  15.743  1.00  0.00     0.093 C
HETATM    6  S1  UNL     1      15.901   2.996  14.758  1.00  0.00    -0.065 SA
ENDROOT
BRANCH   1   7
HETATM    7  N1  UNL     1      16.977   0.620  14.895  1.00  0.00    -0.122 NA
HETATM    8  C1  UNL     1      16.674   0.859  13.516  1.00  0.00     0.165 C
BRANCH   7   9
HETATM    9  O1  UNL     1      16.286  -0.491  15.274  1.00  0.00    -0.298 OA
ATOM     10  H1  UNL     1      16.391  -0.582  16.213  1.00  0.00     0.238 HD
ENDBRANCH   7   9
ENDBRANCH   1   7
TORSDOF 2
ENDMDL