MODEL 4
REMARK VINA RESULT: -4.704045489      3.110      4.098
REMARK  1 active torsions:
REMARK  status: ('A' for Active; 'I' for Inactive)
REMARK    1  A    between atoms: N1_4  and  C4_5
ROOT
HETATM    1  C4  UNL     1      16.314   1.683  13.847  1.00  0.00     0.184 C
HETATM    2  C5  UNL     1      16.692   1.110  15.163  1.00  0.00     0.105 C
HETATM    3  N2  UNL     1      17.005   0.663  16.185  1.00  0.00    -0.191 NA
ENDROOT
BRANCH   1   4
HETATM    4  N1  UNL     1      17.127   1.087  12.875  1.00  0.00    -0.358 N
HETATM    5  C3  UNL     1      17.800   1.930  11.958  1.00  0.00     0.160 C
HETATM    6  C2  UNL     1      18.736   1.042  11.129  1.00  0.00     0.200 C
HETATM    7  C1  UNL     1      19.579   1.965  10.290  1.00  0.00     0.041 C
HETATM    8  N3  UNL     1      17.996   0.072  10.359  1.00  0.00    -0.065 N
HETATM    9  C7  UNL     1      16.650  -0.119  10.913  1.00  0.00     0.277 C
ATOM     10  H32 UNL     1      17.966   0.319   9.370  1.00  0.00     0.278 HD
ATOM     11  H31 UNL     1      18.501  -0.811  10.281  1.00  0.00     0.278 HD
HETATM   12  C6  UNL     1      16.815  -0.209  12.417  1.00  0.00     0.091 C
ENDBRANCH   1   4
TORSDOF 1
ENDMDL