MODEL 5
REMARK VINA RESULT: -4.494908344      3.670      5.900
REMARK  1 active torsions:
REMARK  status: ('A' for Active; 'I' for Inactive)
REMARK    1  A    between atoms: C2_3  and  N2_4
ROOT
HETATM    1  N1  UNL     1      16.610  -0.103  14.886  1.00  0.00    -0.195 NA
HETATM    2  C1  UNL     1      16.789  -0.284  13.736  1.00  0.00     0.089 C
HETATM    3  C2  UNL     1      16.999  -0.487  12.278  1.00  0.00     0.395 C
ENDROOT
BRANCH   3   4
HETATM    4  N2  UNL     1      17.421   0.799  11.776  1.00  0.00     0.102 N
HETATM    5  C3  UNL     1      16.321   1.592  11.236  1.00  0.00     0.275 C
HETATM    6  C4  UNL     1      16.788   3.025  11.547  1.00  0.00     0.049 C
HETATM    7  C5  UNL     1      18.025   3.326  10.729  1.00  0.00     0.115 C
HETATM    8  N3  UNL     1      19.249   2.875  11.336  1.00  0.00    -0.419 N
HETATM    9  C6  UNL     1      19.575   1.490  11.087  1.00  0.00     0.144 C
ATOM     10  H3  UNL     1      19.842   3.486  11.898  1.00  0.00     0.153 HD
HETATM   11  C7  UNL     1      18.402   0.660  10.709  1.00  0.00     0.292 C
ENDBRANCH   3   4
TORSDOF 1
ENDMDL