MODEL 3
REMARK VINA RESULT: -3.847571750      4.959      5.808
REMARK  2 active torsions:
REMARK  status: ('A' for Active; 'I' for Inactive)
REMARK    1  A    between atoms: C3_5  and  C4_6
REMARK    2  A    between atoms: C4_6  and  O2_7
ROOT
HETATM    1  O1  UNL     1      13.915   0.331  16.740  1.00  0.00    -0.258 OA
HETATM    2  S1  UNL     1      14.874   1.534  17.473  1.00  0.00     0.015 S
HETATM    3  C1  UNL     1      14.277   3.119  16.858  1.00  0.00     0.109 C
HETATM    4  C2  UNL     1      14.728   3.006  15.437  1.00  0.00     0.020 C
HETATM    5  C3  UNL     1      16.090   2.476  15.378  1.00  0.00     0.022 C
HETATM    6  C5  UNL     1      16.387   1.568  16.508  1.00  0.00     0.115 C
ENDROOT
BRANCH   5   7
HETATM    7  C4  UNL     1      16.258   1.761  14.030  1.00  0.00     0.169 C
BRANCH   7   8
HETATM    8  O2  UNL     1      16.491   0.416  14.188  1.00  0.00    -0.400 OA
ATOM      9  H2  UNL     1      15.691  -0.093  14.130  1.00  0.00     0.209 HD
ENDBRANCH   7   8
ENDBRANCH   5   7
TORSDOF 2
ENDMDL