MODEL 4
REMARK VINA RESULT: -4.134404344      1.505      2.158
REMARK  2 active torsions:
REMARK  status: ('A' for Active; 'I' for Inactive)
REMARK    1  A    between atoms: C5_7  and  C6_8
REMARK    2  A    between atoms: C6_8  and  O2_9
ROOT
HETATM    1  O1  UNL     1      16.181   2.942  10.261  1.00  0.00    -0.064 OA
HETATM    2  N1  UNL     1      16.558   1.967  11.046  1.00  0.00     0.014 N
HETATM    3  C1  UNL     1      15.998   1.990  12.382  1.00  0.00     0.312 C
HETATM    4  C2  UNL     1      16.869   0.967  13.125  1.00  0.00     0.044 C
HETATM    5  C3  UNL     1      17.981   0.663  12.150  1.00  0.00     0.030 C
HETATM    6  C4  UNL     1      17.996   1.995  11.377  1.00  0.00     0.317 C
HETATM    7  C5  UNL     1      17.457  -0.224  11.070  1.00  0.00     0.049 C
HETATM    8  C7  UNL     1      16.328   0.628  10.504  1.00  0.00     0.319 C
ENDROOT
BRANCH   7   9
HETATM    9  C6  UNL     1      16.994  -1.566  11.529  1.00  0.00     0.171 C
BRANCH   9  10
HETATM   10  O2  UNL     1      18.121  -2.374  11.676  1.00  0.00    -0.400 OA
ATOM     11  H2  UNL     1      18.083  -3.046  11.005  1.00  0.00     0.209 HD
ENDBRANCH   9  10
ENDBRANCH   7   9
TORSDOF 2
ENDMDL