MODEL 4
REMARK VINA RESULT: -4.885164301      4.294      5.182
REMARK  4 active torsions:
REMARK  status: ('A' for Active; 'I' for Inactive)
REMARK    1  A    between atoms: N1_2  and  O1_3
REMARK    2  A    between atoms: C2_5  and  C3_6
REMARK    3  A    between atoms: C3_6  and  O2_7
REMARK    4  A    between atoms: C6_11  and  O3_12
ROOT
HETATM    1  C3  UNL     1      16.375   2.004  11.844  1.00  0.00     0.117 C
HETATM    2  C4  UNL     1      16.387   2.977  12.966  1.00  0.00     0.049 C
HETATM    3  C5  UNL     1      17.629   3.599  12.411  1.00  0.00     0.038 C
HETATM    4  C6  UNL     1      17.372   2.872  11.110  1.00  0.00     0.158 C
ENDROOT
BRANCH   1   5
HETATM    5  C2  UNL     1      16.938   0.673  12.093  1.00  0.00     0.129 C
HETATM    6  N1  UNL     1      17.011  -0.171  11.132  1.00  0.00    -0.277 N
HETATM    7  C1  UNL     1      17.559  -1.499  11.332  1.00  0.00     0.184 C
BRANCH   6   8
HETATM    8  O1  UNL     1      16.583   0.109   9.857  1.00  0.00    -0.289 OA
ATOM      9  H1  UNL     1      16.975   0.873   9.451  1.00  0.00     0.244 HD
ENDBRANCH   6   8
ENDBRANCH   1   5
BRANCH   1  10
HETATM   10  O2  UNL     1      15.125   1.913  11.237  1.00  0.00    -0.382 OA
ATOM     11  H2  UNL     1      14.429   2.079  11.862  1.00  0.00     0.211 HD
ENDBRANCH   1  10
BRANCH   4  12
HETATM   12  O3  UNL     1      16.778   3.593  10.112  1.00  0.00    -0.392 OA
ATOM     13  H3  UNL     1      17.037   3.286   9.252  1.00  0.00     0.210 HD
ENDBRANCH   4  12
TORSDOF 4
ENDMDL