MODEL 4
REMARK VINA RESULT: -4.603401904      5.544      6.588
REMARK  3 active torsions:
REMARK  status: ('A' for Active; 'I' for Inactive)
REMARK    1  A    between atoms: C2_2  and  N1_3
REMARK    2  A    between atoms: N2_6  and  O1_7
REMARK    3  A    between atoms: C5_9  and  O2_10
ROOT
HETATM    1  N1  UNL     1      17.331   0.005  11.839  1.00  0.00    -0.369 N
HETATM    2  C3  UNL     1      16.371   0.937  12.302  1.00  0.00     0.143 C
HETATM    3  C4  UNL     1      16.107   2.100  11.385  1.00  0.00     0.144 C
HETATM    4  N2  UNL     1      17.180   2.318  10.456  1.00  0.00    -0.164 NA
HETATM    5  C5  UNL     1      18.458   1.941  11.004  1.00  0.00     0.257 C
HETATM    6  C6  UNL     1      18.501   0.433  11.255  1.00  0.00     0.112 C
ENDROOT
BRANCH   1   7
HETATM    7  C2  UNL     1      16.993  -1.359  11.895  1.00  0.00     0.059 C
HETATM    8  C1  UNL     1      18.172  -2.162  11.393  1.00  0.00     0.055 C
ENDBRANCH   1   7
BRANCH   5   9
HETATM    9  O2  UNL     1      19.444   2.320  10.097  1.00  0.00    -0.374 OA
ATOM     10  H2  UNL     1      20.206   2.599  10.591  1.00  0.00     0.212 HD
ENDBRANCH   5   9
BRANCH   4  11
HETATM   11  O1  UNL     1      17.250   3.595  10.044  1.00  0.00    -0.310 OA
ATOM     12  H1  UNL     1      16.570   3.811   9.417  1.00  0.00     0.237 HD
ENDBRANCH   4  11
TORSDOF 3
ENDMDL