MODEL 1
REMARK VINA RESULT: -4.731045109      0.000      0.000
REMARK  1 active torsions:
REMARK  status: ('A' for Active; 'I' for Inactive)
REMARK       I    between atoms: N1_2  and  C2_4
REMARK       I    between atoms: C2_4  and  N4_9
REMARK    1  A    between atoms: N4_9  and  N5_11
ROOT
HETATM    1  C1  UNL     1      15.866   4.372  14.291  1.00  0.00     0.165 C
HETATM    2  N1  UNL     1      16.794   3.298  14.624  1.00  0.00    -0.229 N
ATOM      3  H1  UNL     1      17.552   3.431  15.293  1.00  0.00     0.177 HD
HETATM    4  C2  UNL     1      16.585   2.057  13.967  1.00  0.00     0.701 C
HETATM    5  N2  UNL     1      16.374   0.949  14.562  1.00  0.00    -0.125 N
ATOM      6  H2  UNL     1      16.236   0.110  13.999  1.00  0.00     0.197 HD
HETATM    7  C3  UNL     1      16.325   0.837  15.950  1.00  0.00     0.196 C
HETATM    8  N3  UNL     1      16.282   0.726  17.088  1.00  0.00    -0.171 NA
HETATM    9  N4  UNL     1      16.614   2.055  12.549  1.00  0.00    -0.135 N
ATOM     10  H4  UNL     1      16.253   2.852  12.024  1.00  0.00     0.205 HD
ENDROOT
BRANCH   9  11
HETATM   11  N5  UNL     1      17.133   0.969  11.890  1.00  0.00    -0.322 N
HETATM   12  C4  UNL     1      16.254   0.335  10.963  1.00  0.00     0.171 C
HETATM   13  C5  UNL     1      18.484   1.099  11.454  1.00  0.00     0.171 C
ENDBRANCH   9  11
TORSDOF 1
ENDMDL