MODEL 5
REMARK VINA RESULT: -4.223313762      3.547      4.658
REMARK  3 active torsions:
REMARK  status: ('A' for Active; 'I' for Inactive)
REMARK    1  A    between atoms: C2_2  and  N1_3
REMARK    2  A    between atoms: C4_5  and  O1_6
REMARK    3  A    between atoms: C6_9  and  O2_10
ROOT
HETATM    1  N1  UNL     1      18.768   2.087  11.585  1.00  0.00    -0.369 N
HETATM    2  C3  UNL     1      18.893   0.843  10.971  1.00  0.00     0.094 C
HETATM    3  C4  UNL     1      17.668   0.013  10.801  1.00  0.00     0.159 C
HETATM    4  C5  UNL     1      16.376   0.724  11.062  1.00  0.00     0.074 C
HETATM    5  C6  UNL     1      16.481   1.511  12.335  1.00  0.00     0.159 C
HETATM    6  C7  UNL     1      17.688   2.374  12.434  1.00  0.00     0.094 C
ENDROOT
BRANCH   1   7
HETATM    7  C2  UNL     1      19.396   3.212  10.972  1.00  0.00     0.122 C
HETATM    8  C1  UNL     1      18.366   4.179  10.439  1.00  0.00     0.027 C
ENDBRANCH   1   7
BRANCH   3   9
HETATM    9  O1  UNL     1      17.567  -0.512   9.501  1.00  0.00    -0.390 OA
ATOM     10  H1  UNL     1      17.315   0.152   8.870  1.00  0.00     0.210 HD
ENDBRANCH   3   9
BRANCH   5  11
HETATM   11  O2  UNL     1      15.288   2.248  12.429  1.00  0.00    -0.390 OA
ATOM     12  H2  UNL     1      15.250   2.780  11.643  1.00  0.00     0.210 HD
ENDBRANCH   5  11
TORSDOF 3
ENDMDL