MODEL 5
REMARK VINA RESULT: -4.345172452      2.435      4.091
REMARK  2 active torsions:
REMARK  status: ('A' for Active; 'I' for Inactive)
REMARK       I    between atoms: N1_2  and  C3_4
REMARK       I    between atoms: C3_4  and  N3_8
REMARK    1  A    between atoms: C5_10  and  C6_11
REMARK    2  A    between atoms: C6_11  and  O1_12
ROOT
HETATM    1  C1  UNL     1      16.836   4.149  13.521  1.00  0.00     0.168 C
HETATM    2  N1  UNL     1      16.070   3.081  14.123  1.00  0.00    -0.227 N
HETATM    3  C2  UNL     1      14.872   3.444  14.846  1.00  0.00     0.168 C
HETATM    4  C3  UNL     1      16.544   1.759  13.964  1.00  0.00     0.671 C
HETATM    5  N2  UNL     1      16.454   0.910  14.928  1.00  0.00    -0.235 N
ATOM      6  H21 UNL     1      16.796  -0.043  14.813  1.00  0.00     0.174 HD
ATOM      7  H22 UNL     1      16.028   1.247  15.792  1.00  0.00     0.174 HD
HETATM    8  N3  UNL     1      17.140   1.287  12.753  1.00  0.00    -0.208 N
HETATM    9  C4  UNL     1      18.130   1.343  11.699  1.00  0.00     0.170 A
HETATM   10  C5  UNL     1      17.129   0.304  11.644  1.00  0.00     0.144 A
ENDROOT
BRANCH  10  11
HETATM   11  C6  UNL     1      15.937   0.347  10.717  1.00  0.00     0.191 C
BRANCH  11  12
HETATM   12  O1  UNL     1      16.398   0.211   9.387  1.00  0.00    -0.399 OA
ATOM     13  H1  UNL     1      15.743  -0.263   8.888  1.00  0.00     0.209 HD
ENDBRANCH  11  12
ENDBRANCH  10  11
TORSDOF 2
ENDMDL