MODEL 5
REMARK VINA RESULT: -4.205079317      4.169      5.043
REMARK  2 active torsions:
REMARK  status: ('A' for Active; 'I' for Inactive)
REMARK    1  A    between atoms: N1_2  and  C2_5
REMARK    2  A    between atoms: C7_11  and  O2_12
ROOT
HETATM    1  C2  UNL     1      17.767   2.343  11.347  1.00  0.00     0.245 C
HETATM    2  C3  UNL     1      16.448   2.660  12.013  1.00  0.00     0.155 C
HETATM    3  C4  UNL     1      16.409   2.155  13.445  1.00  0.00     0.037 C
HETATM    4  C5  UNL     1      16.610   0.653  13.192  1.00  0.00     0.037 C
HETATM    5  C6  UNL     1      16.316   0.560  11.723  1.00  0.00     0.153 C
HETATM    6  O1  UNL     1      15.556   1.719  11.429  1.00  0.00    -0.376 OA
HETATM    7  C7  UNL     1      17.570   0.893  10.958  1.00  0.00     0.180 C
ENDROOT
BRANCH   1   8
HETATM    8  N1  UNL     1      18.885   2.535  12.227  1.00  0.00    -0.070 N
HETATM    9  C1  UNL     1      19.893   3.420  11.716  1.00  0.00     0.267 C
ATOM     10  H12 UNL     1      19.296   1.637  12.482  1.00  0.00     0.277 HD
ATOM     11  H11 UNL     1      18.567   2.848  13.144  1.00  0.00     0.277 HD
ENDBRANCH   1   8
BRANCH   7  12
HETATM   12  O2  UNL     1      18.651   0.091  11.253  1.00  0.00    -0.391 OA
ATOM     13  H2  UNL     1      18.696  -0.167  12.167  1.00  0.00     0.210 HD
ENDBRANCH   7  12
TORSDOF 2
ENDMDL