MODEL 3
REMARK VINA RESULT: -4.977399976      0.994      1.002
REMARK  1 active torsions:
REMARK  status: ('A' for Active; 'I' for Inactive)
REMARK    1  A    between atoms: C2_2  and  N1_3
REMARK       I    between atoms: C3_5  and  N2_6
REMARK       I    between atoms: C3_5  and  N4_10
ROOT
HETATM    1  N1  UNL     1      16.479   0.228  12.339  1.00  0.00    -0.225 N
ATOM      2  H1  UNL     1      15.706  -0.282  12.766  1.00  0.00     0.177 HD
HETATM    3  C3  UNL     1      16.951   1.266  12.930  1.00  0.00     0.696 C
HETATM    4  N2  UNL     1      16.458   1.755  14.153  1.00  0.00    -0.126 N
ATOM      5  H2  UNL     1      16.290   2.752  14.288  1.00  0.00     0.197 HD
HETATM    6  C4  UNL     1      16.204   0.839  15.181  1.00  0.00     0.196 C
HETATM    7  N3  UNL     1      16.008   0.082  16.049  1.00  0.00    -0.171 NA
HETATM    8  N4  UNL     1      18.027   1.963  12.318  1.00  0.00    -0.126 N
ATOM      9  H4  UNL     1      18.900   1.490  12.082  1.00  0.00     0.197 HD
HETATM   10  C5  UNL     1      17.844   3.321  12.053  1.00  0.00     0.196 C
HETATM   11  N5  UNL     1      17.675   4.460  11.844  1.00  0.00    -0.171 NA
ENDROOT
BRANCH   1  12
HETATM   12  C2  UNL     1      17.016  -0.223  11.099  1.00  0.00     0.134 C
HETATM   13  C1  UNL     1      17.796  -1.494  11.327  1.00  0.00     0.027 C
ENDBRANCH   1  12
TORSDOF 1
ENDMDL