MODEL 1
REMARK VINA RESULT: -6.016460712      0.000      0.000
REMARK  2 active torsions:
REMARK  status: ('A' for Active; 'I' for Inactive)
REMARK    1  A    between atoms: C5_6  and  C6_7
REMARK    2  A    between atoms: C7_9  and  O3_11
ROOT
HETATM    1  C1  UNL     1      14.936   2.145  18.846  1.00  0.00     0.078 C
HETATM    2  C2  UNL     1      15.068   1.749  17.387  1.00  0.00     0.157 C
HETATM    3  C3  UNL     1      13.708   1.179  16.967  1.00  0.00     0.078 C
HETATM    4  O1  UNL     1      16.071   0.807  17.220  1.00  0.00    -0.353 OA
HETATM    5  C4  UNL     1      16.769   1.156  16.052  1.00  0.00     0.206 C
HETATM    6  C5  UNL     1      15.881   2.186  15.448  1.00  0.00     0.183 C
HETATM    7  O4  UNL     1      15.385   2.844  16.584  1.00  0.00    -0.346 OA
ENDROOT
BRANCH   6   8
HETATM    8  C6  UNL     1      16.536   3.101  14.475  1.00  0.00     0.218 A
HETATM    9  O2  UNL     1      15.905   3.287  13.204  1.00  0.00    -0.340 OA
HETATM   10  C7  UNL     1      16.086   4.418  14.110  1.00  0.00     0.187 A
HETATM   11  C8  UNL     1      17.121   5.421  13.591  1.00  0.00     0.082 C
BRANCH  10  12
HETATM   12  O3  UNL     1      14.877   4.970  14.431  1.00  0.00    -0.363 OA
ATOM     13  H3  UNL     1      14.610   5.865  14.258  1.00  0.00     0.213 HD
ENDBRANCH  10  12
ENDBRANCH   6   8
TORSDOF 2
ENDMDL