MODEL 3
REMARK VINA RESULT: -5.895979206      1.452      1.670
REMARK  1 active torsions:
REMARK  status: ('A' for Active; 'I' for Inactive)
REMARK    1  A    between atoms: C3_4  and  C4_5
ROOT
HETATM    1  C4  UNL     1      16.620   2.874  15.393  1.00  0.00     0.270 C
HETATM    2  N1  UNL     1      16.700   2.064  14.221  1.00  0.00    -0.066 NA
HETATM    3  O2  UNL     1      17.497   2.670  13.317  1.00  0.00    -0.282 OA
HETATM    4  C5  UNL     1      17.553   4.053  13.492  1.00  0.00     0.222 C
HETATM    5  C6  UNL     1      18.141   4.428  14.840  1.00  0.00     0.198 C
HETATM    6  O3  UNL     1      17.891   3.335  15.697  1.00  0.00    -0.363 OA
ENDROOT
BRANCH   1   7
HETATM    7  C3  UNL     1      15.962   2.214  16.563  1.00  0.00     0.168 C
HETATM    8  O1  UNL     1      16.192   0.867  16.653  1.00  0.00    -0.382 OA
HETATM    9  C2  UNL     1      15.222   0.323  17.454  1.00  0.00     0.168 C
HETATM   10  C1  UNL     1      14.044   1.271  17.464  1.00  0.00     0.029 C
HETATM   11  C7  UNL     1      14.457   2.265  16.370  1.00  0.00     0.038 C
ENDBRANCH   1   7
TORSDOF 1
ENDMDL