MODEL 1
REMARK VINA RESULT: -5.545771337      0.000      0.000
REMARK  2 active torsions:
REMARK  status: ('A' for Active; 'I' for Inactive)
REMARK    1  A    between atoms: O1_2  and  C2_3
REMARK    2  A    between atoms: C3_4  and  O2_5
ROOT
HETATM    1  C2  UNL     1      15.735   1.999  15.532  1.00  0.00     0.204 C
HETATM    2  C3  UNL     1      16.505   1.205  16.576  1.00  0.00     0.288 C
HETATM    3  O3  UNL     1      15.722   0.313  17.261  1.00  0.00    -0.351 OA
HETATM    4  C4  UNL     1      14.583   0.879  17.814  1.00  0.00     0.151 C
HETATM    5  C5  UNL     1      14.874   2.212  18.473  1.00  0.00     0.200 C
HETATM    6  O4  UNL     1      15.068   3.108  17.459  1.00  0.00    -0.381 OA
HETATM    7  C6  UNL     1      14.547   2.612  16.292  1.00  0.00     0.157 C
HETATM    8  C7  UNL     1      13.690   1.395  16.674  1.00  0.00     0.069 C
ENDROOT
BRANCH   1   9
HETATM    9  O1  UNL     1      16.564   2.982  15.027  1.00  0.00    -0.383 OA
HETATM   10  C1  UNL     1      16.434   3.036  13.620  1.00  0.00     0.202 C
ENDBRANCH   1   9
BRANCH   2  11
HETATM   11  O2  UNL     1      17.491   0.501  15.887  1.00  0.00    -0.369 OA
ATOM     12  H2  UNL     1      17.917  -0.059  16.526  1.00  0.00     0.212 HD
ENDBRANCH   2  11
TORSDOF 2
ENDMDL