MODEL 4
REMARK VINA RESULT: -4.966223323      1.502      3.375
REMARK  2 active torsions:
REMARK  status: ('A' for Active; 'I' for Inactive)
REMARK    1  A    between atoms: O1_2  and  C2_3
REMARK    2  A    between atoms: C7_10  and  O4_11
ROOT
HETATM    1  C2  UNL     1      16.145   2.341  16.660  1.00  0.00     0.288 C
HETATM    2  O2  UNL     1      14.929   2.696  16.115  1.00  0.00    -0.348 OA
HETATM    3  C3  UNL     1      15.089   3.233  14.864  1.00  0.00     0.179 C
HETATM    4  C4  UNL     1      15.862   4.539  14.868  1.00  0.00     0.040 C
HETATM    5  C5  UNL     1      17.227   4.242  15.442  1.00  0.00     0.040 C
HETATM    6  C6  UNL     1      17.276   2.769  15.757  1.00  0.00     0.180 C
HETATM    7  O3  UNL     1      17.120   2.083  14.553  1.00  0.00    -0.349 OA
HETATM    8  C7  UNL     1      15.858   2.236  14.015  1.00  0.00     0.286 C
ENDROOT
BRANCH   1   9
HETATM    9  O1  UNL     1      16.224   0.956  16.800  1.00  0.00    -0.363 OA
HETATM   10  C1  UNL     1      15.075   0.480  17.439  1.00  0.00     0.204 C
ENDBRANCH   1   9
BRANCH   8  11
HETATM   11  O4  UNL     1      15.884   2.695  12.704  1.00  0.00    -0.369 OA
ATOM     12  H4  UNL     1      15.929   1.947  12.120  1.00  0.00     0.212 HD
ENDBRANCH   8  11
TORSDOF 2
ENDMDL