MODEL 2
REMARK VINA RESULT: -5.346389052      1.619      4.100
REMARK  2 active torsions:
REMARK  status: ('A' for Active; 'I' for Inactive)
REMARK    1  A    between atoms: O1_1  and  C1_3
REMARK    2  A    between atoms: C1_3  and  C2_4
ROOT
HETATM    1  C2  UNL     1      16.200   2.408  16.239  1.00  0.00     0.169 C
HETATM    2  C3  UNL     1      14.836   2.965  15.983  1.00  0.00     0.205 C
HETATM    3  O2  UNL     1      14.710   3.562  14.724  1.00  0.00    -0.356 OA
HETATM    4  C4  UNL     1      15.665   4.552  14.665  1.00  0.00     0.288 C
HETATM    5  O3  UNL     1      15.760   5.219  13.483  1.00  0.00    -0.359 OA
HETATM    6  C5  UNL     1      17.050   5.650  13.297  1.00  0.00     0.173 C
HETATM    7  C6  UNL     1      17.916   4.978  14.355  1.00  0.00     0.063 C
HETATM    8  C7  UNL     1      17.013   3.812  14.703  1.00  0.00     0.179 C
HETATM    9  O4  UNL     1      17.233   3.274  15.932  1.00  0.00    -0.371 OA
ENDROOT
BRANCH   1  10
HETATM   10  C1  UNL     1      16.313   1.084  15.523  1.00  0.00     0.198 C
BRANCH  10  11
HETATM   11  O1  UNL     1      17.350   0.302  15.972  1.00  0.00    -0.398 OA
ATOM     12  H1  UNL     1      17.774  -0.199  15.285  1.00  0.00     0.209 HD
ENDBRANCH  10  11
ENDBRANCH   1  10
TORSDOF 2
ENDMDL