MODEL 2
REMARK VINA RESULT: -5.376069006      1.544      4.216
REMARK  1 active torsions:
REMARK  status: ('A' for Active; 'I' for Inactive)
REMARK    1  A    between atoms: C4_5  and  C5_6
ROOT
HETATM    1  C1  UNL     1      14.906   2.053  17.808  1.00  0.00     0.259 C
HETATM    2  C2  UNL     1      14.291   0.739  17.374  1.00  0.00     0.195 C
HETATM    3  O1  UNL     1      15.267  -0.011  16.717  1.00  0.00    -0.387 OA
HETATM    4  C3  UNL     1      16.128   0.783  15.985  1.00  0.00     0.205 C
HETATM    5  C4  UNL     1      15.477   2.069  15.516  1.00  0.00     0.264 C
HETATM    6  N1  UNL     1      15.045   2.884  16.631  1.00  0.00    -0.062 N
ATOM      7  H11 UNL     1      15.663   3.679  16.791  1.00  0.00     0.277 HD
ATOM      8  H12 UNL     1      14.192   3.403  16.422  1.00  0.00     0.277 HD
ENDROOT
BRANCH   5   9
HETATM    9  C5  UNL     1      16.536   2.857  14.773  1.00  0.00     0.292 C
HETATM   10  O2  UNL     1      15.918   3.881  14.110  1.00  0.00    -0.357 OA
HETATM   11  C6  UNL     1      16.603   5.069  14.442  1.00  0.00     0.197 C
HETATM   12  C7  UNL     1      17.961   4.479  14.843  1.00  0.00     0.197 C
HETATM   13  O3  UNL     1      17.514   3.366  15.589  1.00  0.00    -0.357 OA
ENDBRANCH   5   9
TORSDOF 1
ENDMDL