MODEL 1
REMARK VINA RESULT: -5.377586768      0.000      0.000
REMARK  2 active torsions:
REMARK  status: ('A' for Active; 'I' for Inactive)
REMARK    1  A    between atoms: O1_2  and  C2_3
REMARK    2  A    between atoms: C6_9  and  O4_11
ROOT
HETATM    1  C2  UNL     1      15.694   2.297  16.575  1.00  0.00     0.206 C
HETATM    2  C3  UNL     1      14.539   2.987  15.875  1.00  0.00     0.205 C
HETATM    3  O2  UNL     1      14.738   4.337  15.720  1.00  0.00    -0.386 OA
HETATM    4  C4  UNL     1      15.660   4.688  14.777  1.00  0.00     0.194 C
HETATM    5  C5  UNL     1      17.038   4.112  15.025  1.00  0.00     0.197 C
HETATM    6  O3  UNL     1      17.031   2.802  14.635  1.00  0.00    -0.351 OA
HETATM    7  C6  UNL     1      16.793   1.902  15.659  1.00  0.00     0.186 C
HETATM    8  C7  UNL     1      16.576   0.542  15.015  1.00  0.00     0.082 C
ENDROOT
BRANCH   7   9
HETATM    9  O4  UNL     1      17.970   1.812  16.410  1.00  0.00    -0.363 OA
ATOM     10  H4  UNL     1      18.019   0.935  16.772  1.00  0.00     0.213 HD
ENDBRANCH   7   9
BRANCH   1  11
HETATM   11  O1  UNL     1      15.203   1.223  17.291  1.00  0.00    -0.383 OA
HETATM   12  C1  UNL     1      13.802   1.134  17.166  1.00  0.00     0.202 C
ENDBRANCH   1  11
TORSDOF 2
ENDMDL