MODEL 2
REMARK VINA RESULT: -5.595467034      1.725      3.844
REMARK  2 active torsions:
REMARK  status: ('A' for Active; 'I' for Inactive)
REMARK    1  A    between atoms: O1_2  and  C2_3
REMARK    2  A    between atoms: C5_7  and  C6_8
ROOT
HETATM    1  C2  UNL     1      16.300   2.168  13.652  1.00  0.00     0.270 C
HETATM    2  O2  UNL     1      16.435   3.489  13.192  1.00  0.00    -0.355 OA
HETATM    3  C3  UNL     1      16.008   3.906  14.452  1.00  0.00     0.133 C
HETATM    4  C4  UNL     1      16.823   5.111  14.878  1.00  0.00     0.040 C
HETATM    5  C5  UNL     1      16.486   2.641  15.080  1.00  0.00     0.126 C
ENDROOT
BRANCH   5   6
HETATM    6  C6  UNL     1      15.542   1.939  15.993  1.00  0.00     0.332 C
HETATM    7  N1  UNL     1      15.146   2.740  17.133  1.00  0.00    -0.046 N
HETATM    8  C7  UNL     1      14.720   1.691  18.072  1.00  0.00     0.261 C
ATOM      9  H12 UNL     1      15.853   3.383  17.485  1.00  0.00     0.280 HD
ATOM     10  H11 UNL     1      14.455   3.465  16.942  1.00  0.00     0.280 HD
HETATM   11  C8  UNL     1      15.248   0.399  17.474  1.00  0.00     0.198 C
HETATM   12  O3  UNL     1      16.249   0.887  16.618  1.00  0.00    -0.357 OA
ENDBRANCH   5   6
BRANCH   1  13
HETATM   13  O1  UNL     1      17.296   1.339  13.182  1.00  0.00    -0.365 OA
HETATM   14  C1  UNL     1      16.776   0.520  12.206  1.00  0.00     0.204 C
ENDBRANCH   1  13
TORSDOF 2
ENDMDL