MODEL 4
REMARK VINA RESULT: -4.745143785      2.401      4.181
REMARK  2 active torsions:
REMARK  status: ('A' for Active; 'I' for Inactive)
REMARK    1  A    between atoms: C2_2  and  N1_3
REMARK    2  A    between atoms: C5_6  and  O1_7
ROOT
HETATM    1  N1  UNL     1      15.820   2.680  15.568  1.00  0.00    -0.390 N
HETATM    2  C3  UNL     1      16.337   2.039  14.416  1.00  0.00     0.121 C
HETATM    3  C4  UNL     1      16.766   2.998  13.334  1.00  0.00     0.053 C
HETATM    4  C5  UNL     1      17.590   4.150  13.859  1.00  0.00     0.146 C
HETATM    5  C6  UNL     1      16.794   5.403  14.026  1.00  0.00     0.241 C
HETATM    6  O2  UNL     1      15.891   5.281  15.091  1.00  0.00    -0.237 OA
HETATM    7  O3  UNL     1      14.858   4.602  14.623  1.00  0.00    -0.221 OA
HETATM    8  C7  UNL     1      14.645   3.455  15.422  1.00  0.00     0.330 C
ENDROOT
BRANCH   1   9
HETATM    9  C2  UNL     1      15.995   1.981  16.802  1.00  0.00     0.114 C
HETATM   10  C1  UNL     1      14.906   2.256  17.813  1.00  0.00     0.026 C
ENDBRANCH   1   9
BRANCH   4  11
HETATM   11  O1  UNL     1      18.064   3.746  15.124  1.00  0.00    -0.393 OA
ATOM     12  H1  UNL     1      18.593   2.971  14.971  1.00  0.00     0.210 HD
ENDBRANCH   4  11
TORSDOF 2
ENDMDL