MODEL 5
REMARK VINA RESULT: -5.826229202      2.361      3.179
REMARK  3 active torsions:
REMARK  status: ('A' for Active; 'I' for Inactive)
REMARK    1  A    between atoms: O1_1  and  N1_3
REMARK    2  A    between atoms: C2_5  and  O2_6
REMARK    3  A    between atoms: C3_9  and  C4_10
ROOT
HETATM    1  N1  UNL     1      16.322   5.038  14.274  1.00  0.00    -0.165 NA
HETATM    2  C1  UNL     1      17.672   5.574  14.512  1.00  0.00     0.184 C
HETATM    3  C2  UNL     1      18.501   4.465  13.848  1.00  0.00     0.274 C
HETATM    4  O3  UNL     1      17.831   3.333  14.354  1.00  0.00    -0.338 OA
HETATM    5  C3  UNL     1      16.489   3.602  14.146  1.00  0.00     0.228 C
ENDROOT
BRANCH   5   6
HETATM    6  C4  UNL     1      15.643   2.918  15.186  1.00  0.00     0.031 C
HETATM    7  C5  UNL     1      16.464   2.371  16.332  1.00  0.00     0.009 C
HETATM    8  C6  UNL     1      15.363   1.995  17.306  1.00  0.00     0.001 C
HETATM    9  C7  UNL     1      14.342   3.070  17.134  1.00  0.00     0.001 C
HETATM   10  C8  UNL     1      14.734   3.876  15.913  1.00  0.00     0.009 C
ENDBRANCH   5   6
BRANCH   1  11
HETATM   11  O1  UNL     1      15.971   5.517  13.037  1.00  0.00    -0.310 OA
ATOM     12  H1  UNL     1      16.738   5.988  12.734  1.00  0.00     0.237 HD
ENDBRANCH   1  11
BRANCH   3  13
HETATM   13  O2  UNL     1      19.820   4.514  14.210  1.00  0.00    -0.370 OA
ATOM     14  H2  UNL     1      19.934   4.705  15.134  1.00  0.00     0.212 HD
ENDBRANCH   3  13
TORSDOF 3
ENDMDL