MODEL 1
REMARK VINA RESULT: -5.432158682      0.000      0.000
REMARK  2 active torsions:
REMARK  status: ('A' for Active; 'I' for Inactive)
REMARK    1  A    between atoms: N1_2  and  C1_3
REMARK    2  A    between atoms: C8_10  and  O2_11
ROOT
HETATM    1  O1  UNL     1      17.823   2.889  15.741  1.00  0.00    -0.061 OA
HETATM    2  N1  UNL     1      16.701   3.022  15.006  1.00  0.00     0.052 N
HETATM    3  C7  UNL     1      16.323   4.360  14.630  1.00  0.00     0.386 A
HETATM    4  C8  UNL     1      16.933   3.381  13.633  1.00  0.00     0.424 A
ENDROOT
BRANCH   2   5
HETATM    5  C1  UNL     1      15.562   2.151  15.319  1.00  0.00     0.258 C
HETATM    6  C2  UNL     1      15.942   0.952  16.100  1.00  0.00     0.042 C
HETATM    7  C3  UNL     1      15.160   0.712  17.340  1.00  0.00     0.003 C
HETATM    8  C4  UNL     1      14.807   1.908  18.136  1.00  0.00     0.000 C
HETATM    9  C5  UNL     1      14.821   3.201  17.421  1.00  0.00     0.003 C
HETATM   10  C6  UNL     1      14.516   3.016  15.964  1.00  0.00     0.042 C
ENDBRANCH   2   5
BRANCH   4  11
HETATM   11  O2  UNL     1      16.066   2.898  12.639  1.00  0.00    -0.362 OA
ATOM     12  H2  UNL     1      16.370   2.222  12.046  1.00  0.00     0.212 HD
ENDBRANCH   4  11
TORSDOF 2
ENDMDL