MODEL 2
REMARK VINA RESULT: -4.473016825      3.973      5.124
REMARK  2 active torsions:
REMARK  status: ('A' for Active; 'I' for Inactive)
REMARK    1  A    between atoms: S1_2  and  C2_3
REMARK    2  A    between atoms: C2_3  and  O1_4
ROOT
HETATM    1  C2  UNL     1      17.337   2.353  11.073  1.00  0.00     0.114 C
HETATM    2  C3  UNL     1      16.327   1.242  10.891  1.00  0.00     0.094 C
HETATM    3  C4  UNL     1      16.734   0.104  11.776  1.00  0.00     0.066 C
HETATM    4  N1  UNL     1      17.974  -0.388  11.369  1.00  0.00    -0.378 N
HETATM    5  C5  UNL     1      18.199  -1.775  11.326  1.00  0.00     0.154 C
HETATM    6  C6  UNL     1      19.013   0.460  10.972  1.00  0.00     0.066 C
HETATM    7  C7  UNL     1      18.743   1.905  10.856  1.00  0.00     0.094 C
ENDROOT
BRANCH   1   8
HETATM    8  S1  UNL     1      17.173   3.121  12.718  1.00  0.00    -0.135 SA
HETATM    9  C1  UNL     1      18.585   4.249  12.916  1.00  0.00     0.093 C
ENDBRANCH   1   8
BRANCH   1  10
HETATM   10  O1  UNL     1      16.986   3.352  10.151  1.00  0.00    -0.379 OA
ATOM     11  H1  UNL     1      16.693   2.891   9.373  1.00  0.00     0.211 HD
ENDBRANCH   1  10
TORSDOF 2
ENDMDL