MODEL 4
REMARK VINA RESULT: -5.465372131      1.707      1.852
REMARK  2 active torsions:
REMARK  status: ('A' for Active; 'I' for Inactive)
REMARK    1  A    between atoms: C2_2  and  N1_3
REMARK    2  A    between atoms: C7_9  and  O2_10
ROOT
HETATM    1  N1  UNL     1      15.801   3.056  16.043  1.00  0.00     0.092 N
HETATM    2  C3  UNL     1      15.323   3.353  14.707  1.00  0.00     0.275 C
HETATM    3  C4  UNL     1      16.416   3.431  13.695  1.00  0.00     0.062 C
HETATM    4  C5  UNL     1      16.726   2.122  13.031  1.00  0.00     0.122 C
HETATM    5  C6  UNL     1      17.703   2.423  11.910  1.00  0.00     0.040 C
HETATM    6  O1  UNL     1      17.311   1.263  13.962  1.00  0.00    -0.355 OA
HETATM    7  C7  UNL     1      16.316   0.926  14.873  1.00  0.00     0.285 C
HETATM    8  C8  UNL     1      16.469   1.777  16.111  1.00  0.00     0.332 C
ENDROOT
BRANCH   1   9
HETATM    9  C2  UNL     1      14.586   2.992  16.870  1.00  0.00     0.268 C
HETATM   10  C1  UNL     1      14.839   2.254  18.168  1.00  0.00     0.037 C
ENDBRANCH   1   9
BRANCH   7  11
HETATM   11  O2  UNL     1      16.600  -0.416  15.247  1.00  0.00    -0.369 OA
ATOM     12  H2  UNL     1      17.475  -0.387  15.615  1.00  0.00     0.212 HD
ENDBRANCH   7  11
TORSDOF 2
ENDMDL