MODEL 4
REMARK VINA RESULT: -5.174311064      2.866      4.121
REMARK  1 active torsions:
REMARK  status: ('A' for Active; 'I' for Inactive)
REMARK    1  A    between atoms: C6_11  and  N3_12
ROOT
HETATM    1  C1  UNL     1      19.965   2.432  10.823  1.00  0.00     0.043 C
HETATM    2  C2  UNL     1      18.546   2.023  10.927  1.00  0.00     0.180 C
HETATM    3  O1  UNL     1      18.404   1.276  12.122  1.00  0.00    -0.361 OA
HETATM    4  C3  UNL     1      17.347   0.372  12.023  1.00  0.00     0.254 C
HETATM    5  C4  UNL     1      16.880   0.105  13.398  1.00  0.00     0.093 C
HETATM    6  N1  UNL     1      16.528  -0.114  14.476  1.00  0.00    -0.194 NA
HETATM    7  C5  UNL     1      16.236   1.006  11.206  1.00  0.00     0.281 C
HETATM    8  N2  UNL     1      16.299   2.426  11.431  1.00  0.00    -0.037 N
ATOM      9  H21 UNL     1      16.258   2.650  12.425  1.00  0.00     0.280 HD
ATOM     10  H22 UNL     1      15.443   2.891  11.129  1.00  0.00     0.280 HD
HETATM   11  C6  UNL     1      17.494   3.017  10.789  1.00  0.00     0.446 C
ENDROOT
BRANCH  11  12
HETATM   12  N3  UNL     1      17.615   4.300  11.340  1.00  0.00     0.113 N
HETATM   13  C7  UNL     1      16.944   4.264  12.656  1.00  0.00     0.312 C
HETATM   14  C8  UNL     1      17.037   5.396  10.630  1.00  0.00     0.312 C
ENDBRANCH  11  12
TORSDOF 1
ENDMDL