MODEL 5
REMARK VINA RESULT: -4.444104306      2.547      3.563
REMARK  2 active torsions:
REMARK  status: ('A' for Active; 'I' for Inactive)
REMARK    1  A    between atoms: C4_5  and  N2_6
REMARK    2  A    between atoms: C7_9  and  O1_10
ROOT
HETATM    1  C1  UNL     1      17.649  -0.460  11.742  1.00  0.00     0.310 C
HETATM    2  N1  UNL     1      16.731   0.382  12.527  1.00  0.00     0.086 N
HETATM    3  C2  UNL     1      16.745   1.716  12.069  1.00  0.00     0.274 C
HETATM    4  C3  UNL     1      16.980   2.770  13.115  1.00  0.00     0.068 C
HETATM    5  C4  UNL     1      16.081   2.441  14.299  1.00  0.00     0.254 C
HETATM    6  C7  UNL     1      16.499   1.119  14.875  1.00  0.00     0.179 C
HETATM    7  C8  UNL     1      16.927   0.107  13.888  1.00  0.00     0.305 C
ENDROOT
BRANCH   5   8
HETATM    8  N2  UNL     1      16.289   3.482  15.282  1.00  0.00     0.087 N
HETATM    9  C5  UNL     1      17.010   4.611  14.738  1.00  0.00     0.310 C
HETATM   10  C6  UNL     1      15.052   3.964  15.849  1.00  0.00     0.310 C
ENDBRANCH   5   8
BRANCH   6  11
HETATM   11  O1  UNL     1      17.594   1.382  15.729  1.00  0.00    -0.392 OA
ATOM     12  H1  UNL     1      17.637   2.326  15.830  1.00  0.00     0.210 HD
ENDBRANCH   6  11
TORSDOF 2
ENDMDL