MODEL 4
REMARK VINA RESULT: -4.924729696      3.635      4.728
REMARK  2 active torsions:
REMARK  status: ('A' for Active; 'I' for Inactive)
REMARK    1  A    between atoms: C2_2  and  C3_3
REMARK    2  A    between atoms: C3_3  and  O1_4
ROOT
HETATM    1  C3  UNL     1      17.502   0.148  10.714  1.00  0.00     0.088 C
HETATM    2  C4  UNL     1      16.177   0.873  10.617  1.00  0.00     0.103 C
HETATM    3  C5  UNL     1      16.436   2.189  11.271  1.00  0.00     0.361 C
HETATM    4  O2  UNL     1      16.199   2.206  12.633  1.00  0.00    -0.355 OA
HETATM    5  C6  UNL     1      16.861   3.386  13.014  1.00  0.00     0.201 C
HETATM    6  C7  UNL     1      18.154   3.264  12.264  1.00  0.00     0.302 C
HETATM    7  N1  UNL     1      17.844   2.469  11.083  1.00  0.00     0.122 N
HETATM    8  C8  UNL     1      18.511   1.185  11.117  1.00  0.00     0.313 C
ENDROOT
BRANCH   1   9
HETATM    9  C2  UNL     1      17.459  -0.943  11.764  1.00  0.00     0.035 C
HETATM   10  C1  UNL     1      18.243  -2.118  11.222  1.00  0.00     0.008 C
ENDBRANCH   1   9
BRANCH   1  11
HETATM   11  O1  UNL     1      17.775  -0.439   9.487  1.00  0.00    -0.388 OA
ATOM     12  H1  UNL     1      18.589  -0.076   9.157  1.00  0.00     0.210 HD
ENDBRANCH   1  11
TORSDOF 2
ENDMDL