MODEL 3
REMARK VINA RESULT: -5.284484608      2.315      3.479
REMARK  3 active torsions:
REMARK  status: ('A' for Active; 'I' for Inactive)
REMARK    1  A    between atoms: O1_2  and  C2_3
REMARK    2  A    between atoms: C2_3  and  O2_4
REMARK    3  A    between atoms: C2_3  and  C3_6
ROOT
HETATM    1  C3  UNL     1      16.808   2.456  14.846  1.00  0.00     0.277 C
HETATM    2  C4  UNL     1      17.664   3.668  15.125  1.00  0.00     0.047 C
HETATM    3  C5  UNL     1      17.075   4.706  14.234  1.00  0.00     0.018 C
HETATM    4  C6  UNL     1      15.835   5.251  14.938  1.00  0.00     0.036 C
HETATM    5  C7  UNL     1      14.968   4.011  14.979  1.00  0.00     0.273 C
HETATM    6  N1  UNL     1      15.644   2.995  14.165  1.00  0.00     0.098 N
HETATM    7  C8  UNL     1      16.354   3.845  13.183  1.00  0.00     0.277 C
ENDROOT
BRANCH   1   8
HETATM    8  C2  UNL     1      16.471   1.694  16.098  1.00  0.00     0.289 C
BRANCH   8   9
HETATM    9  O1  UNL     1      15.361   0.907  15.917  1.00  0.00    -0.364 OA
HETATM   10  C1  UNL     1      14.450   0.922  16.945  1.00  0.00     0.204 C
ENDBRANCH   8   9
BRANCH   8  11
HETATM   11  O2  UNL     1      17.554   0.804  16.300  1.00  0.00    -0.369 OA
ATOM     12  H2  UNL     1      18.140   1.237  16.910  1.00  0.00     0.212 HD
ENDBRANCH   8  11
ENDBRANCH   1   8
TORSDOF 3
ENDMDL