MODEL 4
REMARK VINA RESULT: -5.307279484      0.127      1.263
REMARK  1 active torsions:
REMARK  status: ('A' for Active; 'I' for Inactive)
REMARK    1  A    between atoms: C2_2  and  C5_5
ROOT
HETATM    1  C5  UNL     1      15.538   2.117  15.385  1.00  0.00     0.229 C
HETATM    2  N1  UNL     1      16.976   2.071  15.654  1.00  0.00    -0.039 N
ATOM      3  H11 UNL     1      17.535   1.309  15.269  1.00  0.00     0.281 HD
ATOM      4  H12 UNL     1      17.306   1.850  16.594  1.00  0.00     0.281 HD
HETATM    5  C6  UNL     1      17.144   3.406  15.137  1.00  0.00     0.354 C
HETATM    6  O1  UNL     1      17.974   3.515  14.023  1.00  0.00    -0.332 OA
HETATM    7  C7  UNL     1      17.263   2.875  13.029  1.00  0.00     0.341 C
HETATM    8  O2  UNL     1      15.928   3.083  13.247  1.00  0.00    -0.355 OA
HETATM    9  C8  UNL     1      15.746   3.360  14.599  1.00  0.00     0.212 C
ENDROOT
BRANCH   1  10
HETATM   10  C2  UNL     1      14.793   2.235  16.679  1.00  0.00    -0.020 C
HETATM   11  C1  UNL     1      15.622   2.003  17.894  1.00  0.00     0.016 C
HETATM   12  C3  UNL     1      13.585   1.333  16.744  1.00  0.00     0.016 C
HETATM   13  C4  UNL     1      14.260   3.670  16.754  1.00  0.00     0.016 C
ENDBRANCH   1  10
TORSDOF 1
ENDMDL