MODEL 5
REMARK VINA RESULT: -4.854760036      1.208      4.261
REMARK  1 active torsions:
REMARK  status: ('A' for Active; 'I' for Inactive)
REMARK    1  A    between atoms: C2_2  and  N1_4
ROOT
HETATM    1  N1  UNL     1      16.236   3.303  15.202  1.00  0.00    -0.388 N
HETATM    2  C4  UNL     1      16.182   1.897  15.127  1.00  0.00     0.058 C
HETATM    3  C5  UNL     1      16.461   1.206  16.453  1.00  0.00     0.046 C
HETATM    4  C6  UNL     1      15.218   0.543  17.007  1.00  0.00     0.032 C
HETATM    5  C7  UNL     1      14.114   1.567  17.072  1.00  0.00     0.232 C
HETATM    6  N2  UNL     1      14.767   2.847  17.369  1.00  0.00    -0.074 N
ATOM      7  H21 UNL     1      15.783   2.781  17.307  1.00  0.00     0.277 HD
ATOM      8  H22 UNL     1      14.694   3.094  18.356  1.00  0.00     0.277 HD
HETATM    9  C8  UNL     1      14.239   3.885  16.511  1.00  0.00     0.252 C
HETATM   10  C9  UNL     1      15.003   4.012  15.224  1.00  0.00     0.149 C
ENDROOT
BRANCH   1  11
HETATM   11  C2  UNL     1      17.273   3.977  14.533  1.00  0.00     0.075 C
HETATM   12  C1  UNL     1      17.215   5.478  14.560  1.00  0.00     0.032 C
HETATM   13  C3  UNL     1      17.421   3.457  13.115  1.00  0.00     0.032 C
ENDBRANCH   1  11
TORSDOF 1
ENDMDL