MODEL 4
REMARK VINA RESULT: -4.894260630      1.770      3.761
REMARK  1 active torsions:
REMARK  status: ('A' for Active; 'I' for Inactive)
REMARK    1  A    between atoms: O1_2  and  C2_3
ROOT
HETATM    1  C2  UNL     1      17.971  -0.321  11.454  1.00  0.00     0.157 C
HETATM    2  C3  UNL     1      17.399  -0.016  10.086  1.00  0.00     0.038 C
HETATM    3  C4  UNL     1      16.254   0.666  10.769  1.00  0.00     0.045 C
HETATM    4  C5  UNL     1      17.183   0.863  11.980  1.00  0.00     0.110 C
HETATM    5  C6  UNL     1      17.956   2.106  11.893  1.00  0.00     0.273 C
HETATM    6  N1  UNL     1      17.896   3.010  12.984  1.00  0.00    -0.070 N
ATOM      7  H11 UNL     1      18.020   3.975  12.677  1.00  0.00     0.277 HD
ATOM      8  H12 UNL     1      18.717   2.929  13.583  1.00  0.00     0.277 HD
HETATM    9  C7  UNL     1      16.685   2.847  13.729  1.00  0.00     0.258 C
HETATM   10  C8  UNL     1      16.699   1.385  14.198  1.00  0.00     0.196 C
HETATM   11  O2  UNL     1      16.478   0.611  13.107  1.00  0.00    -0.374 OA
ENDROOT
BRANCH   1  12
HETATM   12  O1  UNL     1      17.551  -1.554  11.883  1.00  0.00    -0.388 OA
HETATM   13  C1  UNL     1      18.302  -2.516  11.213  1.00  0.00     0.202 C
ENDBRANCH   1  12
TORSDOF 1
ENDMDL