MODEL 4
REMARK VINA RESULT: -6.564108135      3.387      4.469
REMARK  3 active torsions:
REMARK  status: ('A' for Active; 'I' for Inactive)
REMARK    1  A    between atoms: S1_2  and  C2_3
REMARK    2  A    between atoms: C3_6  and  C4_7
REMARK    3  A    between atoms: C7_20  and  N6_21
ROOT
HETATM    1  C2  UNL     1      45.716   0.638  20.625  1.00  0.00     0.160 A
HETATM    2  N1  UNL     1      46.164   1.516  19.725  1.00  0.00    -0.320 N
ATOM      3  H1  UNL     1      45.646   2.384  19.585  1.00  0.00     0.169 HD
HETATM    4  C3  UNL     1      47.289   1.297  18.986  1.00  0.00     0.157 A
HETATM    5  N5  UNL     1      47.916   0.152  19.213  1.00  0.00    -0.174 N
ATOM      6  H5  UNL     1      48.761  -0.053  18.680  1.00  0.00     0.186 HD
HETATM    7  C7  UNL     1      47.483  -0.771  20.130  1.00  0.00     0.679 A
HETATM    8  N7  UNL     1      46.376  -0.512  20.829  1.00  0.00    -0.171 N
ATOM      9  H7  UNL     1      46.034  -1.185  21.515  1.00  0.00     0.186 HD
ENDROOT
BRANCH   4  10
HETATM   10  C4  UNL     1      47.644   2.332  18.060  1.00  0.00     0.161 A
HETATM   11  N2  UNL     1      48.809   3.023  18.203  1.00  0.00    -0.288 N
HETATM   12  N3  UNL     1      49.210   3.974  17.415  1.00  0.00    -0.251 N
ATOM     13  H2  UNL     1      49.410   2.777  18.989  1.00  0.00     0.187 HD
HETATM   14  C5  UNL     1      48.452   4.336  16.367  1.00  0.00     0.341 A
ATOM     15  H3  UNL     1      50.098   4.443  17.592  1.00  0.00     0.191 HD
HETATM   16  O1  UNL     1      48.819   5.254  15.587  1.00  0.00    -0.245 OA
HETATM   17  N4  UNL     1      47.297   3.692  16.174  1.00  0.00    -0.272 N
HETATM   18  C6  UNL     1      46.872   2.689  17.004  1.00  0.00     0.281 A
ATOM     19  H4  UNL     1      46.712   3.957  15.381  1.00  0.00     0.174 HD
HETATM   20  O2  UNL     1      45.767   2.167  16.711  1.00  0.00    -0.265 OA
ENDBRANCH   4  10
BRANCH   1  21
HETATM   21  S1  UNL     1      44.214   1.020  21.556  1.00  0.00    -0.098 SA
HETATM   22  C1  UNL     1      43.163  -0.455  21.530  1.00  0.00     0.099 C
ENDBRANCH   1  21
BRANCH   7  23
HETATM   23  N6  UNL     1      48.130  -1.871  20.314  1.00  0.00    -0.234 N
ATOM     24  H62 UNL     1      47.630  -2.735  20.527  1.00  0.00     0.174 HD
ATOM     25  H61 UNL     1      49.147  -1.896  20.250  1.00  0.00     0.174 HD
ENDBRANCH   7  23
TORSDOF 3
ENDMDL