MODEL 2
REMARK VINA RESULT: -6.436145658      2.351      3.577
REMARK  4 active torsions:
REMARK  status: ('A' for Active; 'I' for Inactive)
REMARK    1  A    between atoms: C4_9  and  C5_10
REMARK    2  A    between atoms: C5_10  and  N4_11
REMARK    3  A    between atoms: N4_11  and  O1_13
REMARK    4  A    between atoms: C7_20  and  N7_21
ROOT
HETATM    1  N1  UNL     1      44.358   6.771  18.988  1.00  0.00    -0.080 NA
HETATM    2  C1  UNL     1      44.399   5.607  19.816  1.00  0.00     0.145 A
HETATM    3  N2  UNL     1      45.095   4.509  19.479  1.00  0.00    -0.337 N
ATOM      4  H2  UNL     1      45.615   4.503  18.602  1.00  0.00     0.167 HD
HETATM    5  C2  UNL     1      45.128   3.416  20.266  1.00  0.00     0.122 A
HETATM    6  C3  UNL     1      44.445   3.376  21.459  1.00  0.00     0.134 A
HETATM    7  N3  UNL     1      43.749   4.488  21.787  1.00  0.00    -0.337 N
ATOM      8  H3  UNL     1      43.232   4.493  22.666  1.00  0.00     0.167 HD
HETATM    9  C4  UNL     1      43.704   5.587  21.015  1.00  0.00     0.092 A
HETATM   10  N5  UNL     1      44.496   2.337  22.175  1.00  0.00    -0.358 N
ATOM     11  H5  UNL     1      43.970   2.371  23.047  1.00  0.00     0.162 HD
HETATM   12  C6  UNL     1      45.203   1.111  21.916  1.00  0.00     0.246 A
HETATM   13  N6  UNL     1      45.913   1.164  20.666  1.00  0.00    -0.358 N
ATOM     14  H6  UNL     1      46.463   0.364  20.349  1.00  0.00     0.162 HD
HETATM   15  C7  UNL     1      45.840   2.343  19.881  1.00  0.00     0.131 A
ENDROOT
BRANCH   9  16
HETATM   16  C5  UNL     1      42.935   6.749  21.427  1.00  0.00     0.146 C
BRANCH  16  17
HETATM   17  N4  UNL     1      43.555   7.739  21.973  1.00  0.00    -0.278 N
ATOM     18  H4  UNL     1      43.037   8.561  22.284  1.00  0.00     0.193 HD
BRANCH  17  19
HETATM   19  O1  UNL     1      44.914   7.678  22.131  1.00  0.00    -0.290 OA
ATOM     20  H1  UNL     1      45.355   8.342  22.648  1.00  0.00     0.244 HD
ENDBRANCH  17  19
ENDBRANCH  16  17
ENDBRANCH   9  16
BRANCH  15  21
HETATM   21  N7  UNL     1      46.519   2.453  18.640  1.00  0.00    -0.366 N
HETATM   22  C8  UNL     1      45.890   2.300  17.350  1.00  0.00     0.124 C
HETATM   23  C9  UNL     1      46.920   2.825  16.345  1.00  0.00     0.021 C
HETATM   24  C10 UNL     1      48.226   2.454  17.006  1.00  0.00     0.021 C
HETATM   25  C11 UNL     1      47.916   2.730  18.477  1.00  0.00     0.124 C
ENDBRANCH  15  21
TORSDOF 4
ENDMDL