MODEL 5
REMARK VINA RESULT: -6.720616212      1.381      1.643
REMARK  2 active torsions:
REMARK  status: ('A' for Active; 'I' for Inactive)
REMARK    1  A    between atoms: C4_9  and  N4_10
REMARK       I    between atoms: N4_10  and  C5_12
REMARK       I    between atoms: C5_12  and  N5_13
REMARK       I    between atoms: C5_12  and  N6_17
REMARK    2  A    between atoms: C6_21  and  N7_22
ROOT
HETATM    1  C1  UNL     1      43.657   5.253  21.848  1.00  0.00     0.158 C
HETATM    2  N1  UNL     1      44.057   3.884  22.157  1.00  0.00    -0.331 N
HETATM    3  C2  UNL     1      43.820   3.224  23.304  1.00  0.00     0.185 A
HETATM    4  N2  UNL     1      44.350   1.998  23.183  1.00  0.00    -0.335 N
ATOM      5  H2  UNL     1      44.327   1.269  23.896  1.00  0.00     0.168 HD
HETATM    6  C3  UNL     1      44.917   1.888  21.968  1.00  0.00     0.153 A
HETATM    7  N3  UNL     1      45.580   0.886  21.336  1.00  0.00    -0.323 N
ATOM      8  H3  UNL     1      45.714   0.001  21.825  1.00  0.00     0.169 HD
HETATM    9  C4  UNL     1      46.063   1.012  20.099  1.00  0.00     0.150 A
HETATM   10  C6  UNL     1      45.873   2.214  19.451  1.00  0.00     0.150 A
HETATM   11  N8  UNL     1      45.216   3.225  20.062  1.00  0.00    -0.322 N
ATOM     12  H8  UNL     1      45.082   4.109  19.571  1.00  0.00     0.169 HD
HETATM   13  C11 UNL     1      44.732   3.075  21.322  1.00  0.00     0.154 A
ENDROOT
BRANCH   9  14
HETATM   14  N4  UNL     1      46.676   0.073  19.523  1.00  0.00    -0.324 N
HETATM   15  C5  UNL     1      47.952  -0.486  19.790  1.00  0.00     0.481 C
HETATM   16  N5  UNL     1      47.906  -1.086  21.125  1.00  0.00    -0.033 N
HETATM   17  N6  UNL     1      49.059   0.403  19.725  1.00  0.00    -0.033 N
ATOM     18  H53 UNL     1      47.604  -0.429  21.844  1.00  0.00     0.278 HD
ATOM     19  H52 UNL     1      47.148  -1.760  21.231  1.00  0.00     0.278 HD
ATOM     20  H51 UNL     1      48.823  -1.488  21.316  1.00  0.00     0.278 HD
ATOM     21  H63 UNL     1      49.072   0.870  18.818  1.00  0.00     0.278 HD
ATOM     22  H62 UNL     1      48.897   1.199  20.341  1.00  0.00     0.278 HD
ATOM     23  H61 UNL     1      49.976   0.001  19.916  1.00  0.00     0.278 HD
ATOM     24  H4  UNL     1      46.176  -0.351  18.742  1.00  0.00     0.165 HD
ENDBRANCH   9  14
BRANCH  10  25
HETATM   25  N7  UNL     1      46.335   2.481  18.136  1.00  0.00    -0.351 N
HETATM   26  C7  UNL     1      45.973   2.645  16.675  1.00  0.00     0.156 A
HETATM   27  C8  UNL     1      47.255   2.774  17.124  1.00  0.00     0.050 A
HETATM   28  C9  UNL     1      48.541   2.189  16.880  1.00  0.00     0.035 A
HETATM   29  C10 UNL     1      48.317   3.723  17.104  1.00  0.00     0.035 A
ENDBRANCH  10  25
TORSDOF 2
ENDMDL