MODEL 1
REMARK VINA RESULT: -7.151719208      0.000      0.000
REMARK  4 active torsions:
REMARK  status: ('A' for Active; 'I' for Inactive)
REMARK    1  A    between atoms: C2_2  and  N1_4
REMARK    2  A    between atoms: N1_4  and  C4_6
REMARK    3  A    between atoms: C8_18  and  N6_19
REMARK    4  A    between atoms: N6_19  and  C9_21
ROOT
HETATM    1  C4  UNL     1      45.593   2.665  18.767  1.00  0.00     0.120 A
HETATM    2  N2  UNL     1      44.652   2.510  19.692  1.00  0.00    -0.338 N
ATOM      3  H2  UNL     1      43.840   3.128  19.680  1.00  0.00     0.168 HD
HETATM    4  C5  UNL     1      44.739   1.565  20.643  1.00  0.00     0.183 A
HETATM    5  N3  UNL     1      45.780   0.719  20.714  1.00  0.00    -0.338 N
ATOM      6  H3  UNL     1      45.827   0.008  21.443  1.00  0.00     0.168 HD
HETATM    7  C6  UNL     1      46.774   0.836  19.785  1.00  0.00     0.124 A
HETATM    8  N4  UNL     1      47.844  -0.000  19.825  1.00  0.00    -0.338 N
ATOM      9  H4  UNL     1      47.919  -0.721  20.543  1.00  0.00     0.168 HD
HETATM   10  C7  UNL     1      48.802   0.145  18.893  1.00  0.00     0.183 A
HETATM   11  N5  UNL     1      48.725   1.089  17.937  1.00  0.00    -0.338 N
ATOM     12  H5  UNL     1      49.475   1.164  17.250  1.00  0.00     0.168 HD
HETATM   13  C8  UNL     1      47.693   1.930  17.864  1.00  0.00     0.122 A
HETATM   14  C10 UNL     1      46.685   1.807  18.810  1.00  0.00     0.096 A
ENDROOT
BRANCH  13  15
HETATM   15  N6  UNL     1      47.568   2.849  16.973  1.00  0.00    -0.339 N
ATOM     16  H6  UNL     1      46.679   2.930  16.479  1.00  0.00     0.164 HD
BRANCH  15  17
HETATM   17  C9  UNL     1      48.626   3.769  16.641  1.00  0.00     0.315 C
HETATM   18  N7  UNL     1      48.045   4.964  16.056  1.00  0.00    -0.285 N
HETATM   19  N8  UNL     1      47.953   5.886  16.913  1.00  0.00    -0.231 N
ATOM     20  H7  UNL     1      47.751   5.047  15.083  1.00  0.00     0.185 HD
HETATM   21  N9  UNL     1      48.448   5.414  18.118  1.00  0.00    -0.012 NA
ATOM     22  H8  UNL     1      47.578   6.820  16.746  1.00  0.00     0.205 HD
HETATM   23  N10 UNL     1      49.268   4.318  17.842  1.00  0.00    -0.077 NA
ENDBRANCH  15  17
ENDBRANCH  13  15
BRANCH   1  24
HETATM   24  N1  UNL     1      45.556   3.556  17.835  1.00  0.00    -0.371 N
ATOM     25  H1  UNL     1      46.298   3.550  17.136  1.00  0.00     0.161 HD
BRANCH  24  26
HETATM   26  C2  UNL     1      44.538   4.551  17.725  1.00  0.00     0.075 C
HETATM   27  C1  UNL     1      44.951   5.740  18.593  1.00  0.00     0.031 C
HETATM   28  C3  UNL     1      44.346   5.075  16.323  1.00  0.00     0.031 C
ENDBRANCH  24  26
ENDBRANCH   1  24
TORSDOF 4
ENDMDL