MODEL 1
REMARK VINA RESULT: -7.613368679      0.000      0.000
REMARK  4 active torsions:
REMARK  status: ('A' for Active; 'I' for Inactive)
REMARK    1  A    between atoms: C3_3  and  O1_4
REMARK    2  A    between atoms: C6_9  and  C7_10
REMARK       I    between atoms: C7_10  and  N2_12
REMARK    3  A    between atoms: N2_12  and  C8_14
REMARK    4  A    between atoms: C9_23  and  C10_24
ROOT
HETATM    1  C7  UNL     1      47.490   3.989  18.080  1.00  0.00     0.271 C
HETATM    2  O2  UNL     1      48.641   4.503  18.229  1.00  0.00    -0.267 OA
HETATM    3  N2  UNL     1      47.307   2.604  17.890  1.00  0.00    -0.153 N
ATOM      4  H2  UNL     1      46.593   2.279  17.238  1.00  0.00     0.187 HD
ENDROOT
BRANCH   1   5
HETATM    5  C6  UNL     1      46.347   4.912  18.111  1.00  0.00     0.048 A
HETATM    6  C5  UNL     1      45.924   5.464  16.897  1.00  0.00     0.047 A
HETATM    7  C4  UNL     1      44.840   6.310  16.917  1.00  0.00     0.081 A
HETATM    8  C3  UNL     1      44.192   6.607  18.097  1.00  0.00     0.096 A
HETATM    9  N1  UNL     1      44.377   6.894  15.695  1.00  0.00    -0.099 NA
HETATM   10  C2  UNL     1      44.590   6.078  19.299  1.00  0.00    -0.013 A
HETATM   11  C1  UNL     1      43.912   6.377  20.582  1.00  0.00     0.052 C
HETATM   12  C9  UNL     1      45.690   5.217  19.284  1.00  0.00     0.026 A
BRANCH   8  13
HETATM   13  O1  UNL     1      43.100   7.462  18.097  1.00  0.00    -0.358 OA
ATOM     14  H1  UNL     1      42.610   7.555  17.288  1.00  0.00     0.217 HD
ENDBRANCH   8  13
BRANCH  12  15
HETATM   15  C10 UNL     1      46.116   4.649  20.572  1.00  0.00     0.271 C
HETATM   16  O3  UNL     1      46.969   5.365  21.206  1.00  0.00    -0.301 OA
ENDBRANCH  12  15
ENDBRANCH   1   5
BRANCH   3  17
HETATM   17  C8  UNL     1      48.035   1.725  18.536  1.00  0.00     0.716 A
HETATM   18  N3  UNL     1      47.532   0.766  19.351  1.00  0.00    -0.115 N
HETATM   19  N4  UNL     1      48.540   0.076  19.828  1.00  0.00    -0.213 N
ATOM     20  H3  UNL     1      46.546   0.609  19.556  1.00  0.00     0.207 HD
HETATM   21  N5  UNL     1      49.668   0.552  19.352  1.00  0.00    -0.213 N
ATOM     22  H4  UNL     1      48.460  -0.712  20.472  1.00  0.00     0.210 HD
HETATM   23  N6  UNL     1      49.363   1.564  18.560  1.00  0.00    -0.115 N
ATOM     24  H5  UNL     1      50.605   0.205  19.557  1.00  0.00     0.210 HD
ATOM     25  H6  UNL     1      50.034   2.133  18.046  1.00  0.00     0.207 HD
ENDBRANCH   3  17
TORSDOF 4
ENDMDL