MODEL 5
REMARK VINA RESULT: -6.183445766      1.183      1.332
REMARK  4 active torsions:
REMARK  status: ('A' for Active; 'I' for Inactive)
REMARK    1  A    between atoms: O1_2  and  N1_3
REMARK    2  A    between atoms: N1_3  and  C2_5
REMARK    3  A    between atoms: C3_8  and  N3_9
REMARK    4  A    between atoms: N3_9  and  N4_11
ROOT
HETATM    1  C2  UNL     1      47.090   3.409  19.257  1.00  0.00     0.168 A
HETATM    2  N2  UNL     1      46.255   2.522  19.841  1.00  0.00    -0.172 N
ATOM      3  H2  UNL     1      45.499   2.874  20.428  1.00  0.00     0.186 HD
HETATM    4  C3  UNL     1      46.383   1.193  19.678  1.00  0.00     0.699 A
HETATM    5  N5  UNL     1      47.373   0.706  18.910  1.00  0.00    -0.175 N
ATOM      6  H5  UNL     1      47.479  -0.300  18.780  1.00  0.00     0.185 HD
HETATM    7  C8  UNL     1      48.228   1.570  18.309  1.00  0.00     0.160 A
HETATM    8  N6  UNL     1      49.280   1.089  17.494  1.00  0.00    -0.080 NA
HETATM    9  C9  UNL     1      48.116   2.944  18.461  1.00  0.00     0.134 A
HETATM   10  N7  UNL     1      49.039   3.835  17.812  1.00  0.00    -0.095 NA
ENDROOT
BRANCH   4  11
HETATM   11  N3  UNL     1      45.563   0.418  20.255  1.00  0.00    -0.134 N
ATOM     12  H3  UNL     1      44.746   0.145  19.708  1.00  0.00     0.205 HD
BRANCH  11  13
HETATM   13  N4  UNL     1      45.639  -0.097  21.519  1.00  0.00    -0.310 N
HETATM   14  C4  UNL     1      46.639  -1.141  21.774  1.00  0.00     0.169 C
HETATM   15  C5  UNL     1      46.600  -1.493  23.230  1.00  0.00     0.189 C
HETATM   16  O2  UNL     1      46.634  -0.414  24.076  1.00  0.00    -0.388 OA
HETATM   17  C6  UNL     1      45.714   0.565  23.820  1.00  0.00     0.189 C
HETATM   18  C7  UNL     1      44.822   0.291  22.643  1.00  0.00     0.169 C
ENDBRANCH  11  13
ENDBRANCH   4  11
BRANCH   1  19
HETATM   19  N1  UNL     1      46.946   4.690  19.430  1.00  0.00    -0.249 N
ATOM     20  H1  UNL     1      46.747   5.290  18.629  1.00  0.00     0.196 HD
BRANCH  19  21
HETATM   21  O1  UNL     1      47.058   5.233  20.663  1.00  0.00    -0.284 OA
HETATM   22  C1  UNL     1      46.010   5.429  21.569  1.00  0.00     0.237 C
ENDBRANCH  19  21
ENDBRANCH   1  19
TORSDOF 4
ENDMDL