MODEL 2
REMARK VINA RESULT: -6.854106645      2.072      2.524
REMARK  3 active torsions:
REMARK  status: ('A' for Active; 'I' for Inactive)
REMARK       I    between atoms: N1_2  and  C3_4
REMARK    1  A    between atoms: C3_4  and  C4_6
REMARK    2  A    between atoms: C5_9  and  N3_10
REMARK    3  A    between atoms: C7_16  and  C8_17
ROOT
HETATM    1  C4  UNL     1      46.968   4.525  18.610  1.00  0.00     0.130 A
HETATM    2  N2  UNL     1      47.319   5.406  17.616  1.00  0.00    -0.186 N
ATOM      3  H2  UNL     1      47.059   6.386  17.732  1.00  0.00     0.184 HD
HETATM    4  C5  UNL     1      47.974   5.064  16.518  1.00  0.00     0.676 A
HETATM    5  N4  UNL     1      48.302   3.768  16.396  1.00  0.00    -0.201 N
ATOM      6  H4  UNL     1      48.811   3.462  15.567  1.00  0.00     0.183 HD
HETATM    7  C6  UNL     1      47.984   2.874  17.321  1.00  0.00     0.122 A
HETATM    8  C7  UNL     1      47.269   3.219  18.516  1.00  0.00     0.042 A
ENDROOT
BRANCH   8   9
HETATM    9  C8  UNL     1      46.680   2.084  19.229  1.00  0.00     0.077 A
HETATM   10  N5  UNL     1      47.550   1.087  19.387  1.00  0.00    -0.296 N
HETATM   11  N6  UNL     1      47.288  -0.103  20.005  1.00  0.00    -0.273 N
ATOM     12  H5  UNL     1      48.490   1.224  19.015  1.00  0.00     0.187 HD
HETATM   13  C9  UNL     1      45.994  -0.370  20.516  1.00  0.00     0.207 A
ATOM     14  H6  UNL     1      48.025  -0.802  20.097  1.00  0.00     0.189 HD
HETATM   15  N7  UNL     1      45.681  -1.589  21.198  1.00  0.00    -0.062 NA
HETATM   16  N8  UNL     1      45.123   0.539  20.336  1.00  0.00    -0.337 N
HETATM   17  C10 UNL     1      45.332   1.805  19.645  1.00  0.00     0.122 A
ATOM     18  H8  UNL     1      44.191   0.365  20.711  1.00  0.00     0.168 HD
ENDBRANCH   8   9
BRANCH   1  19
HETATM   19  C3  UNL     1      46.427   5.104  19.833  1.00  0.00     0.271 C
HETATM   20  N1  UNL     1      45.093   5.561  19.926  1.00  0.00    -0.355 N
HETATM   21  C1  UNL     1      44.653   6.139  21.204  1.00  0.00     0.152 C
HETATM   22  C2  UNL     1      44.118   5.492  18.870  1.00  0.00     0.152 C
HETATM   23  O1  UNL     1      47.108   5.225  20.851  1.00  0.00    -0.266 OA
ENDBRANCH   1  19
BRANCH   4  24
HETATM   24  N3  UNL     1      48.296   5.908  15.587  1.00  0.00    -0.234 N
ATOM     25  H32 UNL     1      48.747   6.790  15.829  1.00  0.00     0.174 HD
ATOM     26  H31 UNL     1      48.125   5.741  14.595  1.00  0.00     0.174 HD
ENDBRANCH   4  24
TORSDOF 3
ENDMDL