MODEL 5
REMARK VINA RESULT: -6.641324734      3.272      4.233
REMARK  5 active torsions:
REMARK  status: ('A' for Active; 'I' for Inactive)
REMARK    1  A    between atoms: C2_2  and  C4_4
REMARK    2  A    between atoms: C5_8  and  N2_9
REMARK       I    between atoms: N2_9  and  C6_11
REMARK    3  A    between atoms: C6_11  and  C7_13
REMARK    4  A    between atoms: C9_22  and  N7_23
REMARK    5  A    between atoms: N7_23  and  N8_25
ROOT
HETATM    1  C4  UNL     1      46.985   3.421  17.417  1.00  0.00     0.136 A
HETATM    2  O1  UNL     1      45.703   3.744  17.574  1.00  0.00    -0.233 OA
HETATM    3  N1  UNL     1      45.162   3.123  18.559  1.00  0.00    -0.242 N
ATOM      4  H1  UNL     1      44.193   3.211  18.865  1.00  0.00     0.196 HD
HETATM    5  C5  UNL     1      46.091   2.340  19.111  1.00  0.00     0.160 A
HETATM    6  C9  UNL     1      47.288   2.507  18.397  1.00  0.00     0.130 A
ENDROOT
BRANCH   5   7
HETATM    7  N2  UNL     1      45.961   1.562  20.115  1.00  0.00    -0.303 N
HETATM    8  C6  UNL     1      45.080   1.911  21.152  1.00  0.00     0.294 C
HETATM    9  O2  UNL     1      43.834   1.962  20.935  1.00  0.00    -0.264 OA
ATOM     10  H2  UNL     1      46.493   0.693  20.164  1.00  0.00     0.171 HD
BRANCH   8  11
HETATM   11  C7  UNL     1      45.534   2.228  22.499  1.00  0.00     0.206 A
HETATM   12  N3  UNL     1      45.966   3.439  22.888  1.00  0.00    -0.264 N
HETATM   13  N4  UNL     1      46.306   3.401  24.160  1.00  0.00    -0.225 N
ATOM     14  H3  UNL     1      46.023   4.263  22.289  1.00  0.00     0.190 HD
HETATM   15  N5  UNL     1      46.102   2.175  24.617  1.00  0.00    -0.223 N
ATOM     16  H4  UNL     1      46.665   4.186  24.704  1.00  0.00     0.210 HD
HETATM   17  C8  UNL     1      46.354   1.750  25.956  1.00  0.00     0.202 C
HETATM   18  N6  UNL     1      45.626   1.452  23.589  1.00  0.00    -0.262 N
ATOM     19  H6  UNL     1      45.373   0.465  23.631  1.00  0.00     0.190 HD
ENDBRANCH   8  11
ENDBRANCH   5   7
BRANCH   6  20
HETATM   20  N7  UNL     1      48.508   1.851  18.653  1.00  0.00    -0.301 N
ATOM     21  H7  UNL     1      49.106   2.229  19.388  1.00  0.00     0.186 HD
BRANCH  20  22
HETATM   22  N8  UNL     1      48.959   0.711  17.964  1.00  0.00    -0.344 N
ATOM     23  H82 UNL     1      49.231   0.842  16.990  1.00  0.00     0.176 HD
ATOM     24  H81 UNL     1      49.028  -0.221  18.373  1.00  0.00     0.176 HD
ENDBRANCH  20  22
ENDBRANCH   6  20
BRANCH   1  25
HETATM   25  C2  UNL     1      47.830   3.975  16.384  1.00  0.00    -0.033 C
HETATM   26  C1  UNL     1      48.590   3.302  15.587  1.00  0.00     0.021 C
HETATM   27  C3  UNL     1      47.812   5.481  16.215  1.00  0.00     0.050 C
ENDBRANCH   1  25
TORSDOF 5
ENDMDL