MODEL 3
REMARK VINA RESULT: -6.429911922      1.870      1.949
REMARK  3 active torsions:
REMARK  status: ('A' for Active; 'I' for Inactive)
REMARK    1  A    between atoms: S1_2  and  C2_3
REMARK    2  A    between atoms: N2_6  and  N3_8
REMARK       I    between atoms: N3_8  and  C4_10
REMARK    3  A    between atoms: C4_10  and  C5_12
ROOT
HETATM    1  C2  UNL     1      43.528   6.260  19.530  1.00  0.00     0.166 C
HETATM    2  C3  UNL     1      44.292   6.686  20.667  1.00  0.00     0.126 C
HETATM    3  N1  UNL     1      44.924   7.020  21.582  1.00  0.00    -0.189 NA
HETATM    4  N2  UNL     1      43.833   5.224  18.863  1.00  0.00    -0.282 N
ATOM      5  H2  UNL     1      43.259   4.961  18.062  1.00  0.00     0.188 HD
ENDROOT
BRANCH   1   6
HETATM    6  S1  UNL     1      42.116   7.220  19.051  1.00  0.00    -0.104 SA
HETATM    7  C1  UNL     1      42.331   8.976  19.475  1.00  0.00     0.098 C
ENDBRANCH   1   6
BRANCH   4   8
HETATM    8  N3  UNL     1      44.948   4.425  19.202  1.00  0.00    -0.264 N
HETATM    9  C4  UNL     1      45.513   3.546  18.242  1.00  0.00     0.275 C
HETATM   10  O1  UNL     1      44.959   3.554  17.089  1.00  0.00    -0.266 OA
ATOM     11  H3  UNL     1      45.348   4.479  20.139  1.00  0.00     0.190 HD
BRANCH   9  12
HETATM   12  C5  UNL     1      46.646   2.682  18.491  1.00  0.00     0.099 A
HETATM   13  C6  UNL     1      47.913   3.170  18.146  1.00  0.00     0.029 A
HETATM   14  C7  UNL     1      47.977   4.548  17.591  1.00  0.00     0.069 C
HETATM   15  N4  UNL     1      49.025   2.427  18.319  1.00  0.00    -0.312 N
HETATM   16  C8  UNL     1      48.931   1.192  18.830  1.00  0.00     0.326 A
ATOM     17  H4  UNL     1      49.937   2.804  18.060  1.00  0.00     0.170 HD
HETATM   18  O2  UNL     1      50.006   0.512  18.983  1.00  0.00    -0.247 OA
HETATM   19  N5  UNL     1      47.744   0.699  19.166  1.00  0.00    -0.294 N
HETATM   20  C9  UNL     1      46.570   1.420  19.007  1.00  0.00     0.120 A
ATOM     21  H5  UNL     1      47.695  -0.243  19.555  1.00  0.00     0.172 HD
HETATM   22  N6  UNL     1      45.482   0.822  19.283  1.00  0.00    -0.384 N
ATOM     23  H62 UNL     1      44.619   1.352  19.167  1.00  0.00     0.157 HD
ATOM     24  H61 UNL     1      45.425  -0.121  19.669  1.00  0.00     0.157 HD
ENDBRANCH   9  12
ENDBRANCH   4   8
TORSDOF 3
ENDMDL