MODEL 3
REMARK VINA RESULT: -6.487559010      2.536      4.287
REMARK  4 active torsions:
REMARK  status: ('A' for Active; 'I' for Inactive)
REMARK    1  A    between atoms: N1_2  and  C2_4
REMARK    2  A    between atoms: C3_7  and  N3_8
REMARK    3  A    between atoms: N3_8  and  O1_10
REMARK    4  A    between atoms: C6_17  and  C7_18
ROOT
HETATM    1  C2  UNL     1      47.401  -0.556  19.697  1.00  0.00     0.680 A
HETATM    2  N2  UNL     1      46.112  -0.519  20.080  1.00  0.00    -0.173 N
ATOM      3  H2  UNL     1      45.701  -1.353  20.500  1.00  0.00     0.186 HD
HETATM    4  C3  UNL     1      45.344   0.570  19.932  1.00  0.00     0.171 A
HETATM    5  C5  UNL     1      45.918   1.691  19.360  1.00  0.00     0.123 A
HETATM    6  N4  UNL     1      45.203   2.810  19.185  1.00  0.00    -0.294 N
ATOM      7  H4  UNL     1      44.227   2.826  19.479  1.00  0.00     0.187 HD
HETATM    8  N5  UNL     1      45.735   3.908  18.634  1.00  0.00    -0.294 N
ATOM      9  H5  UNL     1      45.155   4.739  18.519  1.00  0.00     0.187 HD
HETATM   10  C6  UNL     1      47.017   3.941  18.229  1.00  0.00     0.140 A
HETATM   11  C8  UNL     1      47.754   2.798  18.405  1.00  0.00     0.109 A
HETATM   12  N7  UNL     1      49.113   2.784  17.993  1.00  0.00    -0.097 NA
HETATM   13  C9  UNL     1      47.240   1.656  18.967  1.00  0.00     0.107 A
HETATM   14  N8  UNL     1      47.949   0.528  19.146  1.00  0.00    -0.188 N
ATOM     15  H8  UNL     1      48.926   0.500  18.854  1.00  0.00     0.184 HD
ENDROOT
BRANCH   4  16
HETATM   16  N3  UNL     1      44.109   0.552  20.318  1.00  0.00    -0.248 N
ATOM     17  H3  UNL     1      43.474  -0.124  19.893  1.00  0.00     0.196 HD
BRANCH  16  18
HETATM   18  O1  UNL     1      43.627   1.391  21.264  1.00  0.00    -0.284 OA
HETATM   19  C4  UNL     1      44.070   1.289  22.618  1.00  0.00     0.237 C
ENDBRANCH  16  18
ENDBRANCH   4  16
BRANCH   1  20
HETATM   20  N1  UNL     1      48.071  -1.646  19.875  1.00  0.00    -0.230 N
HETATM   21  C1  UNL     1      47.544  -2.632  20.800  1.00  0.00     0.165 C
ATOM     22  H1  UNL     1      48.947  -1.810  19.379  1.00  0.00     0.177 HD
ENDBRANCH   1  20
BRANCH  10  23
HETATM   23  C7  UNL     1      47.611   5.125  17.628  1.00  0.00     0.284 C
HETATM   24  N6  UNL     1      47.324   5.439  16.291  1.00  0.00    -0.056 NA
HETATM   25  O2  UNL     1      48.375   5.835  18.351  1.00  0.00    -0.269 OA
ENDBRANCH  10  23
TORSDOF 4
ENDMDL