MODEL 5
REMARK VINA RESULT: -9.362162038      2.470      3.581
REMARK  5 active torsions:
REMARK  status: ('A' for Active; 'I' for Inactive)
REMARK    1  A    between atoms: C7_9  and  O1_10
REMARK    2  A    between atoms: O1_10  and  C8_11
REMARK    3  A    between atoms: C8_11  and  C9_12
REMARK    4  A    between atoms: N2_14  and  C11_15
REMARK    5  A    between atoms: C11_15  and  C12_16
ROOT
HETATM    1  N1  UNL     1      26.013  -9.035  -6.373  1.00  0.00    -0.191 NA
HETATM    2  C1  UNL     1      26.646  -9.966  -6.083  1.00  0.00     0.102 C
HETATM    3  C2  UNL     1      27.427 -11.122  -5.746  1.00  0.00     0.079 A
HETATM    4  C3  UNL     1      27.620 -12.071  -6.741  1.00  0.00     0.049 A
HETATM    5  C4  UNL     1      28.355 -13.201  -6.491  1.00  0.00     0.035 A
HETATM    6 CL1  UNL     1      28.598 -14.408  -7.752  1.00  0.00    -0.084 Cl
HETATM    7  C5  UNL     1      28.896 -13.372  -5.238  1.00  0.00     0.026 A
HETATM    8  C6  UNL     1      28.696 -12.409  -4.245  1.00  0.00     0.040 A
HETATM    9  C7  UNL     1      27.958 -11.268  -4.479  1.00  0.00     0.090 A
ENDROOT
BRANCH   9  10
HETATM   10  O1  UNL     1      27.736 -10.302  -3.546  1.00  0.00    -0.344 OA
BRANCH  10  11
HETATM   11  C8  UNL     1      28.245  -9.020  -3.492  1.00  0.00     0.236 C
BRANCH  11  12
HETATM   12  C9  UNL     1      27.361  -7.971  -2.995  1.00  0.00     0.068 A
HETATM   13  C10 UNL     1      27.124  -6.723  -3.591  1.00  0.00     0.140 A
HETATM   14  N2  UNL     1      26.262  -6.049  -2.827  1.00  0.00    -0.283 N
HETATM   15  N3  UNL     1      25.975  -6.839  -1.807  1.00  0.00    -0.240 N
HETATM   16  N4  UNL     1      26.618  -7.989  -1.883  1.00  0.00    -0.287 N
ATOM     17  H3  UNL     1      25.335  -6.590  -1.053  1.00  0.00     0.208 HD
ATOM     18  H4  UNL     1      26.559  -8.756  -1.214  1.00  0.00     0.188 HD
BRANCH  14  19
HETATM   19  C11 UNL     1      25.703  -4.735  -2.998  1.00  0.00     0.193 C
BRANCH  19  20
HETATM   20  C12 UNL     1      26.643  -3.735  -3.551  1.00  0.00     0.022 A
HETATM   21  C13 UNL     1      27.322  -2.823  -2.780  1.00  0.00     0.126 A
HETATM   22  F1  UNL     1      27.173  -2.801  -1.452  1.00  0.00    -0.205 F
HETATM   23  C14 UNL     1      28.199  -1.887  -3.330  1.00  0.00     0.043 A
HETATM   24  C15 UNL     1      28.411  -1.854  -4.690  1.00  0.00     0.005 A
HETATM   25  C16 UNL     1      27.740  -2.759  -5.478  1.00  0.00     0.024 A
HETATM   26  C17 UNL     1      26.879  -3.675  -4.924  1.00  0.00     0.045 A
HETATM   27 CL2  UNL     1      26.006  -4.845  -5.914  1.00  0.00    -0.084 Cl
ENDBRANCH  19  20
ENDBRANCH  14  19
ENDBRANCH  11  12
ENDBRANCH  10  11
ENDBRANCH   9  10
TORSDOF 5
ENDMDL