MODEL 2
REMARK VINA RESULT: -7.168504310      1.474      1.709
REMARK  8 active torsions:
REMARK  status: ('A' for Active; 'I' for Inactive)
REMARK    1  A    between atoms: O1_2  and  C2_3
REMARK    2  A    between atoms: C5_8  and  N2_9
REMARK    3  A    between atoms: N3_11  and  N4_13
REMARK    4  A    between atoms: N4_13  and  C7_15
REMARK    5  A    between atoms: C7_15  and  O2_16
REMARK    6  A    between atoms: C7_15  and  C8_18
REMARK    7  A    between atoms: C8_18  and  C9_20
REMARK    8  A    between atoms: C10_23  and  O3_24
ROOT
HETATM    1  N2  UNL     1      27.659  -8.662  -4.269  1.00  0.00    -0.280 N
ATOM      2  H2  UNL     1      28.557  -8.186  -4.186  1.00  0.00     0.188 HD
HETATM    3  N3  UNL     1      26.663  -8.072  -3.810  1.00  0.00    -0.238 N
ATOM      4  H3  UNL     1      25.764  -8.546  -3.892  1.00  0.00     0.208 HD
ENDROOT
BRANCH   1   5
HETATM    5  C5  UNL     1      27.661  -9.920  -4.890  1.00  0.00     0.122 A
HETATM    6  C3  UNL     1      28.228 -11.025  -4.292  1.00  0.00     0.041 A
HETATM    7  N1  UNL     1      28.215 -12.219  -4.914  1.00  0.00    -0.324 N
HETATM    8  C4  UNL     1      28.874 -10.937  -2.942  1.00  0.00     0.071 C
HETATM    9  C2  UNL     1      27.663 -12.385  -6.114  1.00  0.00     0.225 A
ATOM     10  H1  UNL     1      28.641 -13.022  -4.452  1.00  0.00     0.169 HD
HETATM   11  N5  UNL     1      27.107 -11.321  -6.711  1.00  0.00    -0.301 N
HETATM   12  C10 UNL     1      27.090 -10.093  -6.132  1.00  0.00     0.175 A
ATOM     13  H5  UNL     1      26.683 -11.438  -7.631  1.00  0.00     0.171 HD
BRANCH   9  14
HETATM   14  O1  UNL     1      27.655 -13.625  -6.749  1.00  0.00    -0.327 OA
HETATM   15  C1  UNL     1      28.747 -14.513  -6.627  1.00  0.00     0.213 C
ENDBRANCH   9  14
BRANCH  12  16
HETATM   16  O3  UNL     1      26.500  -9.054  -6.811  1.00  0.00    -0.339 OA
HETATM   17  C11 UNL     1      25.147  -8.707  -6.608  1.00  0.00     0.211 C
ENDBRANCH  12  16
ENDBRANCH   1   5
BRANCH   3  18
HETATM   18  N4  UNL     1      26.667  -6.837  -3.201  1.00  0.00    -0.260 N
HETATM   19  C6  UNL     1      26.235  -6.893  -1.771  1.00  0.00     0.181 C
BRANCH  18  20
HETATM   20  C7  UNL     1      27.001  -5.584  -3.703  1.00  0.00     0.182 C
BRANCH  20  21
HETATM   21  O2  UNL     1      27.891  -5.612  -4.690  1.00  0.00    -0.344 OA
ATOM     22  H2  UNL     1      28.017  -4.777  -5.125  1.00  0.00     0.219 HD
ENDBRANCH  20  21
BRANCH  20  23
HETATM   23  C8  UNL     1      26.593  -4.250  -3.389  1.00  0.00     0.119 C
HETATM   24 CL1  UNL     1      24.790  -3.963  -3.463  1.00  0.00    -0.077 Cl
BRANCH  23  25
HETATM   25  C9  UNL     1      27.233  -3.182  -3.058  1.00  0.00     0.129 C
HETATM   26 CL2  UNL     1      28.763  -2.585  -3.641  1.00  0.00    -0.069 Cl
HETATM   27 CL3  UNL     1      26.484  -2.118  -1.821  1.00  0.00    -0.069 Cl
ENDBRANCH  23  25
ENDBRANCH  20  23
ENDBRANCH  18  20
ENDBRANCH   3  18
TORSDOF 8
ENDMDL