MODEL 2
REMARK VINA RESULT: -6.548205298      1.020      1.065
REMARK  5 active torsions:
REMARK  status: ('A' for Active; 'I' for Inactive)
REMARK    1  A    between atoms: O1_2  and  C2_3
REMARK    2  A    between atoms: C5_6  and  C6_7
REMARK    3  A    between atoms: C7_10  and  C8_11
REMARK    4  A    between atoms: C16_22  and  O4_23
REMARK    5  A    between atoms: C18_25  and  O5_26
ROOT
HETATM    1  C2  UNL     1      26.585  -1.650  -1.767  1.00  0.00     0.105 A
HETATM    2  C3  UNL     1      26.458  -3.039  -1.915  1.00  0.00     0.054 A
HETATM    3  C4  UNL     1      26.999  -3.725  -2.979  1.00  0.00     0.016 A
HETATM    4  C5  UNL     1      26.822  -5.113  -3.047  1.00  0.00     0.036 A
HETATM    5  C7  UNL     1      27.402  -5.706  -4.152  1.00  0.00     0.062 A
HETATM    6  C14 UNL     1      28.078  -4.926  -5.062  1.00  0.00     0.300 A
HETATM    7  O2  UNL     1      28.583  -5.515  -6.041  1.00  0.00    -0.259 OA
HETATM    8  O3  UNL     1      28.222  -3.651  -4.970  1.00  0.00    -0.271 OA
HETATM    9  C15 UNL     1      27.692  -3.031  -3.939  1.00  0.00     0.126 A
HETATM   10  C16 UNL     1      27.831  -1.644  -3.814  1.00  0.00     0.139 A
HETATM   11  C18 UNL     1      27.290  -0.983  -2.752  1.00  0.00     0.138 A
ENDROOT
BRANCH   5  12
HETATM   12  C8  UNL     1      27.285  -7.152  -4.366  1.00  0.00    -0.019 A
HETATM   13  C9  UNL     1      26.362  -7.583  -5.289  1.00  0.00     0.015 A
HETATM   14  C10 UNL     1      26.201  -8.930  -5.553  1.00  0.00     0.043 A
HETATM   15  C11 UNL     1      26.992  -9.831  -4.863  1.00  0.00     0.116 A
HETATM   16  F3  UNL     1      26.874 -11.176  -5.090  1.00  0.00    -0.206 F
HETATM   17  C12 UNL     1      27.931  -9.405  -3.927  1.00  0.00     0.043 A
HETATM   18  C13 UNL     1      28.053  -8.064  -3.702  1.00  0.00     0.015 A
ENDBRANCH   5  12
BRANCH   4  19
HETATM   19  C6  UNL     1      26.090  -5.875  -2.037  1.00  0.00     0.388 C
HETATM   20  F1  UNL     1      24.785  -6.202  -2.403  1.00  0.00    -0.209 F
HETATM   21  F2  UNL     1      26.780  -6.946  -1.507  1.00  0.00    -0.209 F
ENDBRANCH   4  19
BRANCH   1  22
HETATM   22  O1  UNL     1      26.028  -1.016  -0.691  1.00  0.00    -0.353 OA
HETATM   23  C1  UNL     1      24.703  -0.596  -0.585  1.00  0.00     0.210 C
ENDBRANCH   1  22
BRANCH  10  24
HETATM   24  O4  UNL     1      28.548  -1.018  -4.835  1.00  0.00    -0.351 OA
HETATM   25  C17 UNL     1      27.907  -0.502  -5.968  1.00  0.00     0.210 C
ENDBRANCH  10  24
BRANCH  11  26
HETATM   26  O5  UNL     1      27.432   0.378  -2.627  1.00  0.00    -0.351 OA
HETATM   27  C19 UNL     1      26.578   1.354  -3.132  1.00  0.00     0.210 C
ENDBRANCH  11  26
TORSDOF 5
ENDMDL