MODEL 4
REMARK VINA RESULT: -6.170542178      2.075      2.807
REMARK  6 active torsions:
REMARK  status: ('A' for Active; 'I' for Inactive)
REMARK    1  A    between atoms: O1_2  and  C2_3
REMARK    2  A    between atoms: C5_7  and  C6_8
REMARK    3  A    between atoms: C8_10  and  O2_11
REMARK    4  A    between atoms: O2_11  and  C9_12
REMARK    5  A    between atoms: C11_16  and  N1_17
REMARK    6  A    between atoms: C15_24  and  O5_25
ROOT
HETATM    1  C6  UNL     1      25.848  -0.707  -0.844  1.00  0.00    -0.015 A
HETATM    2  C7  UNL     1      24.482  -0.372  -0.720  1.00  0.00     0.049 A
HETATM    3  C8  UNL     1      23.825  -0.331   0.473  1.00  0.00     0.078 A
HETATM    4  C10 UNL     1      24.546  -0.640   1.647  1.00  0.00     0.068 A
HETATM    5  C11 UNL     1      25.882  -0.970   1.553  1.00  0.00     0.067 A
HETATM    6  C14 UNL     1      26.523  -1.001   0.314  1.00  0.00     0.044 A
ENDROOT
BRANCH   1   7
HETATM    7  C5  UNL     1      26.464  -0.678  -2.153  1.00  0.00     0.046 A
HETATM    8  C4  UNL     1      26.834  -1.869  -2.732  1.00  0.00     0.132 A
HETATM    9  C3  UNL     1      27.484  -1.871  -3.949  1.00  0.00     0.080 A
HETATM   10  F1  UNL     1      26.573  -3.058  -2.125  1.00  0.00    -0.205 F
HETATM   11  C2  UNL     1      27.771  -0.665  -4.603  1.00  0.00     0.073 A
HETATM   12  C17 UNL     1      27.397   0.519  -4.021  1.00  0.00     0.074 A
HETATM   13  C15 UNL     1      26.743   0.540  -2.798  1.00  0.00     0.085 A
BRANCH  11  14
HETATM   14  O1  UNL     1      28.428  -0.654  -5.819  1.00  0.00    -0.356 OA
HETATM   15  C1  UNL     1      27.801  -0.656  -7.059  1.00  0.00     0.210 C
ENDBRANCH  11  14
BRANCH  13  16
HETATM   16  O5  UNL     1      26.367   1.741  -2.218  1.00  0.00    -0.355 OA
HETATM   17  C16 UNL     1      25.397   2.546  -2.839  1.00  0.00     0.210 C
ENDBRANCH  13  16
ENDBRANCH   1   7
BRANCH   3  18
HETATM   18  O2  UNL     1      22.506  -0.009   0.571  1.00  0.00    -0.290 OA
BRANCH  18  19
HETATM   19  C9  UNL     1      21.940   1.225   0.868  1.00  0.00     0.505 C
HETATM   20  F2  UNL     1      22.782   2.304   0.564  1.00  0.00    -0.184 F
HETATM   21  F3  UNL     1      21.656   1.323   2.250  1.00  0.00    -0.184 F
ENDBRANCH  18  19
ENDBRANCH   3  18
BRANCH   5  22
HETATM   22  N1  UNL     1      26.617  -1.237   2.736  1.00  0.00    -0.176 N
HETATM   23  C12 UNL     1      26.733  -2.136   3.710  1.00  0.00     0.411 A
HETATM   24  O3  UNL     1      26.163  -3.225   3.977  1.00  0.00    -0.234 OA
HETATM   25  O4  UNL     1      27.702  -1.416   4.292  1.00  0.00    -0.161 OA
HETATM   26  N2  UNL     1      27.595  -0.537   3.347  1.00  0.00    -0.181 N
HETATM   27  C13 UNL     1      28.250   0.739   3.023  1.00  0.00     0.209 C
ENDBRANCH   5  22
TORSDOF 6
ENDMDL