MODEL 1
REMARK VINA RESULT: -8.728381629      0.000      0.000
REMARK  5 active torsions:
REMARK  status: ('A' for Active; 'I' for Inactive)
REMARK    1  A    between atoms: C2_2  and  N1_3
REMARK    2  A    between atoms: C3_8  and  C4_9
REMARK    3  A    between atoms: C4_9  and  C5_10
REMARK    4  A    between atoms: C5_10  and  O1_13
REMARK    5  A    between atoms: O1_13  and  C7_14
ROOT
HETATM    1  C5  UNL     1      26.441  -5.694  -4.512  1.00  0.00     0.241 C
HETATM    2  C6  UNL     1      25.600  -4.744  -3.699  1.00  0.00     0.092 C
HETATM    3  N4  UNL     1      24.954  -3.977  -3.088  1.00  0.00    -0.194 NA
ENDROOT
BRANCH   1   4
HETATM    4  C4  UNL     1      27.774  -5.010  -4.565  1.00  0.00     0.108 C
BRANCH   4   5
HETATM    5  C3  UNL     1      27.822  -3.647  -5.068  1.00  0.00     0.054 A
HETATM    6  N3  UNL     1      27.561  -3.251  -6.342  1.00  0.00    -0.288 N
HETATM    7  N2  UNL     1      27.710  -1.942  -6.410  1.00  0.00    -0.240 N
ATOM      8  H3  UNL     1      27.295  -3.863  -7.114  1.00  0.00     0.188 HD
HETATM    9  N1  UNL     1      28.059  -1.475  -5.226  1.00  0.00    -0.281 N
ATOM     10  H2  UNL     1      27.577  -1.378  -7.250  1.00  0.00     0.208 HD
HETATM   11  C14 UNL     1      28.141  -2.485  -4.363  1.00  0.00     0.050 A
HETATM   12  C15 UNL     1      28.497  -2.439  -2.926  1.00  0.00     0.072 C
BRANCH   9  13
HETATM   13  C2  UNL     1      28.300  -0.077  -4.965  1.00  0.00     0.146 C
HETATM   14  C1  UNL     1      27.018   0.619  -4.570  1.00  0.00     0.028 C
ENDBRANCH   9  13
ENDBRANCH   4   5
ENDBRANCH   1   4
BRANCH   1  15
HETATM   15  O1  UNL     1      26.541  -6.942  -3.935  1.00  0.00    -0.329 OA
BRANCH  15  16
HETATM   16  C7  UNL     1      26.801  -8.174  -4.471  1.00  0.00     0.100 A
HETATM   17  C8  UNL     1      26.355  -8.640  -5.686  1.00  0.00     0.069 A
HETATM   18 CL1  UNL     1      25.358  -7.602  -6.676  1.00  0.00    -0.081 Cl
HETATM   19  C9  UNL     1      26.660  -9.904  -6.173  1.00  0.00     0.052 A
HETATM   20  C10 UNL     1      27.438 -10.776  -5.457  1.00  0.00     0.058 A
HETATM   21 CL2  UNL     1      27.824 -12.377  -6.071  1.00  0.00    -0.082 Cl
HETATM   22  C11 UNL     1      27.901 -10.349  -4.248  1.00  0.00     0.064 A
HETATM   23 CL3  UNL     1      28.904 -11.450  -3.307  1.00  0.00    -0.082 Cl
HETATM   24  C12 UNL     1      27.597  -9.074  -3.754  1.00  0.00    -0.003 A
HETATM   25  C13 UNL     1      28.202  -8.726  -2.467  1.00  0.00     0.053 C
ENDBRANCH  15  16
ENDBRANCH   1  15
TORSDOF 5
ENDMDL