MODEL 5
REMARK VINA RESULT: -6.731710903      3.614      6.363
REMARK  4 active torsions:
REMARK  status: ('A' for Active; 'I' for Inactive)
REMARK    1  A    between atoms: O1_2  and  C2_3
REMARK    2  A    between atoms: C4_5  and  C5_6
REMARK    3  A    between atoms: N1_15  and  C11_16
REMARK    4  A    between atoms: C14_19  and  O2_20
ROOT
HETATM    1  C11 UNL     1      27.732  -0.016  -2.125  1.00  0.00     0.059 A
HETATM    2  C12 UNL     1      27.959  -1.330  -1.745  1.00  0.00     0.034 A
HETATM    3  C13 UNL     1      28.115  -2.336  -2.666  1.00  0.00     0.042 A
HETATM    4  C14 UNL     1      28.049  -2.057  -3.998  1.00  0.00     0.101 A
HETATM    5  C16 UNL     1      27.819  -0.738  -4.465  1.00  0.00     0.103 A
HETATM    6  O3  UNL     1      27.753  -0.463  -5.707  1.00  0.00    -0.353 OA
HETATM    7  C17 UNL     1      27.665  -0.069  -6.926  1.00  0.00     0.210 C
HETATM    8  C18 UNL     1      27.671   0.232  -3.469  1.00  0.00     0.071 A
ENDROOT
BRANCH   4   9
HETATM    9  O2  UNL     1      28.195  -3.011  -5.005  1.00  0.00    -0.353 OA
HETATM   10  C15 UNL     1      27.127  -3.951  -5.134  1.00  0.00     0.210 C
ENDBRANCH   4   9
BRANCH   1  11
HETATM   11  N1  UNL     1      27.609   1.063  -1.197  1.00  0.00    -0.254 N
HETATM   12  C4  UNL     1      26.564   1.478  -0.507  1.00  0.00     0.074 A
HETATM   13  C3  UNL     1      27.000   2.544   0.301  1.00  0.00     0.089 A
HETATM   14  C2  UNL     1      28.360   2.724   0.038  1.00  0.00     0.159 A
HETATM   15  N2  UNL     1      28.691   1.822  -0.863  1.00  0.00    -0.273 N
ATOM     16  H2  UNL     1      29.626   1.708  -1.255  1.00  0.00     0.189 HD
BRANCH  12  17
HETATM   17  C5  UNL     1      25.193   0.936  -0.458  1.00  0.00     0.037 A
HETATM   18  C6  UNL     1      24.815  -0.096   0.374  1.00  0.00     0.059 A
HETATM   19  C7  UNL     1      23.493  -0.552   0.477  1.00  0.00     0.120 A
HETATM   20  F1  UNL     1      23.179  -1.558   1.305  1.00  0.00    -0.206 F
HETATM   21  C8  UNL     1      22.517   0.040  -0.279  1.00  0.00     0.087 A
HETATM   22  C9  UNL     1      22.832   1.065  -1.121  1.00  0.00     0.158 A
HETATM   23  F2  UNL     1      21.864   1.656  -1.871  1.00  0.00    -0.203 F
HETATM   24  C10 UNL     1      24.150   1.491  -1.195  1.00  0.00     0.167 A
HETATM   25  F3  UNL     1      24.414   2.525  -2.014  1.00  0.00    -0.202 F
ENDBRANCH  12  17
BRANCH  14  26
HETATM   26  O1  UNL     1      29.113   3.701   0.671  1.00  0.00    -0.340 OA
HETATM   27  C1  UNL     1      30.000   3.419   1.730  1.00  0.00     0.211 C
ENDBRANCH  14  26
ENDBRANCH   1  11
TORSDOF 4
ENDMDL