MODEL 1
REMARK VINA RESULT: -8.391773261      0.000      0.000
REMARK  5 active torsions:
REMARK  status: ('A' for Active; 'I' for Inactive)
REMARK    1  A    between atoms: O1_2  and  C2_3
REMARK    2  A    between atoms: C4_5  and  O2_6
REMARK    3  A    between atoms: O2_6  and  C5_7
REMARK    4  A    between atoms: C9_15  and  C10_16
REMARK    5  A    between atoms: C10_16  and  C11_17
ROOT
HETATM    1  C5  UNL     1      26.559  -2.643  -3.046  1.00  0.00     0.172 A
HETATM    2  N1  UNL     1      27.048  -2.271  -4.260  1.00  0.00    -0.263 N
ATOM      3  H1  UNL     1      26.920  -2.796  -5.125  1.00  0.00     0.190 HD
HETATM    4  N2  UNL     1      27.715  -1.130  -4.162  1.00  0.00    -0.193 N
HETATM    5  C6  UNL     1      28.353  -0.456  -5.214  1.00  0.00     0.205 C
HETATM    6  N3  UNL     1      28.895   0.087  -6.092  1.00  0.00    -0.170 NA
HETATM    7  C7  UNL     1      27.656  -0.757  -2.866  1.00  0.00     0.052 A
HETATM    8  C8  UNL     1      28.280   0.472  -2.330  1.00  0.00     0.072 C
HETATM    9  C9  UNL     1      26.943  -1.677  -2.141  1.00  0.00     0.024 A
ENDROOT
BRANCH   1  10
HETATM   10  O2  UNL     1      25.815  -3.762  -2.740  1.00  0.00    -0.289 OA
BRANCH  10  11
HETATM   11  C4  UNL     1      26.090  -5.012  -3.216  1.00  0.00     0.122 A
HETATM   12  C3  UNL     1      26.434  -6.023  -2.352  1.00  0.00     0.080 A
HETATM   13  C2  UNL     1      26.718  -7.308  -2.813  1.00  0.00     0.112 A
HETATM   14  C19 UNL     1      26.650  -7.559  -4.166  1.00  0.00     0.191 A
HETATM   15  C18 UNL     1      26.306  -6.560  -5.053  1.00  0.00     0.199 A
HETATM   16  F3  UNL     1      26.920  -8.805  -4.670  1.00  0.00    -0.200 F
HETATM   17  C17 UNL     1      26.026  -5.279  -4.554  1.00  0.00     0.192 A
HETATM   18  F2  UNL     1      26.238  -6.799  -6.384  1.00  0.00    -0.199 F
HETATM   19  F1  UNL     1      25.680  -4.290  -5.404  1.00  0.00    -0.200 F
BRANCH  13  20
HETATM   20  O1  UNL     1      27.064  -8.338  -1.975  1.00  0.00    -0.353 OA
HETATM   21  C1  UNL     1      28.298  -9.009  -2.116  1.00  0.00     0.210 C
ENDBRANCH  13  20
ENDBRANCH  10  11
ENDBRANCH   1  10
BRANCH   9  22
HETATM   22  C10 UNL     1      26.671  -1.618  -0.695  1.00  0.00     0.083 C
BRANCH  22  23
HETATM   23  C11 UNL     1      25.488  -0.843  -0.316  1.00  0.00    -0.054 A
HETATM   24  C12 UNL     1      24.746  -0.076  -1.189  1.00  0.00     0.007 A
HETATM   25  C13 UNL     1      23.643   0.620  -0.723  1.00  0.00     0.001 A
HETATM   26  C14 UNL     1      23.236   0.589   0.587  1.00  0.00     0.000 A
HETATM   27  C15 UNL     1      23.980  -0.184   1.474  1.00  0.00     0.001 A
HETATM   28  C16 UNL     1      25.076  -0.874   1.010  1.00  0.00     0.007 A
ENDBRANCH  22  23
ENDBRANCH   9  22
TORSDOF 5
ENDMDL