MODEL 5
REMARK VINA RESULT: -8.866603591      3.379      8.400
REMARK  5 active torsions:
REMARK  status: ('A' for Active; 'I' for Inactive)
REMARK    1  A    between atoms: O1_2  and  C2_3
REMARK    2  A    between atoms: C4_5  and  N1_6
REMARK    3  A    between atoms: C6_10  and  C7_11
REMARK    4  A    between atoms: C7_11  and  C8_13
REMARK    5  A    between atoms: C8_13  and  N3_14
ROOT
HETATM    1  N1  UNL     1      27.776 -10.256  -4.193  1.00  0.00    -0.245 N
HETATM    2  N2  UNL     1      28.194 -10.232  -2.943  1.00  0.00    -0.303 N
ATOM      3  H2  UNL     1      28.703 -10.994  -2.494  1.00  0.00     0.186 HD
HETATM    4  C5  UNL     1      27.867  -9.087  -2.334  1.00  0.00     0.119 A
HETATM    5  C6  UNL     1      27.192  -8.318  -3.253  1.00  0.00     0.019 A
HETATM    6  C11 UNL     1      27.157  -9.097  -4.420  1.00  0.00     0.135 A
HETATM    7 CL2  UNL     1      26.427  -8.629  -5.932  1.00  0.00    -0.062 Cl
ENDROOT
BRANCH   5   8
HETATM    8  C7  UNL     1      26.662  -6.948  -3.127  1.00  0.00     0.139 C
HETATM    9 CL1  UNL     1      25.727  -6.929  -1.582  1.00  0.00    -0.118 Cl
BRANCH   8  10
HETATM   10  C8  UNL     1      27.620  -5.833  -3.124  1.00  0.00     0.175 C
BRANCH  10  11
HETATM   11  N3  UNL     1      27.487  -4.830  -4.136  1.00  0.00    -0.285 N
HETATM   12  C9  UNL     1      26.814  -4.782  -5.270  1.00  0.00     0.201 A
HETATM   13  N4  UNL     1      27.010  -3.595  -5.916  1.00  0.00    -0.346 N
HETATM   14  C10 UNL     1      27.842  -2.890  -5.134  1.00  0.00     0.198 A
ATOM     15  H4  UNL     1      26.608  -3.304  -6.807  1.00  0.00     0.167 HD
HETATM   16  N5  UNL     1      28.117  -3.640  -4.079  1.00  0.00    -0.293 N
ATOM     17  H5  UNL     1      28.730  -3.353  -3.316  1.00  0.00     0.188 HD
ENDBRANCH  10  11
ENDBRANCH   8  10
ENDBRANCH   5   8
BRANCH   1  18
HETATM   18  C4  UNL     1      27.971 -11.339  -5.129  1.00  0.00     0.060 A
HETATM   19  C3  UNL     1      28.689 -12.450  -4.753  1.00  0.00     0.070 A
HETATM   20  C2  UNL     1      28.890 -13.515  -5.636  1.00  0.00     0.092 A
HETATM   21  C14 UNL     1      28.350 -13.428  -6.902  1.00  0.00     0.067 A
HETATM   22  C13 UNL     1      27.627 -12.326  -7.300  1.00  0.00     0.029 A
HETATM   23 CL3  UNL     1      28.601 -14.774  -8.021  1.00  0.00    -0.081 Cl
HETATM   24  C12 UNL     1      27.445 -11.283  -6.396  1.00  0.00     0.033 A
BRANCH  20  25
HETATM   25  O1  UNL     1      29.616 -14.650  -5.275  1.00  0.00    -0.354 OA
HETATM   26  C1  UNL     1      28.898 -15.883  -5.281  1.00  0.00     0.210 C
ENDBRANCH  20  25
ENDBRANCH   1  18
TORSDOF 5
ENDMDL