MODEL 2
REMARK VINA RESULT: -7.782414653      0.765      1.771
REMARK  5 active torsions:
REMARK  status: ('A' for Active; 'I' for Inactive)
REMARK    1  A    between atoms: O1_2  and  C2_3
REMARK    2  A    between atoms: C5_6  and  C6_7
REMARK    3  A    between atoms: C7_12  and  C8_13
REMARK    4  A    between atoms: N3_16  and  C9_17
REMARK    5  A    between atoms: C17_27  and  O2_28
ROOT
HETATM    1  C9  UNL     1      27.150  -2.778  -3.487  1.00  0.00     0.081 A
HETATM    2  C10 UNL     1      25.895  -3.364  -3.327  1.00  0.00     0.035 A
HETATM    3  C11 UNL     1      25.743  -4.716  -3.109  1.00  0.00     0.025 A
HETATM    4  C12 UNL     1      26.844  -5.554  -3.039  1.00  0.00     0.047 A
HETATM    5  C13 UNL     1      26.691  -6.963  -2.811  1.00  0.00     0.099 C
HETATM    6  N4  UNL     1      26.565  -8.099  -2.622  1.00  0.00    -0.191 NA
HETATM    7  C14 UNL     1      28.095  -4.997  -3.195  1.00  0.00     0.067 A
HETATM    8  C15 UNL     1      28.243  -3.649  -3.413  1.00  0.00     0.145 A
HETATM    9  F3  UNL     1      29.512  -3.187  -3.559  1.00  0.00    -0.204 F
ENDROOT
BRANCH   1  10
HETATM   10  N3  UNL     1      27.331  -1.381  -3.669  1.00  0.00    -0.276 N
HETATM   11  C6  UNL     1      27.178  -0.407  -2.779  1.00  0.00     0.139 A
HETATM   12  N1  UNL     1      27.456   0.737  -3.508  1.00  0.00    -0.283 N
HETATM   13  N2  UNL     1      27.752   0.442  -4.744  1.00  0.00    -0.282 N
ATOM     14  H1  UNL     1      27.432   1.684  -3.129  1.00  0.00     0.188 HD
HETATM   15  C7  UNL     1      27.689  -0.879  -4.902  1.00  0.00     0.171 A
ATOM     16  H2  UNL     1      27.992   1.114  -5.472  1.00  0.00     0.188 HD
BRANCH  11  17
HETATM   17  C5  UNL     1      26.797  -0.386  -1.382  1.00  0.00     0.013 A
HETATM   18  C4  UNL     1      27.627  -0.177  -0.339  1.00  0.00     0.018 A
HETATM   19  C3  UNL     1      27.168  -0.207   0.996  1.00  0.00     0.040 A
HETATM   20  C2  UNL     1      25.845  -0.452   1.277  1.00  0.00     0.101 A
HETATM   21  C17 UNL     1      24.990  -0.665   0.236  1.00  0.00     0.102 A
HETATM   22  C16 UNL     1      25.460  -0.632  -1.079  1.00  0.00     0.055 A
BRANCH  20  23
HETATM   23  O1  UNL     1      25.342  -0.492   2.563  1.00  0.00    -0.353 OA
HETATM   24  C1  UNL     1      25.456  -1.579   3.437  1.00  0.00     0.210 C
ENDBRANCH  20  23
BRANCH  21  25
HETATM   25  O2  UNL     1      23.645  -0.915   0.456  1.00  0.00    -0.353 OA
HETATM   26  C18 UNL     1      22.683   0.114   0.346  1.00  0.00     0.210 C
ENDBRANCH  21  25
ENDBRANCH  11  17
BRANCH  15  27
HETATM   27  C8  UNL     1      27.943  -1.685  -6.131  1.00  0.00     0.422 C
HETATM   28  F1  UNL     1      28.013  -0.921  -7.255  1.00  0.00    -0.206 F
HETATM   29  F2  UNL     1      27.059  -2.734  -6.208  1.00  0.00    -0.206 F
ENDBRANCH  15  27
ENDBRANCH   1  10
TORSDOF 5
ENDMDL