MODEL 4
REMARK VINA RESULT: -6.492099878      3.359      5.031
REMARK  6 active torsions:
REMARK  status: ('A' for Active; 'I' for Inactive)
REMARK    1  A    between atoms: O1_2  and  C2_3
REMARK    2  A    between atoms: C2_3  and  C3_5
REMARK    3  A    between atoms: C5_7  and  O3_8
REMARK    4  A    between atoms: C7_10  and  O4_11
REMARK    5  A    between atoms: C9_13  and  O5_14
REMARK    6  A    between atoms: O5_14  and  C10_15
ROOT
HETATM    1  C3  UNL     1      24.664   2.262  -4.393  1.00  0.00     0.065 A
HETATM    2  C4  UNL     1      25.792   1.755  -5.051  1.00  0.00     0.059 A
HETATM    3  C5  UNL     1      26.870   1.277  -4.357  1.00  0.00     0.105 A
HETATM    4  C7  UNL     1      26.794   1.316  -2.958  1.00  0.00     0.137 A
HETATM    5  C9  UNL     1      25.699   1.805  -2.305  1.00  0.00     0.134 A
HETATM    6  C16 UNL     1      24.594   2.299  -3.031  1.00  0.00     0.097 A
HETATM    7  C17 UNL     1      23.453   2.876  -2.339  1.00  0.00     0.103 C
HETATM    8  N1  UNL     1      22.551   3.335  -1.761  1.00  0.00    -0.191 NA
ENDROOT
BRANCH   1   9
HETATM    9  C2  UNL     1      23.556   2.750  -5.217  1.00  0.00     0.294 C
HETATM   10  O2  UNL     1      23.544   3.962  -5.593  1.00  0.00    -0.259 OA
BRANCH   9  11
HETATM   11  O1  UNL     1      22.504   1.962  -5.616  1.00  0.00    -0.322 OA
HETATM   12  C1  UNL     1      21.184   2.227  -5.248  1.00  0.00     0.213 C
ENDBRANCH   9  11
ENDBRANCH   1   9
BRANCH   5  13
HETATM   13  O5  UNL     1      25.582   1.859  -0.950  1.00  0.00    -0.300 OA
BRANCH  13  14
HETATM   14  C10 UNL     1      25.322   0.885  -0.032  1.00  0.00     0.156 A
HETATM   15  C11 UNL     1      26.339   0.655   0.910  1.00  0.00     0.156 A
HETATM   16  F1  UNL     1      27.478   1.404   0.921  1.00  0.00    -0.203 F
HETATM   17  C12 UNL     1      26.232  -0.299   1.897  1.00  0.00     0.090 A
HETATM   18  C13 UNL     1      25.100  -1.082   2.002  1.00  0.00     0.161 A
HETATM   19  F2  UNL     1      24.970  -2.020   2.954  1.00  0.00    -0.203 F
HETATM   20  C14 UNL     1      24.113  -0.858   1.088  1.00  0.00     0.196 A
HETATM   21  F3  UNL     1      22.968  -1.607   1.149  1.00  0.00    -0.199 F
HETATM   22  C15 UNL     1      24.208   0.107   0.080  1.00  0.00     0.194 A
HETATM   23  F4  UNL     1      23.170   0.239  -0.796  1.00  0.00    -0.200 F
ENDBRANCH  13  14
ENDBRANCH   5  13
BRANCH   4  24
HETATM   24  O4  UNL     1      27.932   0.813  -2.304  1.00  0.00    -0.351 OA
HETATM   25  C8  UNL     1      27.963  -0.587  -2.048  1.00  0.00     0.210 C
ENDBRANCH   4  24
BRANCH   3  26
HETATM   26  O3  UNL     1      27.993   0.774  -4.995  1.00  0.00    -0.353 OA
HETATM   27  C6  UNL     1      27.962  -0.128  -6.053  1.00  0.00     0.210 C
ENDBRANCH   3  26
TORSDOF 6
ENDMDL