MODEL 2
REMARK VINA RESULT: -7.379673102      3.398      7.690
REMARK  7 active torsions:
REMARK  status: ('A' for Active; 'I' for Inactive)
REMARK    1  A    between atoms: N2_6  and  C4_8
REMARK    2  A    between atoms: C4_8  and  C5_9
REMARK    3  A    between atoms: C5_9  and  O1_10
REMARK    4  A    between atoms: C8_16  and  C9_17
REMARK    5  A    between atoms: C9_17  and  C10_18
REMARK    6  A    between atoms: C14_23  and  O3_24
REMARK    7  A    between atoms: O3_24  and  C15_25
ROOT
HETATM    1  C1  UNL     1     -17.875 -10.934 -20.026  1.00  0.00     0.045 C
HETATM    2  C2  UNL     1     -16.769 -11.285 -20.614  1.00  0.00     0.051 A
HETATM    3  N1  UNL     1     -15.740 -10.380 -20.670  1.00  0.00    -0.337 N
ATOM      4  H1  UNL     1     -15.888  -9.465 -20.245  1.00  0.00     0.167 HD
HETATM    5  C3  UNL     1     -14.557 -10.614 -21.242  1.00  0.00     0.171 A
HETATM    6  N2  UNL     1     -13.677  -9.706 -21.236  1.00  0.00    -0.370 N
ATOM      7  H2  UNL     1     -13.942  -8.833 -20.781  1.00  0.00     0.161 HD
HETATM    8  C7  UNL     1     -14.349 -11.837 -21.813  1.00  0.00     0.289 A
HETATM    9  O2  UNL     1     -13.243 -12.143 -22.382  1.00  0.00    -0.264 OA
HETATM   10  N3  UNL     1     -15.330 -12.730 -21.772  1.00  0.00    -0.318 N
ATOM     11  H3  UNL     1     -15.162 -13.640 -22.202  1.00  0.00     0.169 HD
HETATM   12  C8  UNL     1     -16.573 -12.514 -21.181  1.00  0.00     0.062 A
ENDROOT
BRANCH  12  13
HETATM   13  C9  UNL     1     -17.389 -13.493 -21.242  1.00  0.00     0.043 C
BRANCH  13  14
HETATM   14  C10 UNL     1     -18.426 -13.914 -22.140  1.00  0.00    -0.030 A
HETATM   15  C11 UNL     1     -18.305 -15.090 -22.895  1.00  0.00     0.030 A
HETATM   16  C12 UNL     1     -19.278 -15.443 -23.801  1.00  0.00     0.014 A
HETATM   17 BR1  UNL     1     -19.050 -17.059 -24.796  1.00  0.00    -0.051 Br
HETATM   18  C13 UNL     1     -20.382 -14.660 -23.985  1.00  0.00     0.055 A
HETATM   19  C14 UNL     1     -20.559 -13.469 -23.257  1.00  0.00     0.070 A
HETATM   20  C17 UNL     1     -19.581 -13.153 -22.375  1.00  0.00     0.048 A
BRANCH  19  21
HETATM   21  O3  UNL     1     -21.701 -12.732 -23.504  1.00  0.00    -0.351 OA
BRANCH  21  22
HETATM   22  C15 UNL     1     -22.123 -12.390 -24.788  1.00  0.00     0.171 C
HETATM   23  C16 UNL     1     -21.014 -11.651 -25.498  1.00  0.00     0.034 C
ENDBRANCH  21  22
ENDBRANCH  19  21
ENDBRANCH  13  14
ENDBRANCH  12  13
BRANCH   6  24
HETATM   24  C4  UNL     1     -12.370  -9.747 -21.782  1.00  0.00     0.147 C
BRANCH  24  25
HETATM   25  C5  UNL     1     -12.366  -8.844 -23.022  1.00  0.00     0.186 C
BRANCH  25  26
HETATM   26  O1  UNL     1     -11.236  -9.030 -23.805  1.00  0.00    -0.394 OA
HETATM   27  C6  UNL     1     -11.135 -10.290 -24.362  1.00  0.00     0.201 C
ENDBRANCH  25  26
ENDBRANCH  24  25
ENDBRANCH   6  24
TORSDOF 7
ENDMDL