MODEL 5
REMARK VINA RESULT: -7.141822338      2.467      6.602
REMARK  6 active torsions:
REMARK  status: ('A' for Active; 'I' for Inactive)
REMARK    1  A    between atoms: C2_2  and  C3_3
REMARK    2  A    between atoms: C3_3  and  N1_4
REMARK    3  A    between atoms: N1_4  and  S1_6
REMARK    4  A    between atoms: S1_6  and  C5_9
REMARK    5  A    between atoms: C9_14  and  C10_15
REMARK    6  A    between atoms: C10_15  and  C11_16
ROOT
HETATM    1  C5  UNL     1     -16.266 -13.375 -21.070  1.00  0.00     0.081 A
HETATM    2  C6  UNL     1     -16.033 -14.217 -20.001  1.00  0.00     0.044 A
HETATM    3  C7  UNL     1     -15.074 -13.960 -19.040  1.00  0.00     0.013 A
HETATM    4 BR1  UNL     1     -14.760 -15.128 -17.570  1.00  0.00    -0.051 Br
HETATM    5  C8  UNL     1     -14.341 -12.802 -19.193  1.00  0.00     0.026 A
HETATM    6  C9  UNL     1     -14.556 -11.936 -20.263  1.00  0.00    -0.050 A
HETATM    7  C14 UNL     1     -15.514 -12.219 -21.199  1.00  0.00     0.033 A
ENDROOT
BRANCH   6   8
HETATM    8  C10 UNL     1     -13.746 -10.702 -20.391  1.00  0.00     0.097 C
BRANCH   8   9
HETATM    9  C11 UNL     1     -12.768 -10.799 -21.488  1.00  0.00     0.033 A
HETATM   10  C12 UNL     1     -11.856 -11.815 -21.679  1.00  0.00     0.118 A
HETATM   11  N2  UNL     1     -11.173 -11.504 -22.787  1.00  0.00    -0.317 N
HETATM   12  C13 UNL     1     -11.613 -10.340 -23.303  1.00  0.00     0.324 A
ATOM     13  H2  UNL     1     -10.424 -12.069 -23.185  1.00  0.00     0.170 HD
HETATM   14  O3  UNL     1     -11.192  -9.761 -24.335  1.00  0.00    -0.247 OA
HETATM   15  N3  UNL     1     -12.585  -9.926 -22.496  1.00  0.00    -0.311 N
ATOM     16  H3  UNL     1     -13.119  -9.067 -22.624  1.00  0.00     0.170 HD
ENDBRANCH   8   9
ENDBRANCH   6   8
BRANCH   1  17
HETATM   17  S1  UNL     1     -17.510 -13.797 -22.236  1.00  0.00     0.264 S
HETATM   18  O1  UNL     1     -17.490 -12.831 -23.389  1.00  0.00    -0.200 OA
HETATM   19  O2  UNL     1     -17.231 -15.197 -22.686  1.00  0.00    -0.200 OA
BRANCH  17  20
HETATM   20  N1  UNL     1     -19.004 -13.726 -21.473  1.00  0.00    -0.287 N
HETATM   21  C4  UNL     1     -19.782 -14.903 -21.474  1.00  0.00     0.169 C
BRANCH  20  22
HETATM   22  C3  UNL     1     -19.650 -12.488 -21.385  1.00  0.00     0.102 C
BRANCH  22  23
HETATM   23  C2  UNL     1     -19.488 -11.793 -20.074  1.00  0.00     0.008 C
HETATM   24  C1  UNL     1     -20.526 -11.453 -19.323  1.00  0.00     0.013 C
ENDBRANCH  22  23
ENDBRANCH  20  22
ENDBRANCH  17  20
ENDBRANCH   1  17
TORSDOF 6
ENDMDL