MODEL 4
REMARK VINA RESULT: -7.466037596      1.532      4.115
REMARK  7 active torsions:
REMARK  status: ('A' for Active; 'I' for Inactive)
REMARK    1  A    between atoms: C2_2  and  C3_3
REMARK    2  A    between atoms: C3_3  and  C4_4
REMARK    3  A    between atoms: C4_4  and  N1_5
REMARK    4  A    between atoms: N1_5  and  C5_7
REMARK    5  A    between atoms: C7_9  and  C8_10
REMARK    6  A    between atoms: C8_10  and  N2_11
REMARK    7  A    between atoms: C15_22  and  C16_23
REMARK       I    between atoms: C16_23  and  N4_25
ROOT
HETATM    1  C5  UNL     1     -15.500 -14.741 -19.136  1.00  0.00     0.103 A
HETATM    2  C6  UNL     1     -16.016 -14.345 -20.348  1.00  0.00     0.058 A
HETATM    3  C7  UNL     1     -15.961 -13.007 -20.755  1.00  0.00    -0.016 A
HETATM    4  C15 UNL     1     -15.367 -12.118 -19.884  1.00  0.00     0.096 A
HETATM    5  C19 UNL     1     -14.853 -12.559 -18.659  1.00  0.00     0.206 A
HETATM    6  F1  UNL     1     -14.267 -11.699 -17.795  1.00  0.00    -0.185 F
HETATM    7  N5  UNL     1     -14.928 -13.860 -18.307  1.00  0.00    -0.318 N
ATOM      8  H5  UNL     1     -14.551 -14.170 -17.411  1.00  0.00     0.169 HD
ENDROOT
BRANCH   3   9
HETATM    9  C8  UNL     1     -16.487 -12.505 -22.022  1.00  0.00     0.166 C
BRANCH   9  10
HETATM   10  N2  UNL     1     -17.935 -12.448 -22.055  1.00  0.00    -0.337 N
HETATM   11  C9  UNL     1     -18.718 -11.597 -21.179  1.00  0.00     0.228 C
HETATM   12  C10 UNL     1     -19.929 -12.316 -20.717  1.00  0.00     0.236 C
HETATM   13  O1  UNL     1     -20.311 -12.179 -19.528  1.00  0.00    -0.272 OA
HETATM   14  N3  UNL     1     -20.650 -13.154 -21.612  1.00  0.00    -0.342 N
HETATM   15  C11 UNL     1     -20.117 -13.438 -22.947  1.00  0.00     0.106 C
ATOM     16  H3  UNL     1     -21.542 -13.558 -21.324  1.00  0.00     0.163 HD
HETATM   17  C12 UNL     1     -20.737 -12.577 -23.998  1.00  0.00     0.048 C
HETATM   18  C13 UNL     1     -20.389 -14.901 -23.307  1.00  0.00     0.048 C
HETATM   19  C14 UNL     1     -18.649 -13.259 -22.981  1.00  0.00     0.248 C
HETATM   20  O2  UNL     1     -17.969 -13.845 -23.869  1.00  0.00    -0.271 OA
ENDBRANCH   9  10
ENDBRANCH   3   9
BRANCH   4  21
HETATM   21  C16 UNL     1     -15.232 -10.690 -20.172  1.00  0.00     0.258 C
HETATM   22  O3  UNL     1     -16.094  -9.840 -19.817  1.00  0.00    -0.267 OA
HETATM   23  N4  UNL     1     -14.094 -10.216 -20.879  1.00  0.00    -0.356 N
HETATM   24  C17 UNL     1     -13.067 -11.143 -21.311  1.00  0.00     0.152 C
HETATM   25  C18 UNL     1     -13.902  -8.816 -21.196  1.00  0.00     0.152 C
ENDBRANCH   4  21
BRANCH   1  26
HETATM   26  N1  UNL     1     -15.571 -15.960 -18.805  1.00  0.00    -0.376 N
ATOM     27  H1  UNL     1     -16.187 -16.177 -18.022  1.00  0.00     0.161 HD
BRANCH  26  28
HETATM   28  C4  UNL     1     -14.894 -17.064 -19.392  1.00  0.00     0.121 C
BRANCH  28  29
HETATM   29  C3  UNL     1     -13.395 -16.915 -19.415  1.00  0.00     0.019 C
BRANCH  29  30
HETATM   30  C2  UNL     1     -12.985 -16.703 -20.858  1.00  0.00    -0.003 C
HETATM   31  C1  UNL     1     -12.450 -15.331 -21.113  1.00  0.00     0.005 C
ENDBRANCH  29  30
ENDBRANCH  28  29
ENDBRANCH  26  28
ENDBRANCH   1  26
TORSDOF 7
ENDMDL