MODEL 4
REMARK VINA RESULT: -7.570492696      1.706      2.473
REMARK  8 active torsions:
REMARK  status: ('A' for Active; 'I' for Inactive)
REMARK    1  A    between atoms: C2_2  and  C3_3
REMARK    2  A    between atoms: C3_3  and  N1_5
REMARK    3  A    between atoms: C5_8  and  C6_9
REMARK    4  A    between atoms: C6_9  and  C7_10
REMARK       I    between atoms: C7_10  and  N2_12
REMARK    5  A    between atoms: N2_12  and  C8_14
REMARK    6  A    between atoms: C9_19  and  C10_20
REMARK    7  A    between atoms: C10_20  and  C11_21
REMARK    8  A    between atoms: C11_21  and  C12_22
ROOT
HETATM    1  C7  UNL     1     -17.016 -14.171 -21.899  1.00  0.00     0.226 C
HETATM    2  O2  UNL     1     -16.420 -14.728 -20.943  1.00  0.00    -0.273 OA
HETATM    3  N2  UNL     1     -16.500 -12.954 -22.391  1.00  0.00    -0.311 N
ATOM      4  H2  UNL     1     -16.422 -12.835 -23.401  1.00  0.00     0.170 HD
ENDROOT
BRANCH   3   5
HETATM    5  C8  UNL     1     -16.122 -11.985 -21.630  1.00  0.00     0.142 A
HETATM    6  N3  UNL     1     -16.838 -11.026 -21.044  1.00  0.00    -0.284 N
HETATM    7  N4  UNL     1     -16.025 -10.224 -20.339  1.00  0.00    -0.302 N
ATOM      8  H3  UNL     1     -17.849 -10.917 -21.119  1.00  0.00     0.188 HD
HETATM    9  C9  UNL     1     -14.749 -10.653 -20.456  1.00  0.00     0.047 A
ATOM     10  H4  UNL     1     -16.324  -9.414 -19.797  1.00  0.00     0.186 HD
HETATM   11  C14 UNL     1     -14.814 -11.765 -21.272  1.00  0.00     0.080 A
HETATM   12 BR1  UNL     1     -13.310 -12.822 -21.809  1.00  0.00    -0.045 Br
BRANCH   9  13
HETATM   13  C10 UNL     1     -13.564 -10.021 -19.819  1.00  0.00     0.060 C
BRANCH  13  14
HETATM   14  C11 UNL     1     -13.090  -8.799 -20.552  1.00  0.00     0.006 C
BRANCH  14  15
HETATM   15  C12 UNL     1     -12.086  -9.253 -21.587  1.00  0.00    -0.004 C
HETATM   16  C13 UNL     1     -12.504  -8.863 -22.989  1.00  0.00     0.005 C
ENDBRANCH  14  15
ENDBRANCH  13  14
ENDBRANCH   9  13
ENDBRANCH   3   5
BRANCH   1  17
HETATM   17  C6  UNL     1     -18.236 -14.794 -22.487  1.00  0.00     0.144 C
BRANCH  17  18
HETATM   18  C5  UNL     1     -19.433 -14.600 -21.553  1.00  0.00     0.224 C
HETATM   19  O1  UNL     1     -19.261 -13.351 -20.970  1.00  0.00    -0.357 OA
HETATM   20  C4  UNL     1     -20.072 -12.443 -21.589  1.00  0.00     0.300 C
HETATM   21  N1  UNL     1     -20.753 -13.077 -22.689  1.00  0.00    -0.294 N
HETATM   22  C15 UNL     1     -20.623 -14.483 -22.430  1.00  0.00     0.253 C
HETATM   23  O3  UNL     1     -21.345 -15.394 -22.847  1.00  0.00    -0.270 OA
BRANCH  21  24
HETATM   24  C3  UNL     1     -21.423 -12.444 -23.811  1.00  0.00     0.298 C
HETATM   25  F1  UNL     1     -22.728 -12.913 -23.907  1.00  0.00    -0.222 F
BRANCH  24  26
HETATM   26  C2  UNL     1     -20.679 -12.688 -25.075  1.00  0.00     0.021 C
HETATM   27  C1  UNL     1     -20.975 -11.994 -26.163  1.00  0.00     0.012 C
ENDBRANCH  24  26
ENDBRANCH  21  24
ENDBRANCH  17  18
ENDBRANCH   1  17
TORSDOF 8
ENDMDL