MODEL 5
REMARK VINA RESULT: -6.984015406      2.220      3.401
REMARK  7 active torsions:
REMARK  status: ('A' for Active; 'I' for Inactive)
REMARK    1  A    between atoms: C2_2  and  O1_3
REMARK    2  A    between atoms: C2_2  and  C3_5
REMARK    3  A    between atoms: C2_2  and  C18_25
REMARK    4  A    between atoms: C3_5  and  N1_6
REMARK    5  A    between atoms: C5_8  and  N2_9
REMARK       I    between atoms: N2_9  and  C6_11
REMARK    6  A    between atoms: C6_11  and  C7_13
REMARK    7  A    between atoms: C18_25  and  N3_26
ROOT
HETATM    1  N2  UNL     1     -17.909 -12.069 -21.433  1.00  0.00    -0.352 N
ATOM      2  H2  UNL     1     -17.410 -12.053 -22.323  1.00  0.00     0.163 HD
HETATM    3  C6  UNL     1     -19.209 -12.639 -21.362  1.00  0.00     0.226 C
HETATM    4  O2  UNL     1     -19.796 -12.645 -20.258  1.00  0.00    -0.273 OA
ENDROOT
BRANCH   1   5
HETATM    5  C5  UNL     1     -17.294 -11.517 -20.261  1.00  0.00     0.141 C
HETATM    6  C4  UNL     1     -16.396 -12.499 -19.485  1.00  0.00     0.299 C
HETATM    7  N1  UNL     1     -15.346 -12.149 -20.360  1.00  0.00     0.095 N
HETATM    8  C17 UNL     1     -15.972 -10.866 -20.599  1.00  0.00     0.299 C
BRANCH   7   9
HETATM    9  C3  UNL     1     -14.015 -12.007 -19.911  1.00  0.00     0.311 C
BRANCH   9  10
HETATM   10  C2  UNL     1     -12.959 -12.762 -20.678  1.00  0.00     0.104 C
HETATM   11  C1  UNL     1     -12.235 -11.825 -21.560  1.00  0.00     0.049 C
BRANCH  10  12
HETATM   12  O1  UNL     1     -12.132 -13.350 -19.690  1.00  0.00    -0.387 OA
ATOM     13  H1  UNL     1     -12.374 -13.104 -18.805  1.00  0.00     0.210 HD
ENDBRANCH  10  12
BRANCH  10  14
HETATM   14  C18 UNL     1     -13.706 -13.849 -21.404  1.00  0.00     0.275 C
BRANCH  14  15
HETATM   15  N3  UNL     1     -13.496 -15.176 -20.976  1.00  0.00    -0.076 N
HETATM   16  C19 UNL     1     -12.091 -15.568 -21.131  1.00  0.00     0.271 C
HETATM   17  C20 UNL     1     -14.235 -16.049 -21.913  1.00  0.00     0.271 C
HETATM   18  C21 UNL     1     -13.991 -15.526 -19.670  1.00  0.00     0.271 C
ENDBRANCH  14  15
ENDBRANCH  10  14
ENDBRANCH   9  10
ENDBRANCH   7   9
ENDBRANCH   1   5
BRANCH   3  19
HETATM   19  C7  UNL     1     -19.890 -13.224 -22.541  1.00  0.00     0.042 C
HETATM   20  C8  UNL     1     -21.199 -12.467 -22.719  1.00  0.00     0.024 C
HETATM   21  C9  UNL     1     -21.888 -12.952 -23.954  1.00  0.00    -0.012 C
HETATM   22  C10 UNL     1     -22.199 -14.424 -23.848  1.00  0.00     0.012 C
HETATM   23  C15 UNL     1     -21.000 -12.707 -25.151  1.00  0.00     0.012 C
HETATM   24  C11 UNL     1     -20.901 -15.151 -23.636  1.00  0.00     0.021 C
HETATM   25  C12 UNL     1     -20.215 -14.683 -22.374  1.00  0.00     0.026 C
HETATM   26  C13 UNL     1     -20.030 -14.973 -24.858  1.00  0.00     0.178 C
HETATM   27  F1  UNL     1     -18.820 -15.622 -24.647  1.00  0.00    -0.249 F
HETATM   28  C14 UNL     1     -19.724 -13.512 -25.012  1.00  0.00     0.021 C
HETATM   29  C16 UNL     1     -19.024 -13.048 -23.754  1.00  0.00     0.026 C
ENDBRANCH   3  19
TORSDOF 7
ENDMDL