MODEL 3
REMARK VINA RESULT: -7.035623605      4.462      6.962
REMARK  7 active torsions:
REMARK  status: ('A' for Active; 'I' for Inactive)
REMARK    1  A    between atoms: C2_2  and  N1_3
REMARK    2  A    between atoms: N1_3  and  C3_4
REMARK    3  A    between atoms: N1_3  and  C5_6
REMARK    4  A    between atoms: C5_6  and  C6_7
REMARK    5  A    between atoms: C6_7  and  N2_8
REMARK    6  A    between atoms: N2_8  and  C7_10
REMARK       I    between atoms: N4_14  and  C9_16
REMARK    7  A    between atoms: C9_16  and  C10_18
ROOT
HETATM    1  C7  UNL     1     -15.480 -10.836 -19.835  1.00  0.00     0.125 A
HETATM    2  N3  UNL     1     -15.393 -10.790 -18.477  1.00  0.00    -0.176 N
ATOM      3  H3  UNL     1     -15.213  -9.891 -18.029  1.00  0.00     0.186 HD
HETATM    4  C8  UNL     1     -15.536 -11.882 -17.703  1.00  0.00     0.686 A
HETATM    5  N4  UNL     1     -15.461 -11.859 -16.443  1.00  0.00    -0.159 N
ATOM      6  H4  UNL     1     -15.593 -12.771 -16.005  1.00  0.00     0.187 HD
HETATM    7  C9  UNL     1     -15.235 -10.833 -15.544  1.00  0.00     0.245 C
HETATM    8  O1  UNL     1     -14.540  -9.786 -15.739  1.00  0.00    -0.272 OA
HETATM    9  N5  UNL     1     -15.776 -13.082 -18.311  1.00  0.00    -0.195 N
ATOM     10  H5  UNL     1     -15.885 -13.920 -17.741  1.00  0.00     0.184 HD
HETATM   11  C11 UNL     1     -15.871 -13.179 -19.661  1.00  0.00     0.036 A
HETATM   12  C12 UNL     1     -15.725 -12.059 -20.441  1.00  0.00     0.009 A
HETATM   13  C13 UNL     1     -15.856 -12.254 -21.903  1.00  0.00     0.044 C
HETATM   14  C14 UNL     1     -17.179 -13.017 -22.069  1.00  0.00     0.005 C
HETATM   15  C15 UNL     1     -16.962 -14.412 -21.562  1.00  0.00     0.006 C
HETATM   16  C16 UNL     1     -16.121 -14.472 -20.332  1.00  0.00     0.058 C
ENDROOT
BRANCH   1  17
HETATM   17  N2  UNL     1     -15.349  -9.849 -20.619  1.00  0.00    -0.371 N
ATOM     18  H2  UNL     1     -16.180  -9.622 -21.166  1.00  0.00     0.161 HD
BRANCH  17  19
HETATM   19  C6  UNL     1     -14.221  -9.004 -20.856  1.00  0.00     0.166 C
BRANCH  19  20
HETATM   20  C5  UNL     1     -12.997  -9.905 -20.881  1.00  0.00     0.087 C
BRANCH  20  21
HETATM   21  N1  UNL     1     -12.523 -10.243 -22.153  1.00  0.00    -0.353 N
BRANCH  21  22
HETATM   22  C2  UNL     1     -12.141 -11.560 -22.402  1.00  0.00     0.064 C
HETATM   23  C1  UNL     1     -12.173 -12.478 -21.202  1.00  0.00     0.055 C
ENDBRANCH  21  22
BRANCH  21  24
HETATM   24  C3  UNL     1     -12.155  -9.215 -23.021  1.00  0.00     0.064 C
HETATM   25  C4  UNL     1     -11.313  -9.651 -24.199  1.00  0.00     0.055 C
ENDBRANCH  21  24
ENDBRANCH  20  21
ENDBRANCH  19  20
ENDBRANCH  17  19
ENDBRANCH   1  17
BRANCH   7  26
HETATM   26  C10 UNL     1     -15.846 -10.890 -14.162  1.00  0.00     0.188 C
HETATM   27 BR1  UNL     1     -16.216 -12.741 -13.716  1.00  0.00    -0.087 Br
ENDBRANCH   7  26
TORSDOF 7
ENDMDL