MODEL 5
REMARK VINA RESULT: -8.203666631      1.082      1.452
REMARK  6 active torsions:
REMARK  status: ('A' for Active; 'I' for Inactive)
REMARK    1  A    between atoms: N1_7  and  S1_8
REMARK    2  A    between atoms: S1_8  and  N2_11
REMARK    3  A    between atoms: N2_11  and  C6_13
REMARK    4  A    between atoms: C6_13  and  C7_14
REMARK    5  A    between atoms: C7_14  and  C8_15
REMARK       I    between atoms: C8_15  and  N3_17
REMARK    6  A    between atoms: N3_17  and  C9_18
ROOT
HETATM    1  C7  UNL     1     -17.029 -12.107 -20.267  1.00  0.00     0.139 C
ENDROOT
BRANCH   1   2
HETATM    2  C6  UNL     1     -16.275 -11.092 -19.504  1.00  0.00     0.143 C
BRANCH   2   3
HETATM    3  N2  UNL     1     -15.774  -9.922 -20.124  1.00  0.00    -0.306 N
ATOM      4  H2  UNL     1     -16.335  -9.124 -20.424  1.00  0.00     0.173 HD
BRANCH   3   5
HETATM    5  S1  UNL     1     -14.038 -10.067 -20.291  1.00  0.00     0.299 S
HETATM    6  O1  UNL     1     -13.559 -11.038 -19.266  1.00  0.00    -0.188 OA
HETATM    7  O2  UNL     1     -13.469  -8.689 -19.891  1.00  0.00    -0.188 OA
BRANCH   5   8
HETATM    8  N1  UNL     1     -13.559 -10.435 -21.887  1.00  0.00    -0.186 NA
HETATM    9  C2  UNL     1     -12.193 -10.108 -22.100  1.00  0.00     0.074 C
HETATM   10  C1  UNL     1     -11.905  -9.612 -23.501  1.00  0.00     0.027 C
HETATM   11  C3  UNL     1     -11.394 -11.381 -21.891  1.00  0.00     0.058 C
HETATM   12  C4  UNL     1     -12.398 -12.498 -22.081  1.00  0.00     0.185 C
HETATM   13  F1  UNL     1     -12.270 -13.370 -21.019  1.00  0.00    -0.248 F
HETATM   14  C5  UNL     1     -13.748 -11.839 -22.126  1.00  0.00     0.146 C
ENDBRANCH   5   8
ENDBRANCH   3   5
ENDBRANCH   2   3
ENDBRANCH   1   2
BRANCH   1  15
HETATM   15  C8  UNL     1     -18.359 -11.683 -20.818  1.00  0.00     0.288 C
HETATM   16  O3  UNL     1     -18.726 -10.539 -20.349  1.00  0.00    -0.258 OA
HETATM   17  N3  UNL     1     -19.070 -12.427 -21.709  1.00  0.00    -0.409 NA
BRANCH  17  18
HETATM   18  C9  UNL     1     -19.792 -13.180 -22.613  1.00  0.00     0.175 C
HETATM   19  C10 UNL     1     -19.510 -12.993 -24.106  1.00  0.00     0.023 C
HETATM   20  C11 UNL     1     -18.280 -13.676 -24.579  1.00  0.00     0.012 C
HETATM   21  C15 UNL     1     -20.691 -13.551 -24.859  1.00  0.00     0.012 C
HETATM   22  C12 UNL     1     -18.414 -15.184 -24.291  1.00  0.00    -0.013 C
HETATM   23  C13 UNL     1     -19.600 -15.732 -25.032  1.00  0.00     0.009 C
HETATM   24  C18 UNL     1     -18.528 -15.315 -22.790  1.00  0.00     0.012 C
HETATM   25  C14 UNL     1     -20.836 -15.020 -24.565  1.00  0.00    -0.013 C
HETATM   26  C16 UNL     1     -20.973 -15.273 -23.080  1.00  0.00     0.012 C
HETATM   27  C17 UNL     1     -19.822 -14.657 -22.340  1.00  0.00     0.023 C
ENDBRANCH  17  18
ENDBRANCH   1  15
TORSDOF 6
ENDMDL