MODEL 1
REMARK VINA RESULT: -8.006798102      0.000      0.000
REMARK  7 active torsions:
REMARK  status: ('A' for Active; 'I' for Inactive)
REMARK    1  A    between atoms: C3_3  and  N1_4
REMARK    2  A    between atoms: N2_8  and  C6_9
REMARK    3  A    between atoms: C6_9  and  C7_10
REMARK    4  A    between atoms: C10_15  and  C11_16
REMARK    5  A    between atoms: N4_23  and  C16_24
REMARK    6  A    between atoms: C16_24  and  C17_25
REMARK    7  A    between atoms: C17_25  and  O2_26
ROOT
HETATM    1  C1  UNL     1     -11.263 -10.627 -23.856  1.00  0.00     0.014 C
HETATM    2  C2  UNL     1     -11.715 -11.325 -22.968  1.00  0.00    -0.098 C
HETATM    3  C3  UNL     1     -12.261 -12.156 -21.863  1.00  0.00     0.214 C
ENDROOT
BRANCH   3   4
HETATM    4  N1  UNL     1     -13.648 -12.385 -22.014  1.00  0.00    -0.368 N
HETATM    5  C4  UNL     1     -14.671 -11.745 -21.701  1.00  0.00     0.094 C
HETATM    6  C5  UNL     1     -15.996 -12.349 -22.047  1.00  0.00     0.202 C
HETATM    7  N4  UNL     1     -14.702 -10.495 -21.042  1.00  0.00    -0.359 N
HETATM    8  N2  UNL     1     -16.899 -12.303 -20.913  1.00  0.00    -0.339 N
HETATM    9  C14 UNL     1     -16.686 -11.349 -19.889  1.00  0.00     0.238 C
HETATM   10  O1  UNL     1     -17.462 -11.302 -18.876  1.00  0.00    -0.272 OA
HETATM   11  C15 UNL     1     -15.597 -10.368 -19.901  1.00  0.00     0.227 C
ATOM     12  H1  UNL     1     -13.858 -13.267 -22.482  1.00  0.00     0.161 HD
BRANCH   8  13
HETATM   13  C6  UNL     1     -17.934 -13.280 -20.851  1.00  0.00     0.168 C
BRANCH  13  14
HETATM   14  C7  UNL     1     -19.124 -13.080 -21.680  1.00  0.00     0.001 A
HETATM   15  C8  UNL     1     -20.272 -12.449 -21.160  1.00  0.00     0.015 A
HETATM   16  C9  UNL     1     -20.427 -11.952 -19.760  1.00  0.00     0.069 C
HETATM   17  N3  UNL     1     -21.179 -12.381 -22.132  1.00  0.00    -0.362 N
HETATM   18  C10 UNL     1     -20.709 -12.923 -23.262  1.00  0.00     0.027 A
ATOM     19  H3  UNL     1     -22.107 -11.970 -22.030  1.00  0.00     0.165 HD
HETATM   20  C13 UNL     1     -19.415 -13.357 -22.955  1.00  0.00     0.043 A
HETATM   21 BR1  UNL     1     -18.310 -14.190 -24.282  1.00  0.00    -0.048 Br
BRANCH  18  22
HETATM   22  C11 UNL     1     -21.427 -13.030 -24.554  1.00  0.00     0.054 C
HETATM   23  C12 UNL     1     -21.047 -11.895 -25.471  1.00  0.00     0.011 C
ENDBRANCH  18  22
ENDBRANCH  13  14
ENDBRANCH   8  13
BRANCH   7  24
HETATM   24  C16 UNL     1     -13.920  -9.365 -21.421  1.00  0.00     0.150 C
BRANCH  24  25
HETATM   25  C17 UNL     1     -12.711  -9.224 -20.486  1.00  0.00     0.183 C
BRANCH  25  26
HETATM   26  O2  UNL     1     -13.029  -8.399 -19.435  1.00  0.00    -0.399 OA
ATOM     27  H2  UNL     1     -13.720  -8.792 -18.916  1.00  0.00     0.209 HD
ENDBRANCH  25  26
ENDBRANCH  24  25
ENDBRANCH   7  24
ENDBRANCH   3   4
TORSDOF 7
ENDMDL