MODEL 4
REMARK VINA RESULT: -7.271951302      2.254      2.794
REMARK  8 active torsions:
REMARK  status: ('A' for Active; 'I' for Inactive)
REMARK    1  A    between atoms: C2_2  and  C3_3
REMARK    2  A    between atoms: C3_3  and  C4_4
REMARK    3  A    between atoms: C4_4  and  C5_5
REMARK    4  A    between atoms: C5_5  and  N1_6
REMARK    5  A    between atoms: N1_6  and  C6_8
REMARK    6  A    between atoms: C8_13  and  C9_14
REMARK    7  A    between atoms: C9_14  and  C10_15
REMARK    8  A    between atoms: C13_18  and  O2_19
ROOT
HETATM    1  C6  UNL     1     -12.676 -11.962 -22.054  1.00  0.00     0.130 A
HETATM    2  N2  UNL     1     -12.633 -13.292 -22.227  1.00  0.00    -0.306 N
ATOM      3  H2  UNL     1     -11.781 -13.711 -22.599  1.00  0.00     0.170 HD
HETATM    4  C7  UNL     1     -13.688 -14.104 -21.924  1.00  0.00     0.273 A
HETATM    5  O1  UNL     1     -13.549 -15.351 -22.124  1.00  0.00    -0.266 OA
HETATM    6  C8  UNL     1     -14.836 -13.564 -21.425  1.00  0.00     0.102 A
HETATM    7  N3  UNL     1     -14.903 -12.242 -21.244  1.00  0.00    -0.349 N
ATOM      8  H3  UNL     1     -15.762 -11.835 -20.872  1.00  0.00     0.166 HD
HETATM    9  C17 UNL     1     -13.875 -11.436 -21.538  1.00  0.00     0.067 A
HETATM   10  C18 UNL     1     -13.957 -10.136 -21.354  1.00  0.00     0.047 C
ENDROOT
BRANCH   6  11
HETATM   11  C9  UNL     1     -15.853 -14.315 -21.129  1.00  0.00     0.046 C
BRANCH  11  12
HETATM   12  C10 UNL     1     -17.245 -13.940 -21.452  1.00  0.00    -0.032 A
HETATM   13  C11 UNL     1     -17.872 -14.379 -22.597  1.00  0.00     0.014 A
HETATM   14  C12 UNL     1     -19.181 -14.017 -22.884  1.00  0.00     0.039 A
HETATM   15  C13 UNL     1     -19.905 -13.205 -22.037  1.00  0.00     0.085 A
HETATM   16  C15 UNL     1     -19.275 -12.766 -20.891  1.00  0.00     0.045 A
HETATM   17 BR1  UNL     1     -20.275 -11.641 -19.714  1.00  0.00    -0.048 Br
HETATM   18  C16 UNL     1     -17.964 -13.129 -20.602  1.00  0.00     0.033 A
BRANCH  15  19
HETATM   19  O2  UNL     1     -21.218 -12.851 -22.338  1.00  0.00    -0.355 OA
HETATM   20  C14 UNL     1     -21.590 -12.702 -23.696  1.00  0.00     0.210 C
ENDBRANCH  15  19
ENDBRANCH  11  12
ENDBRANCH   6  11
BRANCH   1  21
HETATM   21  N1  UNL     1     -11.707 -11.155 -22.326  1.00  0.00    -0.374 N
ATOM     22  H1  UNL     1     -11.386 -10.500 -21.613  1.00  0.00     0.161 HD
BRANCH  21  23
HETATM   23  C5  UNL     1     -11.074 -11.163 -23.604  1.00  0.00     0.121 C
BRANCH  23  24
HETATM   24  C4  UNL     1     -11.320  -9.878 -24.397  1.00  0.00     0.023 C
BRANCH  24  25
HETATM   25  C3  UNL     1     -11.614  -8.768 -23.397  1.00  0.00     0.028 C
BRANCH  25  26
HETATM   26  C2  UNL     1     -12.524  -7.760 -23.949  1.00  0.00    -0.037 C
HETATM   27  C1  UNL     1     -12.045  -6.757 -24.659  1.00  0.00     0.007 C
ENDBRANCH  25  26
ENDBRANCH  24  25
ENDBRANCH  23  24
ENDBRANCH  21  23
ENDBRANCH   1  21
TORSDOF 8
ENDMDL