MODEL 3
REMARK VINA RESULT: -7.329877237      0.886      1.232
REMARK  9 active torsions:
REMARK  status: ('A' for Active; 'I' for Inactive)
REMARK    1  A    between atoms: C2_2  and  C3_3
REMARK    2  A    between atoms: C4_4  and  C5_5
REMARK    3  A    between atoms: C9_14  and  N3_15
REMARK    4  A    between atoms: N3_15  and  C10_17
REMARK    5  A    between atoms: C10_17  and  C11_18
REMARK    6  A    between atoms: C11_18  and  C12_19
REMARK    7  A    between atoms: C12_19  and  C13_20
REMARK    8  A    between atoms: C13_20  and  C14_21
REMARK    9  A    between atoms: C14_21  and  N4_22
ROOT
HETATM    1  C5  UNL     1     -12.579 -10.872 -21.803  1.00  0.00     0.128 A
HETATM    2  C6  UNL     1     -11.742 -11.965 -21.747  1.00  0.00     0.154 A
HETATM    3  F1  UNL     1     -10.668 -12.014 -22.554  1.00  0.00    -0.203 F
HETATM    4  C7  UNL     1     -12.048 -12.961 -20.862  1.00  0.00     0.078 A
HETATM    5  C8  UNL     1     -13.177 -12.845 -20.056  1.00  0.00     0.082 A
HETATM    6  N1  UNL     1     -13.691 -13.647 -19.134  1.00  0.00    -0.297 N
ATOM      7  H1  UNL     1     -13.310 -14.548 -18.848  1.00  0.00     0.187 HD
HETATM    8  N2  UNL     1     -14.779 -13.084 -18.650  1.00  0.00    -0.283 N
ATOM      9  H2  UNL     1     -15.364 -13.497 -17.925  1.00  0.00     0.188 HD
HETATM   10  C9  UNL     1     -15.022 -11.891 -19.234  1.00  0.00     0.149 A
HETATM   11  C20 UNL     1     -13.967 -11.735 -20.159  1.00  0.00     0.109 A
HETATM   12  N6  UNL     1     -13.682 -10.754 -21.017  1.00  0.00    -0.337 N
HETATM   13  C21 UNL     1     -14.529  -9.597 -21.106  1.00  0.00     0.157 C
ENDROOT
BRANCH  10  14
HETATM   14  N3  UNL     1     -15.899 -11.027 -19.109  1.00  0.00    -0.353 N
ATOM     15  H3  UNL     1     -15.487 -10.095 -19.090  1.00  0.00     0.166 HD
BRANCH  14  16
HETATM   16  C10 UNL     1     -17.268 -10.956 -18.986  1.00  0.00     0.062 C
BRANCH  16  17
HETATM   17  C11 UNL     1     -18.030 -11.355 -20.202  1.00  0.00     0.044 C
BRANCH  17  18
HETATM   18  C12 UNL     1     -19.486 -11.668 -19.883  1.00  0.00     0.007 C
BRANCH  18  19
HETATM   19  C13 UNL     1     -20.195 -12.344 -21.028  1.00  0.00     0.030 C
BRANCH  19  20
HETATM   20  C14 UNL     1     -19.184 -12.443 -22.155  1.00  0.00     0.272 C
BRANCH  20  21
HETATM   21  N4  UNL     1     -19.743 -13.193 -23.260  1.00  0.00     0.091 N
HETATM   22  C15 UNL     1     -20.454 -14.342 -22.765  1.00  0.00     0.302 C
HETATM   23  C16 UNL     1     -20.801 -15.172 -24.005  1.00  0.00     0.302 C
HETATM   24  N5  UNL     1     -21.849 -14.479 -24.706  1.00  0.00     0.087 N
HETATM   25  C17 UNL     1     -23.121 -15.055 -24.242  1.00  0.00     0.310 C
HETATM   26  C18 UNL     1     -21.908 -13.073 -24.429  1.00  0.00     0.302 C
HETATM   27  C19 UNL     1     -20.619 -12.432 -24.090  1.00  0.00     0.302 C
ENDBRANCH  20  21
ENDBRANCH  19  20
ENDBRANCH  18  19
ENDBRANCH  17  18
ENDBRANCH  16  17
ENDBRANCH  14  16
ENDBRANCH  10  14
BRANCH   1  28
HETATM   28  C4  UNL     1     -12.261  -9.821 -22.731  1.00  0.00    -0.045 C
HETATM   29  C3  UNL     1     -11.982  -8.942 -23.524  1.00  0.00    -0.100 C
BRANCH  29  30
HETATM   30  C2  UNL     1     -11.656  -7.887 -24.475  1.00  0.00     0.090 C
HETATM   31  C1  UNL     1     -12.617  -6.719 -24.304  1.00  0.00     0.018 C
ENDBRANCH  29  30
ENDBRANCH   1  28
TORSDOF 9
ENDMDL