MODEL 4
REMARK VINA RESULT: -7.035037230      3.727      6.853
REMARK  7 active torsions:
REMARK  status: ('A' for Active; 'I' for Inactive)
REMARK       I    between atoms: C2_2  and  N1_4
REMARK    1  A    between atoms: N1_4  and  C4_6
REMARK    2  A    between atoms: C4_6  and  C5_7
REMARK    3  A    between atoms: C5_7  and  C6_8
REMARK    4  A    between atoms: C6_8  and  N2_9
REMARK    5  A    between atoms: N2_9  and  S1_11
REMARK    6  A    between atoms: S1_11  and  N3_14
REMARK    7  A    between atoms: N3_14  and  C7_16
ROOT
HETATM    1  S1  UNL     1      16.106 -12.131  18.420  1.00  0.00     0.320 S
HETATM    2  O2  UNL     1      15.405 -13.132  17.462  1.00  0.00    -0.182 OA
HETATM    3  O3  UNL     1      16.508 -11.009  17.499  1.00  0.00    -0.182 OA
ENDROOT
BRANCH   1   4
HETATM    4  N2  UNL     1      14.807 -11.619  19.460  1.00  0.00    -0.302 N
ATOM      5  H2  UNL     1      14.595 -10.643  19.669  1.00  0.00     0.173 HD
BRANCH   4   6
HETATM    6  C6  UNL     1      14.058 -12.746  19.997  1.00  0.00     0.135 C
BRANCH   6   7
HETATM    7  C5  UNL     1      13.855 -12.431  21.458  1.00  0.00     0.040 C
BRANCH   7   8
HETATM    8  C4  UNL     1      12.456 -12.109  21.846  1.00  0.00     0.127 C
BRANCH   8   9
HETATM    9  N1  UNL     1      12.413 -10.814  22.477  1.00  0.00    -0.357 N
HETATM   10  C2  UNL     1      11.573 -10.650  23.614  1.00  0.00     0.215 C
HETATM   11  C1  UNL     1      11.511  -9.339  24.298  1.00  0.00     0.117 C
HETATM   12  O1  UNL     1      10.870 -11.604  24.061  1.00  0.00    -0.274 OA
HETATM   13  C3  UNL     1      13.196  -9.685  22.010  1.00  0.00     0.152 C
ENDBRANCH   8   9
ENDBRANCH   7   8
ENDBRANCH   6   7
ENDBRANCH   4   6
ENDBRANCH   1   4
BRANCH   1  14
HETATM   14  N3  UNL     1      17.232 -12.911  19.269  1.00  0.00    -0.253 N
ATOM     15  H3  UNL     1      17.382 -13.758  18.721  1.00  0.00     0.182 HD
BRANCH  14  16
HETATM   16  C7  UNL     1      18.001 -13.051  20.200  1.00  0.00     0.121 A
HETATM   17  N4  UNL     1      17.482 -13.440  21.431  1.00  0.00    -0.350 N
HETATM   18  C8  UNL     1      18.245 -13.619  22.505  1.00  0.00     0.108 A
ATOM     19  H4  UNL     1      16.478 -13.594  21.513  1.00  0.00     0.166 HD
HETATM   20  C9  UNL     1      19.608 -13.439  22.497  1.00  0.00     0.027 A
HETATM   21 BR1  UNL     1      20.684 -13.697  24.036  1.00  0.00    -0.050 Br
HETATM   22  C10 UNL     1      20.174 -13.056  21.312  1.00  0.00     0.031 A
HETATM   23  C11 UNL     1      19.365 -12.868  20.184  1.00  0.00    -0.016 A
HETATM   24  C12 UNL     1      20.028 -12.454  18.923  1.00  0.00     0.052 C
ENDBRANCH  14  16
ENDBRANCH   1  14
TORSDOF 7
ENDMDL