MODEL 2
REMARK VINA RESULT: -7.651018423      0.918      1.467
REMARK  6 active torsions:
REMARK  status: ('A' for Active; 'I' for Inactive)
REMARK    1  A    between atoms: C2_2  and  C3_3
REMARK       I    between atoms: N3_9  and  C5_11
REMARK    2  A    between atoms: C5_11  and  C6_13
REMARK    3  A    between atoms: C6_13  and  C7_14
REMARK    4  A    between atoms: C7_14  and  S1_15
REMARK    5  A    between atoms: S1_15  and  N4_18
REMARK    6  A    between atoms: N4_18  and  C9_20
ROOT
HETATM    1  C3  UNL     1      13.121 -10.405  21.776  1.00  0.00     0.046 A
HETATM    2  N1  UNL     1      14.087  -9.561  21.383  1.00  0.00    -0.302 N
ATOM      3  H1  UNL     1      14.052  -8.546  21.480  1.00  0.00     0.186 HD
HETATM    4  N2  UNL     1      15.102 -10.242  20.849  1.00  0.00    -0.284 N
ATOM      5  H2  UNL     1      15.955  -9.826  20.476  1.00  0.00     0.188 HD
HETATM    6  C4  UNL     1      14.832 -11.553  20.875  1.00  0.00     0.142 A
HETATM    7  N3  UNL     1      15.609 -12.469  20.433  1.00  0.00    -0.311 N
ATOM      8  H3  UNL     1      15.289 -13.436  20.509  1.00  0.00     0.170 HD
HETATM    9  C5  UNL     1      16.882 -12.245  19.846  1.00  0.00     0.224 C
HETATM   10  O1  UNL     1      17.001 -11.397  18.946  1.00  0.00    -0.273 OA
HETATM   11  C12 UNL     1      13.591 -11.672  21.455  1.00  0.00     0.080 A
HETATM   12 BR1  UNL     1      12.641 -13.276  21.782  1.00  0.00    -0.045 Br
ENDROOT
BRANCH   9  13
HETATM   13  C6  UNL     1      18.009 -13.038  20.346  1.00  0.00     0.120 C
BRANCH  13  14
HETATM   14  C7  UNL     1      18.473 -12.737  21.729  1.00  0.00     0.172 C
BRANCH  14  15
HETATM   15  S1  UNL     1      18.524 -14.078  22.843  1.00  0.00     0.229 S
HETATM   16  O2  UNL     1      17.269 -14.044  23.669  1.00  0.00    -0.206 OA
HETATM   17  O3  UNL     1      18.543 -15.381  22.120  1.00  0.00    -0.206 OA
BRANCH  15  18
HETATM   18  N4  UNL     1      19.933 -14.036  23.837  1.00  0.00    -0.311 N
HETATM   19  C8  UNL     1      21.108 -13.590  23.177  1.00  0.00     0.163 C
BRANCH  18  20
HETATM   20  C9  UNL     1      19.686 -13.538  25.144  1.00  0.00     0.087 C
HETATM   21  C10 UNL     1      19.685 -14.729  26.106  1.00  0.00     0.032 C
HETATM   22  C11 UNL     1      20.771 -12.606  25.643  1.00  0.00     0.032 C
ENDBRANCH  18  20
ENDBRANCH  15  18
ENDBRANCH  14  15
ENDBRANCH  13  14
ENDBRANCH   9  13
BRANCH   1  23
HETATM   23  C2  UNL     1      11.826 -10.067  22.418  1.00  0.00     0.055 C
HETATM   24  C1  UNL     1      12.085  -9.250  23.657  1.00  0.00     0.011 C
ENDBRANCH   1  23
TORSDOF 6
ENDMDL