MODEL 2
REMARK VINA RESULT: -8.276678518      0.996      1.092
REMARK  6 active torsions:
REMARK  status: ('A' for Active; 'I' for Inactive)
REMARK    1  A    between atoms: N1_2  and  C3_4
REMARK    2  A    between atoms: C3_4  and  C4_5
REMARK    3  A    between atoms: C4_5  and  N2_6
REMARK       I    between atoms: N2_6  and  C6_8
REMARK    4  A    between atoms: C6_8  and  C7_10
REMARK    5  A    between atoms: C7_10  and  N3_11
REMARK       I    between atoms: N3_11  and  C8_13
REMARK       I    between atoms: C8_13  and  N4_15
REMARK    6  A    between atoms: N4_15  and  C9_17
ROOT
HETATM    1  N3  UNL     1      17.701 -13.165  20.689  1.00  0.00    -0.334 N
ATOM      2  H3  UNL     1      18.477 -12.691  20.229  1.00  0.00     0.164 HD
HETATM    3  C8  UNL     1      17.930 -13.924  21.856  1.00  0.00     0.316 C
HETATM    4  O2  UNL     1      16.996 -14.515  22.415  1.00  0.00    -0.247 OA
HETATM    5  N4  UNL     1      19.246 -14.030  22.421  1.00  0.00    -0.338 N
ATOM      6  H4  UNL     1      20.025 -13.549  21.971  1.00  0.00     0.164 HD
ENDROOT
BRANCH   1   7
HETATM    7  C7  UNL     1      16.372 -13.063  20.150  1.00  0.00     0.227 C
BRANCH   7   8
HETATM    8  C6  UNL     1      15.688 -11.786  20.431  1.00  0.00     0.237 C
HETATM    9  N2  UNL     1      14.476 -11.798  21.148  1.00  0.00    -0.353 N
HETATM   10  C5  UNL     1      13.865 -13.025  21.628  1.00  0.00     0.152 C
HETATM   11  O1  UNL     1      16.176 -10.708  20.037  1.00  0.00    -0.272 OA
BRANCH   9  12
HETATM   12  C4  UNL     1      13.772 -10.545  21.444  1.00  0.00     0.155 C
BRANCH  12  13
HETATM   13  C3  UNL     1      12.303 -10.886  21.518  1.00  0.00     0.291 C
BRANCH  13  14
HETATM   14  N1  UNL     1      11.666 -10.399  22.701  1.00  0.00     0.081 N
HETATM   15  C1  UNL     1      12.329  -9.293  23.323  1.00  0.00     0.309 C
HETATM   16  C2  UNL     1      11.215 -11.416  23.603  1.00  0.00     0.309 C
ENDBRANCH  13  14
ENDBRANCH  12  13
ENDBRANCH   9  12
ENDBRANCH   7   8
ENDBRANCH   1   7
BRANCH   5  17
HETATM   17  C9  UNL     1      19.488 -14.814  23.628  1.00  0.00     0.091 C
HETATM   18  C10 UNL     1      20.860 -15.394  23.504  1.00  0.00     0.030 C
HETATM   19  C11 UNL     1      21.546 -15.678  24.815  1.00  0.00    -0.011 C
HETATM   20  C12 UNL     1      22.234 -14.506  25.417  1.00  0.00     0.009 C
HETATM   21  C17 UNL     1      20.722 -16.491  25.756  1.00  0.00     0.025 C
HETATM   22  C13 UNL     1      21.386 -13.363  25.808  1.00  0.00    -0.013 C
HETATM   23  C14 UNL     1      20.413 -13.676  26.911  1.00  0.00     0.011 C
HETATM   24  C19 UNL     1      20.476 -12.873  24.706  1.00  0.00     0.011 C
HETATM   25  C15 UNL     1      19.329 -14.427  26.125  1.00  0.00     0.010 C
HETATM   26  C16 UNL     1      19.531 -15.866  26.339  1.00  0.00     0.087 C
HETATM   27  C18 UNL     1      19.339 -13.871  24.784  1.00  0.00     0.014 C
HETATM   28 CL1  UNL     1      18.027 -16.782  25.943  1.00  0.00    -0.125 Cl
ENDBRANCH   5  17
TORSDOF 6
ENDMDL