MODEL 1
REMARK VINA RESULT: -7.014905304      0.000      0.000
REMARK  12 active torsions:
REMARK  status: ('A' for Active; 'I' for Inactive)
REMARK    1  A    between atoms: N1_1  and  N2_4
REMARK    2  A    between atoms: N2_4  and  C1_5
REMARK    3  A    between atoms: C1_5  and  C2_6
REMARK    4  A    between atoms: C2_6  and  C3_7
REMARK    5  A    between atoms: C3_7  and  N3_8
REMARK    6  A    between atoms: C6_11  and  C7_12
REMARK    7  A    between atoms: C6_11  and  C12_21
REMARK    8  A    between atoms: C8_13  and  C9_14
REMARK    9  A    between atoms: C9_14  and  N4_15
REMARK       I    between atoms: N4_15  and  C10_17
REMARK   10  A    between atoms: C10_17  and  C11_19
REMARK   11  A    between atoms: C13_22  and  C14_23
REMARK   12  A    between atoms: C14_23  and  N5_24
ROOT
HETATM    1  N3  UNL     1      15.451 -12.165  20.630  1.00  0.00     0.091 N
HETATM    2  C4  UNL     1      16.126 -11.957  19.410  1.00  0.00     0.275 C
HETATM    3  C5  UNL     1      17.528 -12.530  19.621  1.00  0.00     0.068 C
HETATM    4  C6  UNL     1      17.434 -13.238  20.953  1.00  0.00     0.115 C
HETATM    5  C20 UNL     1      16.449 -12.349  21.677  1.00  0.00     0.308 C
ENDROOT
BRANCH   4   6
HETATM    6  C7  UNL     1      16.817 -14.543  20.722  1.00  0.00    -0.080 C
HETATM    7  C8  UNL     1      16.302 -15.631  20.552  1.00  0.00    -0.085 C
BRANCH   7   8
HETATM    8  C9  UNL     1      15.684 -16.956  20.370  1.00  0.00     0.217 C
BRANCH   8   9
HETATM    9  N4  UNL     1      14.322 -16.736  19.999  1.00  0.00    -0.350 N
HETATM   10  C10 UNL     1      13.276 -16.817  20.948  1.00  0.00     0.232 C
HETATM   11  O1  UNL     1      13.564 -17.093  22.159  1.00  0.00    -0.272 OA
ATOM     12  H4  UNL     1      14.099 -16.514  19.028  1.00  0.00     0.163 HD
BRANCH  10  13
HETATM   13  C11 UNL     1      11.847 -16.606  20.657  1.00  0.00     0.217 C
HETATM   14 CL1  UNL     1      11.621 -15.688  19.157  1.00  0.00    -0.121 Cl
ENDBRANCH  10  13
ENDBRANCH   8   9
ENDBRANCH   7   8
ENDBRANCH   4   6
BRANCH   4  15
HETATM   15  C12 UNL     1      18.687 -13.369  21.640  1.00  0.00    -0.075 C
HETATM   16  C13 UNL     1      19.758 -13.473  22.197  1.00  0.00    -0.059 C
BRANCH  16  17
HETATM   17  C14 UNL     1      21.073 -13.606  22.848  1.00  0.00     0.159 C
BRANCH  17  18
HETATM   18  N5  UNL     1      20.883 -13.786  24.233  1.00  0.00    -0.343 N
HETATM   19  C15 UNL     1      20.253 -14.936  24.709  1.00  0.00     0.069 C
HETATM   20  C16 UNL     1      19.475 -14.765  25.991  1.00  0.00     0.045 C
HETATM   21  C17 UNL     1      20.217 -13.981  27.031  1.00  0.00     0.010 C
HETATM   22  C18 UNL     1      20.700 -12.700  26.427  1.00  0.00     0.045 C
HETATM   23  C19 UNL     1      21.432 -12.856  25.129  1.00  0.00     0.069 C
ENDBRANCH  17  18
ENDBRANCH  16  17
ENDBRANCH   4  15
BRANCH   1  24
HETATM   24  C3  UNL     1      14.390 -11.318  21.000  1.00  0.00     0.279 C
BRANCH  24  25
HETATM   25  C2  UNL     1      13.327 -12.032  21.782  1.00  0.00     0.092 C
BRANCH  25  26
HETATM   26  C1  UNL     1      12.218 -11.189  22.247  1.00  0.00     0.182 C
BRANCH  26  27
HETATM   27  N2  UNL     1      11.501 -11.529  23.233  1.00  0.00    -0.350 NA
BRANCH  27  28
HETATM   28  N1  UNL     1      10.574 -11.733  24.032  1.00  0.00    -0.281 N
ATOM     29  H12 UNL     1       9.988 -12.160  23.315  1.00  0.00     0.191 HD
ATOM     30  H11 UNL     1       9.972 -11.792  24.852  1.00  0.00     0.191 HD
ENDBRANCH  27  28
ENDBRANCH  26  27
ENDBRANCH  25  26
ENDBRANCH  24  25
ENDBRANCH   1  24
TORSDOF 12
ENDMDL