MODEL 3
REMARK VINA RESULT: -8.214921742      1.873      2.451
REMARK  8 active torsions:
REMARK  status: ('A' for Active; 'I' for Inactive)
REMARK    1  A    between atoms: C3_3  and  N1_4
REMARK    2  A    between atoms: N1_4  and  C5_6
REMARK    3  A    between atoms: C5_6  and  C6_7
REMARK    4  A    between atoms: C9_10  and  C10_11
REMARK    5  A    between atoms: C10_11  and  C11_12
REMARK    6  A    between atoms: C13_17  and  C14_18
REMARK    7  A    between atoms: C14_18  and  C15_19
REMARK    8  A    between atoms: C17_23  and  O2_24
ROOT
HETATM    1  C1  UNL     1      20.721 -13.165  27.044  1.00  0.00     0.013 C
HETATM    2  C2  UNL     1      20.274 -13.722  26.073  1.00  0.00    -0.103 C
HETATM    3  C3  UNL     1      19.733 -14.391  24.863  1.00  0.00     0.187 C
ENDROOT
BRANCH   3   4
HETATM    4  N1  UNL     1      20.185 -13.688  23.695  1.00  0.00    -0.285 NA
HETATM    5  C4  UNL     1      21.617 -13.583  23.721  1.00  0.00     0.117 C
BRANCH   4   6
HETATM    6  C5  UNL     1      19.726 -14.143  22.449  1.00  0.00     0.072 C
BRANCH   6   7
HETATM    7  C6  UNL     1      18.442 -13.614  21.966  1.00  0.00    -0.006 A
HETATM    8  C7  UNL     1      17.222 -13.809  22.572  1.00  0.00     0.014 A
HETATM    9  C8  UNL     1      16.051 -13.243  22.048  1.00  0.00     0.015 A
HETATM   10  C9  UNL     1      16.065 -12.467  20.911  1.00  0.00     0.002 A
HETATM   11  C17 UNL     1      17.284 -12.268  20.301  1.00  0.00     0.094 A
HETATM   12  C18 UNL     1      18.435 -12.825  20.814  1.00  0.00     0.056 A
HETATM   13 BR1  UNL     1      20.095 -12.518  19.931  1.00  0.00    -0.047 Br
BRANCH  10  14
HETATM   14  C10 UNL     1      14.838 -11.872  20.364  1.00  0.00     0.062 C
BRANCH  14  15
HETATM   15  C11 UNL     1      13.812 -11.560  21.139  1.00  0.00     0.109 A
HETATM   16  N2  UNL     1      12.893 -12.401  21.638  1.00  0.00    -0.308 N
HETATM   17  C12 UNL     1      12.001 -11.737  22.383  1.00  0.00     0.273 A
ATOM     18  H2  UNL     1      12.876 -13.407  21.472  1.00  0.00     0.170 HD
HETATM   19  O1  UNL     1      11.030 -12.234  22.977  1.00  0.00    -0.266 OA
HETATM   20  C13 UNL     1      12.350 -10.415  22.371  1.00  0.00     0.098 A
HETATM   21  N3  UNL     1      13.469 -10.346  21.596  1.00  0.00    -0.338 N
ATOM     22  H3  UNL     1      13.978  -9.486  21.390  1.00  0.00     0.167 HD
BRANCH  20  23
HETATM   23  C14 UNL     1      11.770  -9.369  22.966  1.00  0.00     0.008 C
BRANCH  23  24
HETATM   24  C15 UNL     1      11.731  -9.173  24.413  1.00  0.00     0.025 C
HETATM   25  C16 UNL     1      12.055  -7.726  24.726  1.00  0.00     0.009 C
ENDBRANCH  23  24
ENDBRANCH  20  23
ENDBRANCH  14  15
ENDBRANCH  10  14
BRANCH  11  26
HETATM   26  O2  UNL     1      17.296 -11.480  19.146  1.00  0.00    -0.358 OA
ATOM     27  H2  UNL     1      17.769 -10.656  19.190  1.00  0.00     0.217 HD
ENDBRANCH  11  26
ENDBRANCH   6   7
ENDBRANCH   4   6
ENDBRANCH   3   4
TORSDOF 8
ENDMDL