MODEL 3
REMARK VINA RESULT: -7.145716903      2.459      3.658
REMARK  8 active torsions:
REMARK  status: ('A' for Active; 'I' for Inactive)
REMARK    1  A    between atoms: C4_4  and  C5_5
REMARK    2  A    between atoms: C5_5  and  C6_6
REMARK    3  A    between atoms: C6_6  and  O1_7
REMARK    4  A    between atoms: N1_11  and  C8_12
REMARK    5  A    between atoms: C8_12  and  C9_13
REMARK    6  A    between atoms: C9_13  and  C10_14
REMARK    7  A    between atoms: C10_14  and  C11_15
REMARK       I    between atoms: C11_15  and  N2_17
REMARK    8  A    between atoms: N2_17  and  C12_19
ROOT
HETATM    1  C8  UNL     1      19.346 -13.903  21.002  1.00  0.00     0.129 C
ENDROOT
BRANCH   1   2
HETATM    2  N1  UNL     1      19.523 -13.973  22.434  1.00  0.00    -0.350 N
HETATM    3  C7  UNL     1      18.589 -14.619  23.201  1.00  0.00     0.088 A
HETATM    4  C4  UNL     1      18.695 -14.705  24.576  1.00  0.00    -0.021 A
HETATM    5 BR1  UNL     1      17.107 -15.419  22.304  1.00  0.00    -0.030 Br
HETATM    6  C3  UNL     1      19.761 -14.135  25.240  1.00  0.00     0.018 A
HETATM    7  C2  UNL     1      20.695 -13.489  24.460  1.00  0.00    -0.046 A
HETATM    8  C1  UNL     1      21.854 -12.867  25.143  1.00  0.00     0.049 C
HETATM    9  C15 UNL     1      20.550 -13.426  23.090  1.00  0.00     0.098 A
BRANCH   4  10
HETATM   10  C5  UNL     1      17.629 -15.413  25.339  1.00  0.00     0.067 C
BRANCH  10  11
HETATM   11  C6  UNL     1      18.092 -16.797  25.732  1.00  0.00     0.168 C
BRANCH  11  12
HETATM   12  O1  UNL     1      18.469 -16.851  27.073  1.00  0.00    -0.401 OA
ATOM     13  H1  UNL     1      19.327 -16.469  27.212  1.00  0.00     0.209 HD
ENDBRANCH  11  12
ENDBRANCH  10  11
ENDBRANCH   4  10
ENDBRANCH   1   2
BRANCH   1  14
HETATM   14  C9  UNL     1      19.162 -12.547  20.434  1.00  0.00     0.029 C
BRANCH  14  15
HETATM   15  C10 UNL     1      18.036 -11.729  20.942  1.00  0.00     0.105 C
BRANCH  15  16
HETATM   16  C11 UNL     1      16.805 -11.758  20.142  1.00  0.00     0.223 C
HETATM   17  O2  UNL     1      16.674 -11.264  18.998  1.00  0.00    -0.273 OA
HETATM   18  N2  UNL     1      15.624 -12.393  20.669  1.00  0.00    -0.307 N
ATOM     19  H2  UNL     1      15.532 -13.408  20.712  1.00  0.00     0.171 HD
BRANCH  18  20
HETATM   20  C12 UNL     1      14.672 -11.589  21.091  1.00  0.00     0.150 A
HETATM   21  N3  UNL     1      14.661 -10.257  21.117  1.00  0.00    -0.346 N
HETATM   22  C13 UNL     1      13.592  -9.652  21.588  1.00  0.00     0.097 A
ATOM     23  H3  UNL     1      15.460  -9.722  20.779  1.00  0.00     0.167 HD
HETATM   24  C14 UNL     1      12.558 -10.429  22.024  1.00  0.00     0.070 A
HETATM   25  S1  UNL     1      13.147 -12.002  21.745  1.00  0.00    -0.064 SA
ENDBRANCH  18  20
ENDBRANCH  15  16
ENDBRANCH  14  15
ENDBRANCH   1  14
TORSDOF 8
ENDMDL