MODEL 2
REMARK VINA RESULT: -7.095508866      1.034      1.121
REMARK  7 active torsions:
REMARK  status: ('A' for Active; 'I' for Inactive)
REMARK    1  A    between atoms: N1_2  and  C3_4
REMARK    2  A    between atoms: C3_4  and  C4_5
REMARK    3  A    between atoms: C4_5  and  C5_6
REMARK    4  A    between atoms: C5_6  and  N2_7
REMARK    5  A    between atoms: N2_7  and  C6_9
REMARK    6  A    between atoms: C8_14  and  C9_15
REMARK    7  A    between atoms: C9_15  and  N4_16
ROOT
HETATM    1  C6  UNL     1      15.817 -12.994  21.790  1.00  0.00     0.679 A
HETATM    2  N3  UNL     1      16.737 -12.385  21.045  1.00  0.00    -0.183 N
ATOM      3  H3  UNL     1      16.589 -11.567  20.453  1.00  0.00     0.185 HD
HETATM    4  C7  UNL     1      17.919 -13.058  21.218  1.00  0.00     0.120 A
HETATM    5 BR1  UNL     1      19.481 -12.535  20.284  1.00  0.00    -0.029 Br
HETATM    6  C8  UNL     1      17.746 -14.086  22.070  1.00  0.00     0.079 A
HETATM    7  N5  UNL     1      16.404 -14.018  22.413  1.00  0.00    -0.191 N
ATOM      8  H5  UNL     1      15.933 -14.660  23.051  1.00  0.00     0.184 HD
ENDROOT
BRANCH   6   9
HETATM    9  C9  UNL     1      18.626 -15.119  22.659  1.00  0.00     0.189 C
BRANCH   9  10
HETATM   10  N4  UNL     1      19.145 -14.855  23.960  1.00  0.00    -0.352 N
HETATM   11  C10 UNL     1      18.402 -15.338  25.015  1.00  0.00     0.091 A
HETATM   12  C11 UNL     1      18.752 -15.129  26.324  1.00  0.00     0.020 A
HETATM   13  C12 UNL     1      19.889 -14.411  26.625  1.00  0.00     0.040 A
HETATM   14  C13 UNL     1      20.633 -13.931  25.581  1.00  0.00     0.091 A
HETATM   15  C14 UNL     1      20.224 -14.177  24.268  1.00  0.00     0.047 A
HETATM   16  O1  UNL     1      21.803 -13.193  25.605  1.00  0.00    -0.349 OA
HETATM   17  C15 UNL     1      21.295 -13.555  23.422  1.00  0.00     0.086 C
HETATM   18  C16 UNL     1      22.492 -13.539  24.399  1.00  0.00     0.181 C
ENDBRANCH   9  10
ENDBRANCH   6   9
BRANCH   1  19
HETATM   19  N2  UNL     1      14.557 -12.629  21.868  1.00  0.00    -0.226 N
ATOM     20  H2  UNL     1      13.882 -13.276  22.276  1.00  0.00     0.177 HD
BRANCH  19  21
HETATM   21  C5  UNL     1      14.097 -11.351  21.398  1.00  0.00     0.140 C
BRANCH  21  22
HETATM   22  C4  UNL     1      12.792 -11.064  22.148  1.00  0.00     0.050 C
BRANCH  22  23
HETATM   23  C3  UNL     1      12.792  -9.621  22.554  1.00  0.00     0.273 C
BRANCH  23  24
HETATM   24  N1  UNL     1      11.645  -9.408  23.431  1.00  0.00     0.080 N
HETATM   25  C1  UNL     1      12.002  -8.426  24.447  1.00  0.00     0.309 C
HETATM   26  C2  UNL     1      11.279 -10.674  24.055  1.00  0.00     0.309 C
ENDBRANCH  23  24
ENDBRANCH  22  23
ENDBRANCH  21  22
ENDBRANCH  19  21
ENDBRANCH   1  19
TORSDOF 7
ENDMDL