MODEL 4
REMARK VINA RESULT: -7.765586523      2.864      8.092
REMARK  7 active torsions:
REMARK  status: ('A' for Active; 'I' for Inactive)
REMARK    1  A    between atoms: C2_2  and  C3_3
REMARK    2  A    between atoms: C3_3  and  C4_5
REMARK    3  A    between atoms: C3_3  and  C8_10
REMARK    4  A    between atoms: C4_5  and  N1_6
REMARK       I    between atoms: C8_10  and  N2_12
REMARK    5  A    between atoms: N2_12  and  C9_14
REMARK    6  A    between atoms: C14_21  and  C15_22
REMARK    7  A    between atoms: C16_23  and  C17_24
ROOT
HETATM    1  C9  UNL     1      18.623 -13.066  21.716  1.00  0.00     0.105 A
HETATM    2  C10 UNL     1      18.740 -12.637  20.302  1.00  0.00     0.067 A
HETATM    3  C11 UNL     1      17.657 -12.480  19.557  1.00  0.00     0.062 A
HETATM    4  N3  UNL     1      17.545 -12.105  18.275  1.00  0.00    -0.357 N
ATOM      5  H3  UNL     1      18.332 -11.878  17.667  1.00  0.00     0.166 HD
HETATM    6  C12 UNL     1      16.249 -12.068  17.893  1.00  0.00     0.018 A
HETATM    7  C13 UNL     1      15.880 -11.770  16.463  1.00  0.00     0.069 C
HETATM    8  C14 UNL     1      15.474 -12.426  18.951  1.00  0.00     0.015 A
HETATM    9  C19 UNL     1      16.400 -12.692  20.017  1.00  0.00     0.074 A
HETATM   10  N4  UNL     1      16.215 -13.061  21.222  1.00  0.00    -0.319 N
ATOM     11  H4  UNL     1      15.254 -13.210  21.531  1.00  0.00     0.169 HD
HETATM   12  C20 UNL     1      17.264 -13.283  22.175  1.00  0.00     0.273 A
HETATM   13  O3  UNL     1      16.961 -13.649  23.346  1.00  0.00    -0.266 OA
ENDROOT
BRANCH   1  14
HETATM   14  N2  UNL     1      19.653 -13.209  22.411  1.00  0.00    -0.320 N
HETATM   15  C8  UNL     1      20.340 -14.290  22.907  1.00  0.00     0.264 C
HETATM   16  O1  UNL     1      20.718 -15.216  22.104  1.00  0.00    -0.269 OA
ATOM     17  H2  UNL     1      20.080 -12.319  22.669  1.00  0.00     0.169 HD
BRANCH  15  18
HETATM   18  C3  UNL     1      20.679 -14.442  24.377  1.00  0.00     0.207 C
HETATM   19  F1  UNL     1      21.912 -15.091  24.364  1.00  0.00    -0.231 F
BRANCH  18  20
HETATM   20  C2  UNL     1      20.926 -13.079  24.917  1.00  0.00     0.051 C
HETATM   21  C1  UNL     1      20.766 -12.904  26.386  1.00  0.00     0.009 C
ENDBRANCH  18  20
BRANCH  18  22
HETATM   22  C4  UNL     1      19.616 -15.246  25.009  1.00  0.00     0.289 C
BRANCH  22  23
HETATM   23  N1  UNL     1      19.900 -16.559  25.441  1.00  0.00    -0.075 N
HETATM   24  C5  UNL     1      19.680 -17.606  24.460  1.00  0.00     0.271 C
HETATM   25  C6  UNL     1      18.912 -16.854  26.512  1.00  0.00     0.271 C
HETATM   26  C7  UNL     1      21.180 -16.757  26.082  1.00  0.00     0.271 C
ENDBRANCH  22  23
ENDBRANCH  18  22
ENDBRANCH  15  18
ENDBRANCH   1  14
BRANCH   8  27
HETATM   27  C15 UNL     1      14.053 -12.447  19.180  1.00  0.00     0.019 C
HETATM   28  C16 UNL     1      13.165 -12.091  19.993  1.00  0.00     0.051 C
BRANCH  28  29
HETATM   29  C17 UNL     1      13.125 -11.420  21.238  1.00  0.00     0.145 C
HETATM   30  C18 UNL     1      12.406 -10.061  21.354  1.00  0.00     0.096 C
HETATM   31  O2  UNL     1      13.613 -11.789  22.307  1.00  0.00    -0.294 OA
ENDBRANCH  28  29
ENDBRANCH   8  27
TORSDOF 7
ENDMDL