MODEL 4
REMARK VINA RESULT: -6.361602044      1.291      1.399
REMARK  8 active torsions:
REMARK  status: ('A' for Active; 'I' for Inactive)
REMARK    1  A    between atoms: C4_5  and  C5_6
REMARK       I    between atoms: C5_6  and  N1_8
REMARK    2  A    between atoms: N1_8  and  C6_10
REMARK    3  A    between atoms: C6_10  and  C7_11
REMARK    4  A    between atoms: C7_11  and  N2_12
REMARK    5  A    between atoms: N2_12  and  C10_15
REMARK    6  A    between atoms: C10_15  and  C11_16
REMARK    7  A    between atoms: C11_16  and  O2_17
REMARK    8  A    between atoms: N3_19  and  N4_20
ROOT
HETATM    1  C5  UNL     1      17.289 -14.247  22.484  1.00  0.00     0.269 C
HETATM    2  O1  UNL     1      16.416 -15.129  22.301  1.00  0.00    -0.266 OA
HETATM    3  N1  UNL     1      17.186 -13.021  21.793  1.00  0.00    -0.354 N
ATOM      4  H1  UNL     1      17.906 -12.319  21.965  1.00  0.00     0.162 HD
ENDROOT
BRANCH   1   5
HETATM    5  C4  UNL     1      18.415 -14.479  23.413  1.00  0.00     0.123 C
HETATM    6  C3  UNL     1      18.492 -14.105  24.672  1.00  0.00     0.034 C
HETATM    7  C2  UNL     1      19.787 -14.527  25.263  1.00  0.00     0.061 C
HETATM    8  C1  UNL     1      19.629 -15.662  26.230  1.00  0.00     0.035 C
HETATM    9 BR1  UNL     1      20.597 -13.048  26.233  1.00  0.00    -0.079 Br
HETATM   10  C12 UNL     1      20.624 -14.854  24.073  1.00  0.00     0.073 C
HETATM   11  N3  UNL     1      19.609 -15.163  23.058  1.00  0.00    -0.217 N
HETATM   12  C13 UNL     1      21.375 -13.651  23.587  1.00  0.00     0.042 C
HETATM   13  C14 UNL     1      21.518 -16.050  24.289  1.00  0.00     0.042 C
BRANCH  11  14
HETATM   14  N4  UNL     1      19.837 -15.985  21.967  1.00  0.00    -0.035 N
HETATM   15  O3  UNL     1      20.406 -15.519  20.970  1.00  0.00    -0.516 OA
HETATM   16  O4  UNL     1      19.411 -17.289  22.052  1.00  0.00    -0.516 OA
ENDBRANCH  11  14
ENDBRANCH   1   5
BRANCH   3  17
HETATM   17  C6  UNL     1      16.144 -12.692  20.867  1.00  0.00     0.151 C
BRANCH  17  18
HETATM   18  C7  UNL     1      15.025 -11.961  21.512  1.00  0.00     0.256 C
BRANCH  18  19
HETATM   19  N2  UNL     1      13.731 -12.228  20.888  1.00  0.00    -0.071 N
HETATM   20  C8  UNL     1      13.112 -10.932  20.689  1.00  0.00     0.272 C
HETATM   21  C9  UNL     1      13.923 -12.837  19.585  1.00  0.00     0.272 C
BRANCH  19  22
HETATM   22  C10 UNL     1      12.975 -13.048  21.772  1.00  0.00     0.262 C
BRANCH  22  23
HETATM   23  C11 UNL     1      12.834 -14.488  21.368  1.00  0.00     0.192 C
BRANCH  23  24
HETATM   24  O2  UNL     1      12.823 -15.388  22.401  1.00  0.00    -0.399 OA
ATOM     25  H2  UNL     1      11.969 -15.564  22.778  1.00  0.00     0.209 HD
ENDBRANCH  23  24
ENDBRANCH  22  23
ENDBRANCH  19  22
ENDBRANCH  18  19
ENDBRANCH  17  18
ENDBRANCH   3  17
TORSDOF 8
ENDMDL