MODEL 4
REMARK VINA RESULT: -6.668672259      1.597      2.128
REMARK  6 active torsions:
REMARK  status: ('A' for Active; 'I' for Inactive)
REMARK    1  A    between atoms: N1_2  and  C3_4
REMARK    2  A    between atoms: C3_4  and  C4_5
REMARK    3  A    between atoms: C4_5  and  C5_6
REMARK    4  A    between atoms: N2_7  and  C6_9
REMARK    5  A    between atoms: C13_21  and  C14_22
REMARK    6  A    between atoms: C14_22  and  N5_23
ROOT
HETATM    1  C6  UNL     1      13.032 -12.248  20.062  1.00  0.00     0.130 A
HETATM    2  N3  UNL     1      13.085 -11.041  20.648  1.00  0.00    -0.339 N
ATOM      3  H3  UNL     1      13.554 -10.258  20.192  1.00  0.00     0.167 HD
HETATM    4  C7  UNL     1      12.500 -10.888  21.862  1.00  0.00     0.062 A
HETATM    5  C8  UNL     1      12.564  -9.624  22.458  1.00  0.00     0.051 A
HETATM    6  C9  UNL     1      11.983  -9.423  23.690  1.00  0.00     0.013 A
HETATM    7 BR1  UNL     1      12.070  -7.698  24.508  1.00  0.00    -0.051 Br
HETATM    8  C10 UNL     1      11.349 -10.467  24.315  1.00  0.00     0.021 A
HETATM    9  C11 UNL     1      11.265 -11.730  23.758  1.00  0.00     0.033 A
HETATM   10  C12 UNL     1      11.853 -11.909  22.524  1.00  0.00     0.059 A
HETATM   11  N4  UNL     1      11.831 -13.101  21.888  1.00  0.00    -0.353 N
ATOM     12  H4  UNL     1      11.360 -13.879  22.350  1.00  0.00     0.166 HD
HETATM   13  C13 UNL     1      12.372 -13.323  20.720  1.00  0.00     0.080 A
ENDROOT
BRANCH   1  14
HETATM   14  N2  UNL     1      13.555 -12.438  18.948  1.00  0.00    -0.354 N
HETATM   15  C5  UNL     1      14.668 -12.468  18.178  1.00  0.00     0.064 C
ATOM     16  H2  UNL     1      12.787 -12.688  18.325  1.00  0.00     0.166 HD
BRANCH  15  17
HETATM   17  C4  UNL     1      16.002 -12.019  18.781  1.00  0.00     0.074 C
BRANCH  17  18
HETATM   18  C3  UNL     1      17.007 -11.759  17.665  1.00  0.00     0.276 C
BRANCH  18  19
HETATM   19  N1  UNL     1      16.335 -11.501  16.405  1.00  0.00     0.080 N
HETATM   20  C1  UNL     1      16.748 -12.547  15.486  1.00  0.00     0.309 C
HETATM   21  C2  UNL     1      16.854 -10.242  15.889  1.00  0.00     0.309 C
ENDBRANCH  18  19
ENDBRANCH  17  18
ENDBRANCH  15  17
ENDBRANCH   1  14
BRANCH  13  22
HETATM   22  C14 UNL     1      12.377 -14.602  19.981  1.00  0.00     0.296 C
BRANCH  22  23
HETATM   23  N5  UNL     1      13.275 -15.577  20.477  1.00  0.00    -0.073 N
HETATM   24  C15 UNL     1      12.548 -16.522  21.336  1.00  0.00     0.272 C
HETATM   25  C16 UNL     1      13.764 -16.362  19.355  1.00  0.00     0.272 C
HETATM   26  C17 UNL     1      14.409 -15.068  21.189  1.00  0.00     0.272 C
ENDBRANCH  22  23
ENDBRANCH  13  22
TORSDOF 6
ENDMDL