MODEL 5
REMARK VINA RESULT: -8.212540511      3.924      9.389
REMARK  8 active torsions:
REMARK  status: ('A' for Active; 'I' for Inactive)
REMARK    1  A    between atoms: C1_2  and  C2_3
REMARK       I    between atoms: C1_2  and  N2_19
REMARK    2  A    between atoms: C2_3  and  O2_4
REMARK    3  A    between atoms: O2_4  and  C3_5
REMARK    4  A    between atoms: C3_5  and  C4_7
REMARK    5  A    between atoms: C4_7  and  S1_8
REMARK    6  A    between atoms: S1_8  and  C5_9
REMARK    7  A    between atoms: C9_14  and  N1_15
REMARK    8  A    between atoms: N2_19  and  C11_21
ROOT
HETATM    1  O2  UNL     1      43.090 -10.947  33.999  1.00  0.00    -0.311 OA
ENDROOT
BRANCH   1   2
HETATM    2  C2  UNL     1      42.417  -9.894  34.626  1.00  0.00     0.281 C
BRANCH   2   3
HETATM    3  C1  UNL     1      43.342  -8.831  35.157  1.00  0.00     0.246 C
HETATM    4  O1  UNL     1      44.382  -8.627  34.509  1.00  0.00    -0.271 OA
HETATM    5  N2  UNL     1      43.049  -8.111  36.315  1.00  0.00    -0.322 N
ATOM      6  H2  UNL     1      42.171  -8.369  36.765  1.00  0.00     0.169 HD
BRANCH   5   7
HETATM    7  C11 UNL     1      43.755  -7.099  36.960  1.00  0.00     0.085 C
HETATM    8  C12 UNL     1      43.812  -5.871  36.343  1.00  0.00     0.034 C
HETATM    9  C13 UNL     1      44.899  -5.021  36.332  1.00  0.00     0.002 C
HETATM   10  C14 UNL     1      46.018  -5.015  37.154  1.00  0.00     0.000 C
HETATM   11  C15 UNL     1      46.156  -5.740  38.335  1.00  0.00     0.004 C
HETATM   12  C16 UNL     1      45.364  -6.767  38.812  1.00  0.00     0.057 C
HETATM   13  C17 UNL     1      44.328  -7.431  38.195  1.00  0.00     0.198 C
HETATM   14  O6  UNL     1      43.852  -8.411  38.773  1.00  0.00    -0.286 OA
ENDBRANCH   5   7
ENDBRANCH   2   3
ENDBRANCH   1   2
BRANCH   1  15
HETATM   15  C3  UNL     1      43.432 -12.154  34.507  1.00  0.00     0.268 C
HETATM   16  O3  UNL     1      44.177 -12.890  33.760  1.00  0.00    -0.264 OA
BRANCH  15  17
HETATM   17  C4  UNL     1      43.059 -12.739  35.818  1.00  0.00     0.190 C
BRANCH  17  18
HETATM   18  S1  UNL     1      44.427 -13.374  36.759  1.00  0.00    -0.120 SA
BRANCH  18  19
HETATM   19  C5  UNL     1      44.380 -15.133  36.853  1.00  0.00     0.003 A
HETATM   20  C6  UNL     1      43.772 -15.892  35.894  1.00  0.00     0.020 A
HETATM   21  C7  UNL     1      43.811 -17.280  36.035  1.00  0.00     0.023 A
HETATM   22  C8  UNL     1      44.441 -17.876  37.106  1.00  0.00     0.044 A
HETATM   23 BR1  UNL     1      44.511 -19.758  37.327  1.00  0.00    -0.048 Br
HETATM   24  C9  UNL     1      45.059 -17.096  38.082  1.00  0.00     0.121 A
HETATM   25  C10 UNL     1      45.021 -15.729  37.945  1.00  0.00     0.056 A
BRANCH  24  26
HETATM   26  N1  UNL     1      45.715 -17.697  39.195  1.00  0.00    -0.114 N
HETATM   27  O4  UNL     1      45.384 -17.454  40.371  1.00  0.00    -0.532 OA
HETATM   28  O5  UNL     1      46.742 -18.572  38.982  1.00  0.00    -0.532 OA
ENDBRANCH  24  26
ENDBRANCH  18  19
ENDBRANCH  17  18
ENDBRANCH  15  17
ENDBRANCH   1  15
TORSDOF 8
ENDMDL