MODEL 4
REMARK VINA RESULT: -7.285649049      1.827      2.995
REMARK  10 active torsions:
REMARK  status: ('A' for Active; 'I' for Inactive)
REMARK    1  A    between atoms: O1_2  and  C2_3
REMARK    2  A    between atoms: C2_3  and  C3_5
REMARK    3  A    between atoms: C3_5  and  C4_6
REMARK    4  A    between atoms: C4_6  and  N1_7
REMARK       I    between atoms: N1_7  and  C5_8
REMARK    5  A    between atoms: N1_7  and  C14_21
REMARK    6  A    between atoms: C5_8  and  C6_10
REMARK    7  A    between atoms: C6_10  and  O4_11
REMARK    8  A    between atoms: O4_11  and  C7_12
REMARK    9  A    between atoms: C7_12  and  C8_14
REMARK   10  A    between atoms: C19_26  and  C20_27
ROOT
HETATM    1  N1  UNL     1      44.087  -9.025  37.754  1.00  0.00    -0.315 N
HETATM    2  C5  UNL     1      44.265 -10.266  38.428  1.00  0.00     0.248 C
HETATM    3  O3  UNL     1      43.706 -10.377  39.565  1.00  0.00    -0.271 OA
ENDROOT
BRANCH   1   4
HETATM    4  C4  UNL     1      44.703  -8.860  36.458  1.00  0.00     0.142 C
BRANCH   4   5
HETATM    5  C3  UNL     1      43.837  -8.217  35.426  1.00  0.00     0.131 C
BRANCH   5   6
HETATM    6  C2  UNL     1      43.035  -9.312  34.804  1.00  0.00     0.259 C
HETATM    7  O2  UNL     1      43.522  -9.935  33.823  1.00  0.00    -0.265 OA
BRANCH   6   8
HETATM    8  O1  UNL     1      41.787  -9.665  35.259  1.00  0.00    -0.326 OA
HETATM    9  C1  UNL     1      41.576 -11.027  35.672  1.00  0.00     0.213 C
ENDBRANCH   6   8
ENDBRANCH   5   6
ENDBRANCH   4   5
ENDBRANCH   1   4
BRANCH   1  10
HETATM   10  C14 UNL     1      43.317  -8.018  38.376  1.00  0.00     0.054 A
HETATM   11  C15 UNL     1      41.944  -8.027  38.252  1.00  0.00     0.031 A
HETATM   12  C16 UNL     1      41.105  -7.091  38.819  1.00  0.00     0.002 A
HETATM   13  C17 UNL     1      41.697  -6.083  39.555  1.00  0.00     0.001 A
HETATM   14  C18 UNL     1      43.057  -6.030  39.706  1.00  0.00     0.021 A
HETATM   15  C19 UNL     1      43.885  -7.015  39.107  1.00  0.00     0.067 A
BRANCH  15  16
HETATM   16  C20 UNL     1      45.306  -6.920  39.289  1.00  0.00     0.211 C
HETATM   17  O6  UNL     1      46.023  -6.246  38.534  1.00  0.00    -0.644 OA
HETATM   18  O7  UNL     1      45.914  -7.595  40.332  1.00  0.00    -0.644 OA
ENDBRANCH  15  16
ENDBRANCH   1  10
BRANCH   2  19
HETATM   19  C6  UNL     1      45.027 -11.399  37.917  1.00  0.00     0.282 C
BRANCH  19  20
HETATM   20  O4  UNL     1      44.188 -12.484  37.631  1.00  0.00    -0.308 OA
BRANCH  20  21
HETATM   21  C7  UNL     1      44.370 -13.260  36.510  1.00  0.00     0.293 C
HETATM   22  O5  UNL     1      44.533 -12.718  35.384  1.00  0.00    -0.259 OA
BRANCH  21  23
HETATM   23  C8  UNL     1      44.374 -14.706  36.633  1.00  0.00     0.039 A
HETATM   24  C9  UNL     1      45.297 -15.316  37.448  1.00  0.00     0.019 A
HETATM   25  C10 UNL     1      45.287 -16.700  37.561  1.00  0.00     0.020 A
HETATM   26  C11 UNL     1      44.352 -17.410  36.848  1.00  0.00     0.011 A
HETATM   27 BR1  UNL     1      44.349 -19.325  37.013  1.00  0.00    -0.051 Br
HETATM   28  C12 UNL     1      43.419 -16.833  36.026  1.00  0.00     0.020 A
HETATM   29  C13 UNL     1      43.432 -15.441  35.916  1.00  0.00     0.019 A
ENDBRANCH  21  23
ENDBRANCH  20  21
ENDBRANCH  19  20
ENDBRANCH   2  19
TORSDOF 10
ENDMDL