MODEL 1
REMARK VINA RESULT: -8.638458860      0.000      0.000
REMARK  14 active torsions:
REMARK  status: ('A' for Active; 'I' for Inactive)
REMARK    1  A    between atoms: O1_2  and  C2_3
REMARK    2  A    between atoms: C5_6  and  C6_7
REMARK    3  A    between atoms: C6_7  and  C7_8
REMARK    4  A    between atoms: C7_8  and  C8_9
REMARK    5  A    between atoms: C7_8  and  C11_15
REMARK    6  A    between atoms: C8_9  and  O3_11
REMARK    7  A    between atoms: O3_11  and  C9_12
REMARK    8  A    between atoms: C11_15  and  O5_16
REMARK    9  A    between atoms: C11_15  and  N1_18
REMARK   10  A    between atoms: N1_18  and  C12_19
REMARK   11  A    between atoms: N1_18  and  C14_23
REMARK   12  A    between atoms: C12_19  and  C13_20
REMARK   13  A    between atoms: C14_23  and  O7_24
REMARK   14  A    between atoms: C14_23  and  C15_26
ROOT
HETATM    1  C11 UNL     1      43.999 -12.782  37.241  1.00  0.00     0.161 C
ENDROOT
BRANCH   1   2
HETATM    2  C7  UNL     1      43.689 -12.505  38.575  1.00  0.00     0.091 C
BRANCH   2   3
HETATM    3  C6  UNL     1      43.238 -13.527  39.352  1.00  0.00     0.033 C
BRANCH   3   4
HETATM    4  C5  UNL     1      43.887 -14.224  40.389  1.00  0.00    -0.035 A
HETATM    5  C4  UNL     1      43.678 -13.895  41.735  1.00  0.00     0.014 A
HETATM    6  C3  UNL     1      44.239 -14.666  42.710  1.00  0.00     0.037 A
HETATM    7  C2  UNL     1      45.027 -15.788  42.458  1.00  0.00     0.068 A
HETATM    8  C22 UNL     1      45.235 -16.115  41.147  1.00  0.00     0.037 A
HETATM    9  C21 UNL     1      44.687 -15.364  40.137  1.00  0.00     0.014 A
BRANCH   7  10
HETATM   10  O1  UNL     1      45.578 -16.546  43.495  1.00  0.00    -0.356 OA
HETATM   11  C1  UNL     1      46.931 -16.475  43.829  1.00  0.00     0.210 C
ENDBRANCH   7  10
ENDBRANCH   3   4
ENDBRANCH   2   3
BRANCH   2  12
HETATM   12  C8  UNL     1      43.866 -11.302  39.380  1.00  0.00     0.305 C
HETATM   13  O2  UNL     1      43.189 -10.812  40.264  1.00  0.00    -0.259 OA
BRANCH  12  14
HETATM   14  O3  UNL     1      45.060 -10.499  39.118  1.00  0.00    -0.241 OA
BRANCH  14  15
HETATM   15  C9  UNL     1      44.958  -9.309  38.419  1.00  0.00     0.262 C
HETATM   16  C10 UNL     1      44.910  -7.992  39.154  1.00  0.00     0.126 C
HETATM   17  O4  UNL     1      44.906  -9.347  37.170  1.00  0.00    -0.265 OA
ENDBRANCH  14  15
ENDBRANCH  12  14
ENDBRANCH   2  12
ENDBRANCH   1   2
BRANCH   1  18
HETATM   18  O5  UNL     1      45.275 -12.476  36.956  1.00  0.00    -0.345 OA
ATOM     19  H5  UNL     1      45.431 -11.540  37.008  1.00  0.00     0.219 HD
ENDBRANCH   1  18
BRANCH   1  20
HETATM   20  N1  UNL     1      43.340 -13.301  36.112  1.00  0.00    -0.298 N
BRANCH  20  21
HETATM   21  C12 UNL     1      42.467 -12.506  35.273  1.00  0.00     0.232 C
BRANCH  21  22
HETATM   22  C13 UNL     1      43.250 -11.574  34.385  1.00  0.00     0.249 C
HETATM   23  N2  UNL     1      43.169 -10.179  34.482  1.00  0.00    -0.061 NA
HETATM   24  O6  UNL     1      43.992 -12.111  33.537  1.00  0.00    -0.275 OA
ENDBRANCH  21  22
ENDBRANCH  20  21
BRANCH  20  25
HETATM   25  C14 UNL     1      43.525 -14.635  35.634  1.00  0.00     0.155 C
BRANCH  25  26
HETATM   26  O7  UNL     1      43.222 -14.759  34.353  1.00  0.00    -0.345 OA
ATOM     27  H7  UNL     1      43.232 -15.663  34.064  1.00  0.00     0.219 HD
ENDBRANCH  25  26
BRANCH  25  28
HETATM   28  C15 UNL     1      43.955 -15.879  36.188  1.00  0.00     0.015 A
HETATM   29  C16 UNL     1      45.161 -16.150  36.775  1.00  0.00     0.017 A
HETATM   30  C17 UNL     1      45.495 -17.404  37.182  1.00  0.00     0.025 A
HETATM   31  C18 UNL     1      44.666 -18.494  37.047  1.00  0.00     0.034 A
HETATM   32 CL1  UNL     1      45.105 -20.103  37.573  1.00  0.00    -0.084 Cl
HETATM   33  C19 UNL     1      43.447 -18.235  36.460  1.00  0.00     0.025 A
HETATM   34  C20 UNL     1      43.085 -16.998  36.043  1.00  0.00     0.017 A
ENDBRANCH  25  28
ENDBRANCH  20  25
ENDBRANCH   1  20
TORSDOF 14
ENDMDL