MODEL 1
REMARK VINA RESULT: -7.955797911      0.000      0.000
REMARK  9 active torsions:
REMARK  status: ('A' for Active; 'I' for Inactive)
REMARK       I    between atoms: C1_2  and  N1_3
REMARK    1  A    between atoms: C1_2  and  C6_12
REMARK    2  A    between atoms: N1_3  and  C2_5
REMARK    3  A    between atoms: C6_12  and  C7_13
REMARK    4  A    between atoms: C6_12  and  N2_16
REMARK    5  A    between atoms: N2_16  and  C10_17
REMARK    6  A    between atoms: N2_16  and  C15_23
REMARK    7  A    between atoms: C10_17  and  C11_18
REMARK    8  A    between atoms: C15_23  and  O5_24
REMARK    9  A    between atoms: C15_23  and  C16_26
ROOT
HETATM    1  N2  UNL     1      44.011 -12.969  37.418  1.00  0.00    -0.341 N
ENDROOT
BRANCH   1   2
HETATM    2  C6  UNL     1      43.837 -13.219  35.945  1.00  0.00     0.182 C
BRANCH   2   3
HETATM    3  C1  UNL     1      43.898 -14.672  35.683  1.00  0.00     0.241 C
HETATM    4  O1  UNL     1      43.169 -15.095  34.732  1.00  0.00    -0.271 OA
HETATM    5  N1  UNL     1      44.695 -15.580  36.405  1.00  0.00    -0.354 N
ATOM      6  H1  UNL     1      45.274 -15.217  37.163  1.00  0.00     0.162 HD
BRANCH   5   7
HETATM    7  C2  UNL     1      44.738 -17.002  36.129  1.00  0.00     0.099 C
HETATM    8  C3  UNL     1      43.415 -17.580  36.493  1.00  0.00     0.041 C
HETATM    9  C4  UNL     1      43.537 -19.057  36.621  1.00  0.00     0.142 C
HETATM   10  S1  UNL     1      45.157 -19.218  37.385  1.00  0.00     0.146 S
HETATM   11  O2  UNL     1      45.957 -20.288  36.737  1.00  0.00    -0.228 OA
HETATM   12  O3  UNL     1      45.044 -19.367  38.864  1.00  0.00    -0.228 OA
HETATM   13  C5  UNL     1      45.781 -17.589  37.042  1.00  0.00     0.165 C
ENDBRANCH   5   7
ENDBRANCH   2   3
BRANCH   2  14
HETATM   14  C7  UNL     1      42.637 -12.597  35.363  1.00  0.00     0.018 A
HETATM   15  C8  UNL     1      42.010 -11.350  35.864  1.00  0.00     0.007 A
HETATM   16  C9  UNL     1      42.830 -11.239  34.655  1.00  0.00     0.007 A
ENDBRANCH   2  14
ENDBRANCH   1   2
BRANCH   1  17
HETATM   17  C10 UNL     1      43.170 -13.704  38.290  1.00  0.00     0.191 C
BRANCH  17  18
HETATM   18  C11 UNL     1      43.750 -14.314  39.489  1.00  0.00     0.070 A
HETATM   19  C12 UNL     1      43.804 -13.925  40.785  1.00  0.00     0.036 A
HETATM   20  C13 UNL     1      44.472 -14.873  41.508  1.00  0.00     0.027 A
HETATM   21  C14 UNL     1      44.821 -15.848  40.609  1.00  0.00     0.142 A
HETATM   22  O4  UNL     1      44.384 -15.488  39.447  1.00  0.00    -0.325 OA
ENDBRANCH  17  18
ENDBRANCH   1  17
BRANCH   1  23
HETATM   23  C15 UNL     1      44.989 -12.036  37.735  1.00  0.00     0.149 C
BRANCH  23  24
HETATM   24  O5  UNL     1      46.248 -12.466  37.532  1.00  0.00    -0.346 OA
ATOM     25  H5  UNL     1      46.788 -11.868  37.028  1.00  0.00     0.219 HD
ENDBRANCH  23  24
BRANCH  23  26
HETATM   26  C16 UNL     1      45.001 -10.692  38.241  1.00  0.00     0.015 A
HETATM   27  C17 UNL     1      45.268 -10.474  39.606  1.00  0.00     0.017 A
HETATM   28  C18 UNL     1      45.283  -9.235  40.195  1.00  0.00     0.025 A
HETATM   29  C19 UNL     1      45.026  -8.125  39.424  1.00  0.00     0.034 A
HETATM   30 CL1  UNL     1      45.046  -6.556  40.176  1.00  0.00    -0.084 Cl
HETATM   31  C20 UNL     1      44.763  -8.301  38.093  1.00  0.00     0.025 A
HETATM   32  C21 UNL     1      44.753  -9.548  37.524  1.00  0.00     0.017 A
ENDBRANCH  23  26
ENDBRANCH   1  23
TORSDOF 9
ENDMDL