MODEL 2
REMARK VINA RESULT: -7.334124666      2.697      4.088
REMARK  8 active torsions:
REMARK  status: ('A' for Active; 'I' for Inactive)
REMARK    1  A    between atoms: N1_4  and  C4_5
REMARK    2  A    between atoms: C4_5  and  C5_6
REMARK    3  A    between atoms: C5_6  and  C6_7
REMARK    4  A    between atoms: C6_7  and  C7_8
REMARK    5  A    between atoms: C6_7  and  N2_14
REMARK    6  A    between atoms: C14_16  and  O1_17
REMARK    7  A    between atoms: C17_21  and  C18_22
REMARK    8  A    between atoms: C18_22  and  N3_23
ROOT
HETATM    1  C1  UNL     1      43.097 -11.874  34.665  1.00  0.00     0.041 C
HETATM    2  C2  UNL     1      42.983 -12.336  36.135  1.00  0.00     0.146 C
HETATM    3  C3  UNL     1      44.217 -13.100  36.417  1.00  0.00     0.303 C
HETATM    4  N1  UNL     1      44.810 -12.699  37.651  1.00  0.00     0.093 N
HETATM    5  C16 UNL     1      44.953 -11.269  37.769  1.00  0.00     0.306 C
HETATM    6  C17 UNL     1      43.714 -10.507  37.413  1.00  0.00     0.170 C
HETATM    7  O2  UNL     1      42.719 -11.226  36.849  1.00  0.00    -0.376 OA
ENDROOT
BRANCH   4   8
HETATM    8  C4  UNL     1      44.127 -13.193  38.814  1.00  0.00     0.275 C
BRANCH   8   9
HETATM    9  C5  UNL     1      44.023 -14.662  38.936  1.00  0.00     0.060 C
BRANCH   9  10
HETATM   10  C6  UNL     1      45.201 -15.452  39.348  1.00  0.00     0.114 C
BRANCH  10  11
HETATM   11  C7  UNL     1      45.263 -16.708  38.530  1.00  0.00    -0.036 A
HETATM   12  C8  UNL     1      45.197 -16.648  37.170  1.00  0.00     0.009 A
HETATM   13  C9  UNL     1      45.260 -17.788  36.366  1.00  0.00     0.001 A
HETATM   14  C10 UNL     1      45.393 -18.995  37.013  1.00  0.00     0.000 A
HETATM   15  C11 UNL     1      45.463 -19.088  38.382  1.00  0.00     0.001 A
HETATM   16  C12 UNL     1      45.397 -17.937  39.133  1.00  0.00     0.009 A
ENDBRANCH  10  11
BRANCH  10  17
HETATM   17  N2  UNL     1      45.411 -15.599  40.673  1.00  0.00    -0.399 N
HETATM   18  C13 UNL     1      46.435 -16.125  41.429  1.00  0.00     0.151 C
HETATM   19  C14 UNL     1      45.546 -16.017  42.673  1.00  0.00     0.153 C
HETATM   20  C15 UNL     1      44.649 -15.178  41.760  1.00  0.00     0.151 C
BRANCH  19  21
HETATM   21  O1  UNL     1      45.006 -17.194  43.120  1.00  0.00    -0.392 OA
ATOM     22  H1  UNL     1      44.710 -17.194  44.022  1.00  0.00     0.210 HD
ENDBRANCH  19  21
ENDBRANCH  10  17
ENDBRANCH   9  10
ENDBRANCH   8   9
ENDBRANCH   4   8
BRANCH   6  23
HETATM   23  C18 UNL     1      43.220  -9.646  38.586  1.00  0.00     0.181 C
BRANCH  23  24
HETATM   24  N3  UNL     1      42.677  -8.411  38.053  1.00  0.00    -0.300 N
HETATM   25  C19 UNL     1      43.071  -7.145  38.342  1.00  0.00     0.130 A
HETATM   26  C20 UNL     1      42.264  -6.307  37.593  1.00  0.00     0.044 A
HETATM   27 BR1  UNL     1      42.418  -4.404  37.641  1.00  0.00    -0.048 Br
HETATM   28  C21 UNL     1      41.399  -7.090  36.867  1.00  0.00     0.127 A
HETATM   29  N4  UNL     1      41.681  -8.364  37.173  1.00  0.00    -0.309 N
ATOM     30  H4  UNL     1      41.202  -9.178  36.788  1.00  0.00     0.186 HD
ENDBRANCH  23  24
ENDBRANCH   6  23
TORSDOF 8
ENDMDL