MODEL 5
REMARK VINA RESULT: -6.972035486      4.048      7.101
REMARK  7 active torsions:
REMARK  status: ('A' for Active; 'I' for Inactive)
REMARK    1  A    between atoms: C1_2  and  C2_3
REMARK       I    between atoms: C1_2  and  N2_18
REMARK    2  A    between atoms: C2_3  and  N1_4
REMARK    3  A    between atoms: N1_4  and  C3_5
REMARK    4  A    between atoms: N1_4  and  S1_10
REMARK    5  A    between atoms: S1_10  and  C8_13
REMARK    6  A    between atoms: N2_18  and  C10_20
REMARK    7  A    between atoms: C10_20  and  C11_21
ROOT
HETATM    1  N1  UNL     1      42.797  -9.583  36.337  1.00  0.00    -0.293 N
ENDROOT
BRANCH   1   2
HETATM    2  C2  UNL     1      41.969 -10.477  35.573  1.00  0.00     0.238 C
BRANCH   2   3
HETATM    3  C1  UNL     1      42.713 -11.576  34.932  1.00  0.00     0.236 C
HETATM    4  O1  UNL     1      43.415 -11.335  33.926  1.00  0.00    -0.272 OA
HETATM    5  N2  UNL     1      42.630 -12.891  35.453  1.00  0.00    -0.357 N
ATOM      6  H2  UNL     1      42.052 -13.067  36.275  1.00  0.00     0.162 HD
BRANCH   5   7
HETATM    7  C10 UNL     1      43.349 -13.991  34.846  1.00  0.00     0.154 C
BRANCH   7   8
HETATM    8  C11 UNL     1      44.223 -14.658  35.862  1.00  0.00     0.139 C
HETATM    9  C12 UNL     1      43.807 -14.375  37.275  1.00  0.00     0.035 C
HETATM   10  C13 UNL     1      44.320 -15.565  38.035  1.00  0.00     0.029 C
HETATM   11  C14 UNL     1      44.502 -16.590  36.959  1.00  0.00     0.168 C
HETATM   12  O4  UNL     1      44.091 -16.041  35.770  1.00  0.00    -0.384 OA
ENDBRANCH   7   8
ENDBRANCH   5   7
ENDBRANCH   2   3
ENDBRANCH   1   2
BRANCH   1  13
HETATM   13  C3  UNL     1      43.690 -10.283  37.138  1.00  0.00     0.096 C
HETATM   14  C4  UNL     1      44.945  -9.561  37.552  1.00  0.00     0.026 C
HETATM   15  C5  UNL     1      45.337 -10.240  38.867  1.00  0.00     0.002 C
HETATM   16  C6  UNL     1      44.010 -10.434  39.522  1.00  0.00     0.002 C
HETATM   17  C7  UNL     1      43.131 -10.913  38.388  1.00  0.00     0.026 C
ENDBRANCH   1  13
BRANCH   1  18
HETATM   18  S1  UNL     1      43.207  -8.229  35.491  1.00  0.00     0.270 S
HETATM   19  O2  UNL     1      44.412  -8.382  34.576  1.00  0.00    -0.200 OA
HETATM   20  O3  UNL     1      42.096  -7.860  34.543  1.00  0.00    -0.200 OA
BRANCH  18  21
HETATM   21  C8  UNL     1      43.457  -6.775  36.491  1.00  0.00     0.151 A
HETATM   22  S2  UNL     1      44.415  -5.454  36.283  1.00  0.00    -0.036 SA
HETATM   23  S3  UNL     1      43.594  -4.983  38.006  1.00  0.00    -0.042 SA
HETATM   24  C9  UNL     1      42.902  -6.447  37.665  1.00  0.00     0.089 A
HETATM   25 BR1  UNL     1      41.584  -7.347  38.837  1.00  0.00    -0.040 Br
ENDBRANCH  18  21
ENDBRANCH   1  18
TORSDOF 7
ENDMDL