MODEL 5
REMARK VINA RESULT: -7.971006382      2.837      7.236
REMARK  11 active torsions:
REMARK  status: ('A' for Active; 'I' for Inactive)
REMARK    1  A    between atoms: C5_5  and  N1_6
REMARK    2  A    between atoms: C6_9  and  C7_10
REMARK    3  A    between atoms: C7_10  and  C8_12
REMARK    4  A    between atoms: C8_12  and  O4_13
REMARK    5  A    between atoms: O4_13  and  C9_14
REMARK    6  A    between atoms: C9_14  and  O5_15
REMARK    7  A    between atoms: C9_14  and  C10_17
REMARK    8  A    between atoms: C10_17  and  N2_18
REMARK    9  A    between atoms: N2_18  and  C11_19
REMARK   10  A    between atoms: C11_19  and  O6_20
REMARK   11  A    between atoms: C11_19  and  C12_22
ROOT
HETATM    1  O4  UNL     1      43.003 -13.808  36.398  1.00  0.00    -0.321 OA
ENDROOT
BRANCH   1   2
HETATM    2  C8  UNL     1      42.997 -13.243  37.622  1.00  0.00     0.263 C
BRANCH   2   3
HETATM    3  C7  UNL     1      44.158 -13.464  38.511  1.00  0.00     0.202 C
HETATM    4  O3  UNL     1      45.080 -12.641  38.523  1.00  0.00    -0.288 OA
BRANCH   3   5
HETATM    5  C6  UNL     1      44.301 -14.664  39.382  1.00  0.00     0.116 A
HETATM    6  C5  UNL     1      44.848 -15.826  38.938  1.00  0.00     0.133 A
HETATM    7  C4  UNL     1      45.333 -16.793  39.830  1.00  0.00     0.040 A
HETATM    8  C3  UNL     1      45.210 -16.518  41.183  1.00  0.00     0.027 A
HETATM    9  C2  UNL     1      44.642 -15.319  41.598  1.00  0.00     0.008 A
HETATM   10  C1  UNL     1      44.590 -15.057  43.080  1.00  0.00     0.068 C
HETATM   11  N3  UNL     1      44.199 -14.418  40.727  1.00  0.00    -0.350 N
HETATM   12  C18 UNL     1      43.590 -13.207  41.269  1.00  0.00     0.156 C
BRANCH   6  13
HETATM   13  N1  UNL     1      44.937 -16.298  37.602  1.00  0.00    -0.113 N
HETATM   14  O1  UNL     1      45.882 -15.929  36.860  1.00  0.00    -0.532 OA
HETATM   15  O2  UNL     1      44.032 -17.140  37.061  1.00  0.00    -0.532 OA
ENDBRANCH   6  13
ENDBRANCH   3   5
ENDBRANCH   2   3
ENDBRANCH   1   2
BRANCH   1  16
HETATM   16  C9  UNL     1      43.383 -13.974  35.224  1.00  0.00     0.208 C
BRANCH  16  17
HETATM   17  O5  UNL     1      43.419 -15.248  34.789  1.00  0.00    -0.339 OA
ATOM     18  H5  UNL     1      43.998 -15.834  35.262  1.00  0.00     0.220 HD
ENDBRANCH  16  17
BRANCH  16  19
HETATM   19  C10 UNL     1      43.833 -13.005  34.164  1.00  0.00     0.248 C
BRANCH  19  20
HETATM   20  N2  UNL     1      43.451 -11.722  34.124  1.00  0.00    -0.388 NA
BRANCH  20  21
HETATM   21  C11 UNL     1      43.048 -10.411  34.083  1.00  0.00     0.224 C
BRANCH  21  22
HETATM   22  O6  UNL     1      42.673  -9.844  32.971  1.00  0.00    -0.335 OA
ATOM     23  H6  UNL     1      42.255  -8.991  32.962  1.00  0.00     0.220 HD
ENDBRANCH  21  22
BRANCH  21  24
HETATM   24  C12 UNL     1      42.954  -9.453  35.195  1.00  0.00     0.029 A
HETATM   25  C13 UNL     1      43.691  -8.357  35.279  1.00  0.00     0.018 A
HETATM   26  C14 UNL     1      43.664  -7.349  36.239  1.00  0.00     0.020 A
HETATM   27  C15 UNL     1      42.712  -7.559  37.250  1.00  0.00     0.011 A
HETATM   28 BR1  UNL     1      42.563  -6.215  38.615  1.00  0.00    -0.051 Br
HETATM   29  C16 UNL     1      41.913  -8.671  37.244  1.00  0.00     0.020 A
HETATM   30  C17 UNL     1      42.005  -9.649  36.228  1.00  0.00     0.018 A
ENDBRANCH  21  24
ENDBRANCH  20  21
ENDBRANCH  19  20
ENDBRANCH  16  19
ENDBRANCH   1  16
TORSDOF 11
ENDMDL