MODEL 2
REMARK VINA RESULT: -8.652941985      2.311      5.055
REMARK  8 active torsions:
REMARK  status: ('A' for Active; 'I' for Inactive)
REMARK    1  A    between atoms: C2_2  and  O2_4
REMARK    2  A    between atoms: O2_4  and  C3_5
REMARK    3  A    between atoms: C3_5  and  C4_6
REMARK    4  A    between atoms: C4_6  and  C20_29
REMARK       I    between atoms: N1_7  and  C5_9
REMARK    5  A    between atoms: C5_9  and  C6_11
REMARK    6  A    between atoms: C11_17  and  C12_18
REMARK    7  A    between atoms: C12_18  and  N2_19
REMARK       I    between atoms: N2_19  and  C13_20
REMARK    8  A    between atoms: C13_20  and  C14_22
ROOT
HETATM    1  C6  UNL     1      44.289 -17.145  37.183  1.00  0.00     0.119 C
HETATM    2  C7  UNL     1      44.397 -18.487  36.459  1.00  0.00     0.136 C
HETATM    3  C8  UNL     1      45.840 -18.867  36.263  1.00  0.00     0.035 C
HETATM    4  C9  UNL     1      46.252 -19.190  37.699  1.00  0.00     0.035 C
HETATM    5  C10 UNL     1      44.994 -18.952  38.458  1.00  0.00     0.133 C
HETATM    6  O4  UNL     1      44.030 -19.351  37.492  1.00  0.00    -0.379 OA
HETATM    7  C11 UNL     1      44.603 -17.477  38.557  1.00  0.00     0.082 C
ENDROOT
BRANCH   1   8
HETATM    8  C5  UNL     1      44.951 -16.074  36.462  1.00  0.00     0.229 C
HETATM    9  N1  UNL     1      44.236 -15.147  35.781  1.00  0.00    -0.327 N
HETATM   10  C4  UNL     1      43.844 -13.975  35.955  1.00  0.00     0.048 C
ATOM     11  H1  UNL     1      43.935 -15.506  34.875  1.00  0.00     0.168 HD
HETATM   12  O3  UNL     1      46.199 -15.989  36.450  1.00  0.00    -0.273 OA
BRANCH  10  13
HETATM   13  C3  UNL     1      43.020 -13.353  34.798  1.00  0.00     0.236 C
BRANCH  13  14
HETATM   14  O2  UNL     1      43.668 -12.208  34.311  1.00  0.00    -0.316 OA
BRANCH  14  15
HETATM   15  C2  UNL     1      43.015 -10.993  34.367  1.00  0.00     0.255 C
HETATM   16  C1  UNL     1      41.914 -10.759  35.311  1.00  0.00     0.126 C
HETATM   17  O1  UNL     1      43.386 -10.084  33.585  1.00  0.00    -0.266 OA
ENDBRANCH  14  15
ENDBRANCH  13  14
ENDBRANCH  10  13
BRANCH  10  18
HETATM   18  C20 UNL     1      44.002 -13.078  37.089  1.00  0.00     0.004 A
HETATM   19  C21 UNL     1      45.207 -12.435  37.274  1.00  0.00     0.016 A
HETATM   20  C22 UNL     1      45.331 -11.571  38.354  1.00  0.00     0.018 A
HETATM   21  C23 UNL     1      44.297 -11.348  39.226  1.00  0.00     0.087 A
HETATM   22  N3  UNL     1      43.151 -11.980  39.023  1.00  0.00    -0.374 N
HETATM   23  C24 UNL     1      42.978 -12.842  37.975  1.00  0.00     0.101 A
ATOM     24  H3  UNL     1      42.376 -11.820  39.667  1.00  0.00     0.164 HD
ENDBRANCH  10  18
ENDBRANCH   1   8
BRANCH   7  25
HETATM   25  C12 UNL     1      45.588 -16.713  39.357  1.00  0.00     0.167 C
BRANCH  25  26
HETATM   26  N2  UNL     1      45.032 -15.845  40.240  1.00  0.00    -0.383 NA
HETATM   27  C13 UNL     1      44.472 -14.968  41.127  1.00  0.00     0.325 C
HETATM   28  O5  UNL     1      43.844 -13.891  40.940  1.00  0.00    -0.251 OA
BRANCH  27  29
HETATM   29  C14 UNL     1      44.596 -15.298  42.588  1.00  0.00     0.046 A
HETATM   30  C15 UNL     1      43.748 -14.722  43.486  1.00  0.00     0.021 A
HETATM   31  C16 UNL     1      43.810 -14.986  44.846  1.00  0.00     0.043 A
HETATM   32  C17 UNL     1      44.780 -15.869  45.264  1.00  0.00     0.116 A
HETATM   33  F1  UNL     1      44.882 -16.160  46.587  1.00  0.00    -0.206 F
HETATM   34  C18 UNL     1      45.643 -16.459  44.385  1.00  0.00     0.043 A
HETATM   35  C19 UNL     1      45.552 -16.173  43.037  1.00  0.00     0.021 A
ENDBRANCH  27  29
ENDBRANCH  25  26
ENDBRANCH   7  25
TORSDOF 8
ENDMDL