MODEL 3
REMARK VINA RESULT: -8.073038482      2.444      6.929
REMARK  10 active torsions:
REMARK  status: ('A' for Active; 'I' for Inactive)
REMARK    1  A    between atoms: C2_2  and  C3_3
REMARK    2  A    between atoms: C2_2  and  C12_21
REMARK    3  A    between atoms: C3_3  and  O2_5
REMARK    4  A    between atoms: O2_5  and  C4_6
REMARK    5  A    between atoms: C4_6  and  C5_7
REMARK       I    between atoms: C5_7  and  N1_9
REMARK    6  A    between atoms: N1_9  and  C6_11
REMARK    7  A    between atoms: C11_17  and  N2_18
REMARK    8  A    between atoms: C12_21  and  O6_22
REMARK    9  A    between atoms: C12_21  and  N3_24
REMARK   10  A    between atoms: N3_24  and  C14_26
ROOT
HETATM    1  O2  UNL     1      43.190 -11.135  34.447  1.00  0.00    -0.308 OA
ENDROOT
BRANCH   1   2
HETATM    2  C3  UNL     1      42.272 -10.392  35.196  1.00  0.00     0.293 C
HETATM    3  O1  UNL     1      41.244 -11.083  35.561  1.00  0.00    -0.259 OA
BRANCH   2   4
HETATM    4  C2  UNL     1      42.424  -8.999  35.549  1.00  0.00     0.064 C
HETATM    5  C1  UNL     1      41.534  -8.571  36.724  1.00  0.00     0.059 C
BRANCH   4   6
HETATM    6  C12 UNL     1      43.739  -8.390  35.651  1.00  0.00     0.154 C
BRANCH   6   7
HETATM    7  O6  UNL     1      44.435  -8.400  34.523  1.00  0.00    -0.345 OA
ATOM      8  H6  UNL     1      45.186  -8.982  34.531  1.00  0.00     0.219 HD
ENDBRANCH   6   7
BRANCH   6   9
HETATM    9  N3  UNL     1      44.432  -7.795  36.698  1.00  0.00    -0.332 N
HETATM   10  C13 UNL     1      44.850  -6.426  36.681  1.00  0.00     0.158 C
BRANCH   9  11
HETATM   11  C14 UNL     1      44.792  -8.574  37.859  1.00  0.00     0.035 A
HETATM   12  C15 UNL     1      44.967  -9.923  37.847  1.00  0.00     0.029 A
HETATM   13  C16 UNL     1      45.300 -10.620  38.975  1.00  0.00     0.002 A
HETATM   14  C17 UNL     1      45.469  -9.958  40.166  1.00  0.00     0.000 A
HETATM   15  C18 UNL     1      45.300  -8.599  40.210  1.00  0.00     0.002 A
HETATM   16  C19 UNL     1      44.962  -7.900  39.061  1.00  0.00     0.029 A
ENDBRANCH   9  11
ENDBRANCH   6   9
ENDBRANCH   4   6
ENDBRANCH   2   4
ENDBRANCH   1   2
BRANCH   1  17
HETATM   17  C4  UNL     1      43.221 -12.533  34.472  1.00  0.00     0.282 C
BRANCH  17  18
HETATM   18  C5  UNL     1      43.818 -13.109  35.730  1.00  0.00     0.246 C
HETATM   19  O3  UNL     1      45.007 -12.776  35.938  1.00  0.00    -0.271 OA
HETATM   20  N1  UNL     1      43.118 -13.938  36.598  1.00  0.00    -0.323 N
ATOM     21  H1  UNL     1      42.147 -14.144  36.361  1.00  0.00     0.169 HD
BRANCH  20  22
HETATM   22  C6  UNL     1      43.628 -14.523  37.776  1.00  0.00     0.068 A
HETATM   23  C7  UNL     1      43.540 -13.890  38.992  1.00  0.00     0.033 A
HETATM   24  C8  UNL     1      44.145 -14.448  40.124  1.00  0.00     0.021 A
HETATM   25  C9  UNL     1      44.838 -15.620  40.082  1.00  0.00     0.013 A
HETATM   26 BR1  UNL     1      45.640 -16.310  41.679  1.00  0.00    -0.051 Br
HETATM   27  C10 UNL     1      44.937 -16.265  38.884  1.00  0.00     0.057 A
HETATM   28  C11 UNL     1      44.337 -15.724  37.738  1.00  0.00     0.130 A
BRANCH  28  29
HETATM   29  N2  UNL     1      44.495 -16.483  36.551  1.00  0.00    -0.113 N
HETATM   30  O4  UNL     1      45.612 -17.065  36.351  1.00  0.00    -0.532 OA
HETATM   31  O5  UNL     1      43.527 -16.623  35.619  1.00  0.00    -0.532 OA
ENDBRANCH  28  29
ENDBRANCH  20  22
ENDBRANCH  17  18
ENDBRANCH   1  17
TORSDOF 10
ENDMDL