MODEL 5
REMARK VINA RESULT: -8.201177442      3.200      8.410
REMARK  9 active torsions:
REMARK  status: ('A' for Active; 'I' for Inactive)
REMARK    1  A    between atoms: C3_3  and  C4_4
REMARK    2  A    between atoms: C6_6  and  C7_7
REMARK       I    between atoms: C7_7  and  N1_9
REMARK    3  A    between atoms: N1_9  and  C8_11
REMARK    4  A    between atoms: C8_11  and  C9_12
REMARK    5  A    between atoms: C9_12  and  N2_13
REMARK    6  A    between atoms: N2_13  and  C11_15
REMARK    7  A    between atoms: C11_15  and  C12_16
REMARK    8  A    between atoms: C16_20  and  O2_21
REMARK    9  A    between atoms: O2_21  and  C17_22
ROOT
HETATM    1  C1  UNL     1      42.368 -12.859  41.146  1.00  0.00     0.112 C
HETATM    2  C2  UNL     1      43.352 -13.275  40.119  1.00  0.00    -0.111 C
HETATM    3  C3  UNL     1      44.168 -13.617  39.296  1.00  0.00    -0.100 C
ENDROOT
BRANCH   3   4
HETATM    4  C4  UNL     1      45.176 -14.033  38.319  1.00  0.00     0.096 C
HETATM    5  C5  UNL     1      45.108 -13.235  37.057  1.00  0.00     0.034 C
HETATM    6  C6  UNL     1      44.228 -13.997  36.077  1.00  0.00     0.086 C
HETATM    7  C21 UNL     1      43.728 -15.190  36.824  1.00  0.00     0.043 C
HETATM    8  C22 UNL     1      43.798 -16.470  36.056  1.00  0.00     0.089 C
HETATM    9  C25 UNL     1      44.840 -15.417  37.857  1.00  0.00     0.153 C
HETATM   10  C23 UNL     1      42.805 -17.450  36.647  1.00  0.00     0.021 C
HETATM   11  C24 UNL     1      45.207 -16.949  36.271  1.00  0.00     0.263 C
HETATM   12  O4  UNL     1      45.672 -18.036  35.805  1.00  0.00    -0.265 OA
HETATM   13  O5  UNL     1      45.848 -15.990  37.049  1.00  0.00    -0.314 OA
BRANCH   6  14
HETATM   14  C7  UNL     1      43.184 -13.116  35.553  1.00  0.00     0.222 C
HETATM   15  O1  UNL     1      42.616 -13.412  34.473  1.00  0.00    -0.273 OA
HETATM   16  N1  UNL     1      42.778 -11.935  36.204  1.00  0.00    -0.359 N
ATOM     17  H1  UNL     1      43.228 -11.675  37.082  1.00  0.00     0.162 HD
BRANCH  16  18
HETATM   18  C8  UNL     1      41.728 -11.064  35.660  1.00  0.00     0.152 C
BRANCH  18  19
HETATM   19  C9  UNL     1      42.353  -9.840  35.038  1.00  0.00     0.291 C
BRANCH  19  20
HETATM   20  N2  UNL     1      43.118  -9.066  35.984  1.00  0.00     0.089 N
HETATM   21  C10 UNL     1      43.825  -7.971  35.359  1.00  0.00     0.310 C
BRANCH  20  22
HETATM   22  C11 UNL     1      42.314  -8.614  37.100  1.00  0.00     0.310 C
BRANCH  22  23
HETATM   23  C12 UNL     1      43.014  -9.000  38.352  1.00  0.00    -0.027 A
HETATM   24  C13 UNL     1      42.470  -8.765  39.597  1.00  0.00     0.018 A
HETATM   25  C14 UNL     1      43.126  -9.134  40.766  1.00  0.00    -0.024 A
HETATM   26  C15 UNL     1      42.476  -8.844  42.080  1.00  0.00     0.051 C
HETATM   27  C16 UNL     1      44.350  -9.750  40.663  1.00  0.00     0.123 A
HETATM   28  C19 UNL     1      44.933 -10.006  39.446  1.00  0.00     0.151 A
HETATM   29  F1  UNL     1      46.137 -10.614  39.371  1.00  0.00    -0.203 F
HETATM   30  C20 UNL     1      44.265  -9.632  38.308  1.00  0.00     0.054 A
BRANCH  27  31
HETATM   31  O2  UNL     1      45.036 -10.134  41.809  1.00  0.00    -0.276 OA
BRANCH  31  32
HETATM   32  C17 UNL     1      46.031  -9.376  42.362  1.00  0.00     0.260 C
HETATM   33  C18 UNL     1      47.473  -9.566  42.090  1.00  0.00     0.126 C
HETATM   34  O3  UNL     1      45.699  -8.453  43.159  1.00  0.00    -0.265 OA
ENDBRANCH  31  32
ENDBRANCH  27  31
ENDBRANCH  22  23
ENDBRANCH  20  22
ENDBRANCH  19  20
ENDBRANCH  18  19
ENDBRANCH  16  18
ENDBRANCH   6  14
ENDBRANCH   3   4
TORSDOF 9
ENDMDL