MODEL 3
REMARK VINA RESULT: -6.062159262      2.053      2.740
REMARK  7 active torsions:
REMARK  status: ('A' for Active; 'I' for Inactive)
REMARK    1  A    between atoms: C2_2  and  C3_4
REMARK    2  A    between atoms: C4_5  and  C5_6
REMARK    3  A    between atoms: C5_6  and  C6_7
REMARK    4  A    between atoms: C12_13  and  O2_14
REMARK    5  A    between atoms: C12_13  and  C13_16
REMARK    6  A    between atoms: C13_16  and  C14_17
REMARK    7  A    between atoms: C14_17  and  C15_18
ROOT
HETATM    1  C5  UNL     1      16.002 -27.858  -8.061  1.00  0.00     0.095 C
HETATM    2  C10 UNL     1      15.156 -26.741  -7.417  1.00  0.00     0.047 C
HETATM    3  C11 UNL     1      14.167 -26.134  -8.368  1.00  0.00     0.052 C
HETATM    4  C12 UNL     1      13.077 -27.168  -8.620  1.00  0.00     0.146 C
HETATM    5  C16 UNL     1      13.767 -28.400  -9.017  1.00  0.00     0.294 C
HETATM    6  O5  UNL     1      13.211 -29.108  -9.920  1.00  0.00    -0.262 OA
HETATM    7  O6  UNL     1      14.947 -28.799  -8.464  1.00  0.00    -0.303 OA
ENDROOT
BRANCH   1   8
HETATM    8  C4  UNL     1      16.648 -27.460  -9.284  1.00  0.00     0.016 C
HETATM    9  C3  UNL     1      17.407 -26.292  -9.657  1.00  0.00     0.048 C
BRANCH   9  10
HETATM   10  C2  UNL     1      18.688 -25.949  -9.032  1.00  0.00     0.145 C
HETATM   11  C1  UNL     1      19.033 -24.582  -8.547  1.00  0.00     0.096 C
HETATM   12  O1  UNL     1      19.612 -26.765  -8.841  1.00  0.00    -0.294 OA
ENDBRANCH   9  10
ENDBRANCH   1   8
BRANCH   1  13
HETATM   13  C6  UNL     1      16.665 -28.553  -6.936  1.00  0.00    -0.016 C
HETATM   14  C7  UNL     1      17.771 -29.504  -7.186  1.00  0.00     0.018 C
HETATM   15  C8  UNL     1      17.243 -27.502  -5.937  1.00  0.00     0.018 C
HETATM   16  C9  UNL     1      15.664 -29.319  -6.056  1.00  0.00     0.018 C
ENDBRANCH   1  13
BRANCH   4  17
HETATM   17  O2  UNL     1      12.449 -27.383  -7.361  1.00  0.00    -0.380 OA
ATOM     18  H2  UNL     1      12.277 -26.519  -7.007  1.00  0.00     0.211 HD
ENDBRANCH   4  17
BRANCH   4  19
HETATM   19  C13 UNL     1      12.022 -26.681  -9.550  1.00  0.00     0.059 C
BRANCH  19  20
HETATM   20  C14 UNL     1      11.970 -25.179  -9.708  1.00  0.00     0.116 C
BRANCH  20  21
HETATM   21  C15 UNL     1      10.872 -24.582  -8.927  1.00  0.00     0.172 C
HETATM   22  O3  UNL     1      10.216 -25.283  -8.122  1.00  0.00    -0.648 OA
HETATM   23  O4  UNL     1      10.535 -23.234  -9.057  1.00  0.00    -0.648 OA
ENDBRANCH  20  21
ENDBRANCH  19  20
ENDBRANCH   4  19
TORSDOF 7
ENDMDL