MODEL 4
REMARK VINA RESULT: -6.452188471      1.607      1.973
REMARK  8 active torsions:
REMARK  status: ('A' for Active; 'I' for Inactive)
REMARK    1  A    between atoms: C2_2  and  C3_3
REMARK    2  A    between atoms: C3_3  and  C4_4
REMARK    3  A    between atoms: C4_4  and  C5_5
REMARK    4  A    between atoms: C5_5  and  C6_6
REMARK    5  A    between atoms: C6_6  and  C7_7
REMARK    6  A    between atoms: C7_7  and  C8_9
REMARK    7  A    between atoms: C15_19  and  C16_20
REMARK    8  A    between atoms: C16_20  and  O3_22
ROOT
HETATM    1  C8  UNL     1      14.108 -27.414  -7.273  1.00  0.00     0.298 C
HETATM    2  N1  UNL     1      14.247 -28.840  -7.019  1.00  0.00    -0.324 N
ATOM      3  H1  UNL     1      13.827 -29.379  -6.262  1.00  0.00     0.165 HD
HETATM    4  C9  UNL     1      15.094 -29.316  -8.056  1.00  0.00     0.283 C
HETATM    5  O2  UNL     1      15.264 -30.501  -8.394  1.00  0.00    -0.267 OA
HETATM    6  C10 UNL     1      15.729 -28.076  -8.646  1.00  0.00     0.250 C
HETATM    7  C11 UNL     1      16.745 -27.634  -7.660  1.00  0.00     0.080 C
HETATM    8  C12 UNL     1      18.106 -28.093  -8.139  1.00  0.00     0.013 C
HETATM    9  C13 UNL     1      18.291 -27.378  -9.480  1.00  0.00     0.013 C
HETATM   10  C14 UNL     1      18.155 -25.901  -9.203  1.00  0.00     0.012 C
HETATM   11  C15 UNL     1      17.265 -27.910 -10.416  1.00  0.00     0.157 C
HETATM   12  O4  UNL     1      16.117 -28.394  -9.888  1.00  0.00    -0.339 OA
HETATM   13  O5  UNL     1      14.638 -27.214  -8.547  1.00  0.00    -0.315 OA
ENDROOT
BRANCH  11  14
HETATM   14  C16 UNL     1      17.932 -29.094 -11.143  1.00  0.00     0.143 C
HETATM   15  C17 UNL     1      16.907 -30.126 -11.528  1.00  0.00     0.042 C
BRANCH  14  16
HETATM   16  O3  UNL     1      18.651 -28.667 -12.254  1.00  0.00    -0.393 OA
ATOM     17  H3  UNL     1      18.387 -29.132 -13.038  1.00  0.00     0.210 HD
ENDBRANCH  14  16
ENDBRANCH  11  14
BRANCH   1  18
HETATM   18  C7  UNL     1      12.678 -27.059  -7.249  1.00  0.00     0.175 C
HETATM   19  O1  UNL     1      12.025 -27.218  -6.235  1.00  0.00    -0.293 OA
BRANCH  18  20
HETATM   20  C6  UNL     1      11.966 -26.496  -8.437  1.00  0.00     0.083 C
BRANCH  20  21
HETATM   21  C5  UNL     1      10.912 -25.497  -8.004  1.00  0.00     0.007 C
BRANCH  21  22
HETATM   22  C4  UNL     1      10.189 -24.901  -9.187  1.00  0.00     0.000 C
BRANCH  22  23
HETATM   23  C3  UNL     1      10.583 -23.471  -9.435  1.00  0.00    -0.000 C
BRANCH  23  24
HETATM   24  C2  UNL     1      11.692 -23.382 -10.475  1.00  0.00    -0.005 C
HETATM   25  C1  UNL     1      11.443 -24.491 -11.495  1.00  0.00     0.005 C
ENDBRANCH  23  24
ENDBRANCH  22  23
ENDBRANCH  21  22
ENDBRANCH  20  21
ENDBRANCH  18  20
ENDBRANCH   1  18
TORSDOF 8
ENDMDL