MODEL 4
REMARK VINA RESULT: -5.577409863      1.856      5.385
REMARK  9 active torsions:
REMARK  status: ('A' for Active; 'I' for Inactive)
REMARK    1  A    between atoms: C2_2  and  O1_3
REMARK    2  A    between atoms: O1_3  and  C3_4
REMARK    3  A    between atoms: C3_4  and  C4_6
REMARK    4  A    between atoms: C4_6  and  C5_7
REMARK    5  A    between atoms: C5_7  and  C6_8
REMARK    6  A    between atoms: C11_13  and  O3_14
REMARK    7  A    between atoms: C12_16  and  C14_18
REMARK    8  A    between atoms: C14_18  and  C15_19
REMARK    9  A    between atoms: C15_19  and  C16_20
ROOT
HETATM    1  C4  UNL     1      14.565 -28.099  -8.547  1.00  0.00     0.114 C
HETATM    2  C10 UNL     1      14.915 -27.000  -7.547  1.00  0.00     0.061 C
HETATM    3  C11 UNL     1      14.639 -27.622  -6.186  1.00  0.00     0.135 C
HETATM    4  C12 UNL     1      14.981 -29.085  -6.345  1.00  0.00     0.044 C
HETATM    5  C13 UNL     1      16.437 -29.292  -5.921  1.00  0.00     0.026 C
HETATM    6  C17 UNL     1      14.785 -29.362  -7.790  1.00  0.00     0.156 C
HETATM    7  O6  UNL     1      14.801 -30.467  -8.284  1.00  0.00    -0.296 OA
ENDROOT
BRANCH   1   8
HETATM    8  C3  UNL     1      15.453 -27.962  -9.698  1.00  0.00     0.275 C
HETATM    9  O2  UNL     1      15.563 -28.641 -10.711  1.00  0.00    -0.264 OA
BRANCH   8  10
HETATM   10  O1  UNL     1      16.377 -26.867  -9.700  1.00  0.00    -0.321 OA
BRANCH  10  11
HETATM   11  C2  UNL     1      17.682 -26.944 -10.122  1.00  0.00     0.174 C
HETATM   12  C1  UNL     1      18.384 -25.658 -10.449  1.00  0.00     0.034 C
ENDBRANCH  10  11
ENDBRANCH   8  10
ENDBRANCH   1   8
BRANCH   1  13
HETATM   13  C5  UNL     1      13.128 -27.986  -8.962  1.00  0.00     0.055 C
BRANCH  13  14
HETATM   14  C6  UNL     1      12.797 -26.849  -9.825  1.00  0.00    -0.023 C
HETATM   15  C7  UNL     1      11.964 -25.878  -9.506  1.00  0.00    -0.091 C
HETATM   16  C8  UNL     1      11.253 -25.839  -8.202  1.00  0.00     0.042 C
HETATM   17  C9  UNL     1      11.714 -24.784 -10.471  1.00  0.00     0.042 C
ENDBRANCH  13  14
ENDBRANCH   1  13
BRANCH   3  18
HETATM   18  O3  UNL     1      13.316 -27.375  -5.899  1.00  0.00    -0.394 OA
ATOM     19  H3  UNL     1      12.930 -28.208  -5.656  1.00  0.00     0.210 HD
ENDBRANCH   3  18
BRANCH   4  20
HETATM   20  C14 UNL     1      14.134 -29.952  -5.444  1.00  0.00     0.030 C
BRANCH  20  21
HETATM   21  C15 UNL     1      14.591 -29.786  -4.026  1.00  0.00     0.114 C
BRANCH  21  22
HETATM   22  C16 UNL     1      13.516 -29.331  -3.125  1.00  0.00     0.172 C
HETATM   23  O4  UNL     1      12.753 -30.159  -2.574  1.00  0.00    -0.648 OA
HETATM   24  O5  UNL     1      13.302 -27.978  -2.854  1.00  0.00    -0.648 OA
ENDBRANCH  21  22
ENDBRANCH  20  21
ENDBRANCH   4  20
TORSDOF 9
ENDMDL