MODEL 4
REMARK VINA RESULT: -6.608397805      2.360      4.012
REMARK  9 active torsions:
REMARK  status: ('A' for Active; 'I' for Inactive)
REMARK    1  A    between atoms: C3_3  and  N1_4
REMARK    2  A    between atoms: N1_4  and  C4_5
REMARK    3  A    between atoms: N1_4  and  C8_11
REMARK    4  A    between atoms: C4_5  and  C5_6
REMARK    5  A    between atoms: C5_6  and  C6_7
REMARK    6  A    between atoms: C6_7  and  O1_9
REMARK    7  A    between atoms: C8_11  and  C9_12
REMARK    8  A    between atoms: C10_16  and  C11_17
REMARK    9  A    between atoms: C18_24  and  O3_25
ROOT
HETATM    1  C1  UNL     1      16.879 -25.284  -5.948  1.00  0.00     0.018 C
HETATM    2  C2  UNL     1      16.583 -26.326  -6.483  1.00  0.00    -0.072 C
HETATM    3  C3  UNL     1      16.278 -27.570  -7.127  1.00  0.00     0.158 C
ENDROOT
BRANCH   3   4
HETATM    4  N1  UNL     1      15.380 -28.417  -6.452  1.00  0.00    -0.336 N
BRANCH   4   5
HETATM    5  C4  UNL     1      15.599 -28.794  -5.143  1.00  0.00     0.072 C
BRANCH   5   6
HETATM    6  C5  UNL     1      14.420 -28.834  -4.195  1.00  0.00     0.076 C
BRANCH   6   7
HETATM    7  C6  UNL     1      14.188 -27.364  -3.773  1.00  0.00     0.118 C
HETATM    8  C7  UNL     1      14.734 -27.255  -2.365  1.00  0.00     0.039 C
BRANCH   7   9
HETATM    9  O1  UNL     1      12.810 -27.174  -3.749  1.00  0.00    -0.396 OA
ATOM     10  H1  UNL     1      12.601 -26.832  -2.888  1.00  0.00     0.210 HD
ENDBRANCH   7   9
ENDBRANCH   6   7
ENDBRANCH   5   6
ENDBRANCH   4   5
BRANCH   4  11
HETATM   11  C8  UNL     1      14.252 -28.712  -7.189  1.00  0.00     0.138 C
BRANCH  11  12
HETATM   12  C9  UNL     1      13.183 -27.722  -7.378  1.00  0.00     0.149 A
HETATM   13  O2  UNL     1      12.214 -27.299  -6.616  1.00  0.00    -0.234 OA
HETATM   14  N2  UNL     1      11.482 -26.407  -7.159  1.00  0.00    -0.261 N
HETATM   15  C10 UNL     1      11.944 -26.161  -8.399  1.00  0.00     0.077 A
ATOM     16  H2  UNL     1      10.678 -25.954  -6.724  1.00  0.00     0.194 HD
HETATM   17  C18 UNL     1      13.026 -26.984  -8.567  1.00  0.00     0.128 A
BRANCH  15  18
HETATM   18  C11 UNL     1      11.377 -25.230  -9.332  1.00  0.00     0.007 C
HETATM   19  C12 UNL     1      11.248 -25.793 -10.747  1.00  0.00     0.016 C
HETATM   20  C13 UNL     1      10.967 -24.523 -11.522  1.00  0.00     0.006 C
HETATM   21  C14 UNL     1      11.329 -23.371 -10.624  1.00  0.00    -0.013 C
HETATM   22  C15 UNL     1      10.196 -23.139  -9.645  1.00  0.00     0.006 C
HETATM   23  C17 UNL     1      12.318 -24.055  -9.668  1.00  0.00     0.020 C
HETATM   24  C16 UNL     1      10.129 -24.533  -8.997  1.00  0.00     0.016 C
ENDBRANCH  15  18
BRANCH  17  25
HETATM   25  O3  UNL     1      13.852 -27.120  -9.657  1.00  0.00    -0.356 OA
ATOM     26  H3  UNL     1      13.995 -26.431 -10.294  1.00  0.00     0.218 HD
ENDBRANCH  17  25
ENDBRANCH  11  12
ENDBRANCH   4  11
ENDBRANCH   3   4
TORSDOF 9
ENDMDL