MODEL 4
REMARK VINA RESULT: -6.211115604      0.632      1.101
REMARK  9 active torsions:
REMARK  status: ('A' for Active; 'I' for Inactive)
REMARK    1  A    between atoms: C5_8  and  C6_9
REMARK    2  A    between atoms: C6_9  and  C7_10
REMARK    3  A    between atoms: C7_10  and  N2_11
REMARK    4  A    between atoms: N2_11  and  C8_12
REMARK    5  A    between atoms: N2_11  and  C10_18
REMARK    6  A    between atoms: C8_12  and  C9_13
REMARK    7  A    between atoms: C9_13  and  N3_14
REMARK    8  A    between atoms: C10_18  and  C11_19
REMARK    9  A    between atoms: N4_24  and  O1_25
ROOT
HETATM    1  C7  UNL     1      13.460 -27.925  -9.972  1.00  0.00     0.070 C
ENDROOT
BRANCH   1   2
HETATM    2  C6  UNL     1      14.610 -28.701  -9.364  1.00  0.00     0.123 C
BRANCH   2   3
HETATM    3  C5  UNL     1      15.913 -28.039  -9.717  1.00  0.00     0.116 A
HETATM    4  N1  UNL     1      16.343 -26.928  -9.094  1.00  0.00    -0.336 N
HETATM    5  C4  UNL     1      17.555 -26.623  -9.659  1.00  0.00     0.105 A
ATOM      6  H1  UNL     1      15.865 -26.416  -8.352  1.00  0.00     0.168 HD
HETATM    7  S1  UNL     1      18.871 -25.541  -9.657  1.00  0.00    -0.081 SA
HETATM    8  C16 UNL     1      17.889 -27.523 -10.622  1.00  0.00     0.104 A
HETATM    9  C3  UNL     1      19.818 -26.252 -10.878  1.00  0.00     0.061 A
HETATM   10  C2  UNL     1      19.071 -27.334 -11.262  1.00  0.00    -0.023 A
HETATM   11  C1  UNL     1      19.594 -28.262 -12.363  1.00  0.00     0.051 C
HETATM   12  N4  UNL     1      16.829 -28.397 -10.626  1.00  0.00    -0.209 N
BRANCH  12  13
HETATM   13  O1  UNL     1      16.670 -29.513 -11.433  1.00  0.00    -0.281 OA
ATOM     14  H1  UNL     1      16.508 -29.443 -12.367  1.00  0.00     0.245 HD
ENDBRANCH  12  13
ENDBRANCH   2   3
ENDBRANCH   1   2
BRANCH   1  15
HETATM   15  N2  UNL     1      12.682 -27.168  -9.093  1.00  0.00    -0.371 N
BRANCH  15  16
HETATM   16  C8  UNL     1      13.225 -26.683  -7.889  1.00  0.00     0.090 C
BRANCH  16  17
HETATM   17  C9  UNL     1      12.686 -27.512  -6.721  1.00  0.00     0.274 C
BRANCH  17  18
HETATM   18  N3  UNL     1      11.588 -26.867  -6.044  1.00  0.00    -0.075 N
ATOM     19  H33 UNL     1      11.325 -27.380  -5.203  1.00  0.00     0.274 HD
ATOM     20  H32 UNL     1      11.886 -25.990  -5.616  1.00  0.00     0.274 HD
ATOM     21  H31 UNL     1      10.782 -26.723  -6.652  1.00  0.00     0.274 HD
ENDBRANCH  17  18
ENDBRANCH  16  17
ENDBRANCH  15  16
BRANCH  15  22
HETATM   22  C10 UNL     1      11.635 -26.375  -9.670  1.00  0.00     0.131 C
BRANCH  22  23
HETATM   23  C11 UNL     1      11.721 -24.944  -9.180  1.00  0.00     0.004 C
HETATM   24  C12 UNL     1      12.211 -24.041 -10.293  1.00  0.00     0.006 C
HETATM   25  C13 UNL     1      11.168 -22.986 -10.483  1.00  0.00     0.000 C
HETATM   26  C14 UNL     1       9.898 -23.536  -9.890  1.00  0.00     0.000 C
HETATM   27  C15 UNL     1      10.382 -24.392  -8.749  1.00  0.00     0.006 C
ENDBRANCH  22  23
ENDBRANCH  15  22
ENDBRANCH   1  15
TORSDOF 9
ENDMDL