MODEL 3
REMARK VINA RESULT: -6.104054244      3.382      5.445
REMARK  7 active torsions:
REMARK  status: ('A' for Active; 'I' for Inactive)
REMARK       I    between atoms: C2_2  and  N1_4
REMARK    1  A    between atoms: N1_4  and  C3_6
REMARK    2  A    between atoms: C3_6  and  C4_7
REMARK    3  A    between atoms: C3_6  and  C12_17
REMARK    4  A    between atoms: C4_7  and  C5_8
REMARK    5  A    between atoms: C5_8  and  C7_10
REMARK    6  A    between atoms: C12_17  and  N2_18
REMARK    7  A    between atoms: C12_17  and  C13_22
ROOT
HETATM    1  C3  UNL     1      15.584 -27.221  -8.828  1.00  0.00     0.141 C
ENDROOT
BRANCH   1   2
HETATM    2  N1  UNL     1      15.510 -28.620  -9.016  1.00  0.00    -0.351 N
HETATM    3  C2  UNL     1      15.495 -29.591  -9.974  1.00  0.00     0.214 C
HETATM    4  C1  UNL     1      15.303 -31.043  -9.544  1.00  0.00     0.117 C
HETATM    5  O1  UNL     1      15.602 -29.500 -11.241  1.00  0.00    -0.274 OA
ATOM      6  H1  UNL     1      15.445 -29.066  -8.101  1.00  0.00     0.163 HD
ENDBRANCH   1   2
BRANCH   1   7
HETATM    7  C4  UNL     1      14.574 -26.582  -7.984  1.00  0.00     0.005 C
BRANCH   7   8
HETATM    8  C5  UNL     1      13.201 -27.030  -7.828  1.00  0.00    -0.055 C
HETATM    9  C6  UNL     1      12.800 -27.449  -6.438  1.00  0.00     0.046 C
BRANCH   8  10
HETATM   10  C7  UNL     1      12.081 -26.284  -8.458  1.00  0.00     0.177 C
HETATM   11  C8  UNL     1      11.987 -26.759  -9.941  1.00  0.00     0.208 C
HETATM   12  O2  UNL     1      11.316 -25.699 -10.490  1.00  0.00    -0.353 OA
HETATM   13  C9  UNL     1      11.350 -24.634  -9.618  1.00  0.00     0.157 C
HETATM   14  C10 UNL     1      10.060 -24.429  -8.873  1.00  0.00     0.078 C
HETATM   15  C11 UNL     1      11.730 -23.425 -10.448  1.00  0.00     0.078 C
HETATM   16  O3  UNL     1      12.337 -24.926  -8.672  1.00  0.00    -0.344 OA
ENDBRANCH   8  10
ENDBRANCH   7   8
ENDBRANCH   1   7
BRANCH   1  17
HETATM   17  C12 UNL     1      17.019 -26.820  -8.437  1.00  0.00     0.233 C
BRANCH  17  18
HETATM   18  N2  UNL     1      17.572 -27.910  -7.686  1.00  0.00    -0.070 N
ATOM     19  H23 UNL     1      17.495 -27.780  -6.678  1.00  0.00     0.275 HD
ATOM     20  H22 UNL     1      17.016 -28.763  -7.751  1.00  0.00     0.275 HD
ATOM     21  H21 UNL     1      18.533 -28.035  -8.002  1.00  0.00     0.275 HD
ENDBRANCH  17  18
BRANCH  17  22
HETATM   22  C13 UNL     1      17.864 -26.439  -9.568  1.00  0.00     0.022 C
HETATM   23  C14 UNL     1      18.699 -25.412  -9.527  1.00  0.00    -0.016 C
HETATM   24  C15 UNL     1      18.847 -24.578  -8.329  1.00  0.00     0.056 C
HETATM   25  S1  UNL     1      19.703 -24.998 -10.981  1.00  0.00    -0.058 SA
ENDBRANCH  17  22
ENDBRANCH   1  17
TORSDOF 7
ENDMDL