MODEL 5
REMARK VINA RESULT: -6.378095893      1.806      2.100
REMARK  7 active torsions:
REMARK  status: ('A' for Active; 'I' for Inactive)
REMARK    1  A    between atoms: C6_8  and  C8_10
REMARK    2  A    between atoms: C9_14  and  C10_15
REMARK    3  A    between atoms: C10_15  and  C11_16
REMARK    4  A    between atoms: C11_16  and  C12_17
REMARK    5  A    between atoms: C12_17  and  C13_18
REMARK    6  A    between atoms: C13_18  and  C14_19
REMARK    7  A    between atoms: C14_19  and  C15_20
ROOT
HETATM    1  C1  UNL     1      15.341 -27.130  -6.710  1.00  0.00     0.019 C
HETATM    2  C2  UNL     1      15.910 -27.616  -7.997  1.00  0.00     0.066 C
HETATM    3  C3  UNL     1      16.371 -29.016  -7.778  1.00  0.00     0.151 C
HETATM    4  O1  UNL     1      16.119 -29.583  -6.755  1.00  0.00    -0.296 OA
HETATM    5  C4  UNL     1      17.142 -29.700  -8.831  1.00  0.00     0.191 C
HETATM    6  C5  UNL     1      17.872 -30.864  -8.312  1.00  0.00     0.073 C
HETATM    7  N1  UNL     1      18.460 -31.771  -7.888  1.00  0.00    -0.196 NA
HETATM    8  C6  UNL     1      16.123 -30.162  -9.874  1.00  0.00     0.116 C
HETATM    9  C7  UNL     1      15.895 -31.655  -9.776  1.00  0.00     0.040 C
HETATM   10  S1  UNL     1      14.572 -29.247  -9.625  1.00  0.00    -0.141 SA
HETATM   11  C9  UNL     1      15.113 -27.522  -9.221  1.00  0.00     0.059 C
ENDROOT
BRANCH   8  12
HETATM   12  C8  UNL     1      16.668 -29.884 -11.220  1.00  0.00     0.194 C
HETATM   13  O2  UNL     1      16.397 -30.604 -12.197  1.00  0.00    -0.647 OA
HETATM   14  O3  UNL     1      17.497 -28.793 -11.382  1.00  0.00    -0.647 OA
ENDBRANCH   8  12
BRANCH  11  15
HETATM   15  C10 UNL     1      14.032 -26.560  -9.401  1.00  0.00     0.016 C
BRANCH  15  16
HETATM   16  C11 UNL     1      12.623 -26.961  -9.316  1.00  0.00     0.001 C
BRANCH  16  17
HETATM   17  C12 UNL     1      11.984 -26.640  -7.951  1.00  0.00     0.001 C
BRANCH  17  18
HETATM   18  C13 UNL     1      10.887 -25.641  -8.158  1.00  0.00     0.010 C
BRANCH  18  19
HETATM   19  C14 UNL     1      10.815 -25.175  -9.606  1.00  0.00     0.113 C
BRANCH  19  20
HETATM   20  C15 UNL     1      10.735 -23.712  -9.702  1.00  0.00     0.172 C
HETATM   21  O4  UNL     1       9.647 -23.086  -9.618  1.00  0.00    -0.648 OA
HETATM   22  O5  UNL     1      11.908 -22.994  -9.892  1.00  0.00    -0.648 OA
ENDBRANCH  19  20
ENDBRANCH  18  19
ENDBRANCH  17  18
ENDBRANCH  16  17
ENDBRANCH  15  16
ENDBRANCH  11  15
TORSDOF 7
ENDMDL