MODEL 2
REMARK VINA RESULT: -6.666309566      0.899      1.209
REMARK  9 active torsions:
REMARK  status: ('A' for Active; 'I' for Inactive)
REMARK    1  A    between atoms: C2_2  and  S1_3
REMARK    2  A    between atoms: C2_2  and  C13_17
REMARK    3  A    between atoms: S1_3  and  C3_4
REMARK    4  A    between atoms: C3_4  and  C4_5
REMARK    5  A    between atoms: C4_5  and  S2_6
REMARK    6  A    between atoms: S2_6  and  C5_9
REMARK    7  A    between atoms: C5_9  and  C6_10
REMARK    8  A    between atoms: C13_17  and  O3_18
REMARK    9  A    between atoms: N1_20  and  O4_22
ROOT
HETATM    1  C4  UNL     1      13.629 -28.359  -9.910  1.00  0.00     0.150 C
ENDROOT
BRANCH   1   2
HETATM    2  C3  UNL     1      13.608 -26.901  -9.596  1.00  0.00     0.089 C
BRANCH   2   3
HETATM    3  S1  UNL     1      12.038 -26.410  -8.912  1.00  0.00    -0.155 SA
BRANCH   3   4
HETATM    4  C2  UNL     1      11.272 -25.092  -9.864  1.00  0.00     0.119 C
HETATM    5  C1  UNL     1      12.204 -24.011 -10.281  1.00  0.00     0.030 C
BRANCH   4   6
HETATM    6  C13 UNL     1      10.108 -24.623  -9.060  1.00  0.00     0.149 C
HETATM    7  N1  UNL     1       9.279 -23.753  -9.374  1.00  0.00    -0.250 N
ATOM      8  H1  UNL     1       8.563 -23.596  -8.665  1.00  0.00     0.196 HD
BRANCH   6   9
HETATM    9  O3  UNL     1       9.977 -25.267  -7.806  1.00  0.00    -0.347 OA
ATOM     10  H3  UNL     1       9.259 -24.940  -7.277  1.00  0.00     0.219 HD
ENDBRANCH   6   9
BRANCH   7  11
HETATM   11  O4  UNL     1       9.140 -22.985 -10.453  1.00  0.00    -0.288 OA
ATOM     12  H4  UNL     1       9.722 -22.774 -11.174  1.00  0.00     0.244 HD
ENDBRANCH   7  11
ENDBRANCH   4   6
ENDBRANCH   3   4
ENDBRANCH   2   3
ENDBRANCH   1   2
BRANCH   1  13
HETATM   13  S2  UNL     1      15.352 -28.877  -9.788  1.00  0.00     0.145 S
HETATM   14  O1  UNL     1      15.721 -29.417 -11.133  1.00  0.00    -0.228 OA
HETATM   15  O2  UNL     1      15.538 -29.881  -8.699  1.00  0.00    -0.228 OA
BRANCH  13  16
HETATM   16  C5  UNL     1      16.297 -27.407  -9.438  1.00  0.00     0.145 C
BRANCH  16  17
HETATM   17  C6  UNL     1      17.402 -27.311 -10.421  1.00  0.00     0.007 C
HETATM   18  C7  UNL     1      18.180 -26.026 -10.475  1.00  0.00    -0.009 C
HETATM   19  C8  UNL     1      18.453 -25.433  -9.128  1.00  0.00     0.005 C
HETATM   20  C12 UNL     1      19.398 -26.880 -10.855  1.00  0.00     0.010 C
HETATM   21  C9  UNL     1      19.246 -26.355  -8.240  1.00  0.00     0.001 C
HETATM   22  C10 UNL     1      19.103 -27.801  -8.631  1.00  0.00     0.005 C
HETATM   23  C11 UNL     1      18.699 -27.997 -10.062  1.00  0.00    -0.009 C
ENDBRANCH  16  17
ENDBRANCH  13  16
ENDBRANCH   1  13
TORSDOF 9
ENDMDL