MODEL 5
REMARK VINA RESULT: -6.743861323      1.623      2.774
REMARK  7 active torsions:
REMARK  status: ('A' for Active; 'I' for Inactive)
REMARK    1  A    between atoms: C2_3  and  C3_4
REMARK    2  A    between atoms: C3_4  and  N2_5
REMARK    3  A    between atoms: N2_5  and  C5_8
REMARK    4  A    between atoms: C5_8  and  C6_9
REMARK    5  A    between atoms: C6_9  and  C7_10
REMARK    6  A    between atoms: C12_15  and  C13_16
REMARK    7  A    between atoms: C13_16  and  C14_17
ROOT
HETATM    1  N1  UNL     1      17.487 -25.668  -2.823  1.00  0.00    -0.197 NA
HETATM    2  C1  UNL     1      16.639 -26.159  -3.430  1.00  0.00     0.064 C
HETATM    3  C2  UNL     1      15.589 -26.806  -4.196  1.00  0.00     0.169 C
ENDROOT
BRANCH   3   4
HETATM    4  C3  UNL     1      14.505 -27.426  -3.442  1.00  0.00     0.089 C
BRANCH   4   5
HETATM    5  N2  UNL     1      13.185 -27.384  -3.905  1.00  0.00    -0.299 N
HETATM    6  C4  UNL     1      12.314 -26.584  -3.001  1.00  0.00     0.183 C
HETATM    7  N3  UNL     1      11.621 -25.974  -2.308  1.00  0.00    -0.172 NA
BRANCH   5   8
HETATM    8  C5  UNL     1      12.504 -27.944  -5.027  1.00  0.00     0.140 C
BRANCH   8   9
HETATM    9  C6  UNL     1      12.426 -27.156  -6.265  1.00  0.00     0.026 C
BRANCH   9  10
HETATM   10  C7  UNL     1      13.437 -27.574  -7.319  1.00  0.00    -0.009 C
HETATM   11  C8  UNL     1      14.084 -28.888  -7.090  1.00  0.00     0.005 C
HETATM   12  C9  UNL     1      15.309 -28.941  -8.000  1.00  0.00     0.000 C
HETATM   13  C10 UNL     1      14.908 -28.831  -9.446  1.00  0.00     0.000 C
HETATM   14  C11 UNL     1      13.454 -28.522  -9.628  1.00  0.00     0.005 C
HETATM   15  C12 UNL     1      12.952 -27.441  -8.719  1.00  0.00    -0.004 C
BRANCH  15  16
HETATM   16  C13 UNL     1      13.236 -26.041  -9.192  1.00  0.00     0.071 C
BRANCH  16  17
HETATM   17  C14 UNL     1      11.998 -25.239  -9.329  1.00  0.00     0.071 A
HETATM   18  N4  UNL     1      10.809 -25.500  -8.795  1.00  0.00    -0.295 N
HETATM   19  N5  UNL     1       9.832 -24.723  -8.995  1.00  0.00    -0.260 N
ATOM     20  H4  UNL     1      10.684 -26.333  -8.220  1.00  0.00     0.187 HD
HETATM   21  C15 UNL     1      10.008 -23.636  -9.753  1.00  0.00     0.304 A
ATOM     22  H5  UNL     1       8.921 -24.923  -8.583  1.00  0.00     0.191 HD
HETATM   23  O1  UNL     1       9.138 -22.748 -10.059  1.00  0.00    -0.258 OA
HETATM   24  S1  UNL     1      11.659 -23.778 -10.170  1.00  0.00    -0.013 SA
ENDBRANCH  16  17
ENDBRANCH  15  16
ENDBRANCH   9  10
ENDBRANCH   8   9
ENDBRANCH   5   8
ENDBRANCH   4   5
ENDBRANCH   3   4
TORSDOF 7
ENDMDL