MODEL 3
REMARK VINA RESULT: -6.769861636      1.182      2.168
REMARK  11 active torsions:
REMARK  status: ('A' for Active; 'I' for Inactive)
REMARK    1  A    between atoms: C2_2  and  O2_4
REMARK    2  A    between atoms: O2_4  and  C3_5
REMARK    3  A    between atoms: C3_5  and  C4_7
REMARK    4  A    between atoms: C4_7  and  C5_8
REMARK    5  A    between atoms: C5_8  and  C6_9
REMARK    6  A    between atoms: C6_9  and  C7_10
REMARK    7  A    between atoms: C7_10  and  C8_11
REMARK    8  A    between atoms: C8_11  and  C9_12
REMARK    9  A    between atoms: C9_12  and  C10_13
REMARK   10  A    between atoms: C10_13  and  O4_14
REMARK   11  A    between atoms: C10_13  and  C11_16
ROOT
HETATM    1  C9  UNL     1      12.414 -26.893  -7.842  1.00  0.00     0.032 C
ENDROOT
BRANCH   1   2
HETATM    2  C8  UNL     1      13.592 -27.758  -7.603  1.00  0.00     0.002 C
BRANCH   2   3
HETATM    3  C7  UNL     1      13.705 -28.412  -6.265  1.00  0.00     0.000 C
BRANCH   3   4
HETATM    4  C6  UNL     1      14.497 -27.497  -5.353  1.00  0.00     0.000 C
BRANCH   4   5
HETATM    5  C5  UNL     1      14.236 -27.874  -3.924  1.00  0.00     0.010 C
BRANCH   5   6
HETATM    6  C4  UNL     1      14.161 -26.716  -2.974  1.00  0.00     0.111 C
BRANCH   6   7
HETATM    7  C3  UNL     1      12.711 -26.598  -2.585  1.00  0.00     0.266 C
HETATM    8  O3  UNL     1      12.217 -25.496  -2.269  1.00  0.00    -0.265 OA
BRANCH   7   9
HETATM    9  O2  UNL     1      11.884 -27.722  -2.573  1.00  0.00    -0.245 OA
BRANCH   9  10
HETATM   10  C2  UNL     1      10.642 -27.704  -3.238  1.00  0.00     0.262 C
HETATM   11  C1  UNL     1      10.564 -27.058  -4.571  1.00  0.00     0.126 C
HETATM   12  O1  UNL     1       9.675 -28.237  -2.663  1.00  0.00    -0.265 OA
ENDBRANCH   9  10
ENDBRANCH   7   9
ENDBRANCH   6   7
ENDBRANCH   5   6
ENDBRANCH   4   5
ENDBRANCH   3   4
ENDBRANCH   2   3
ENDBRANCH   1   2
BRANCH   1  13
HETATM   13  C10 UNL     1      12.012 -26.822  -9.260  1.00  0.00     0.127 C
BRANCH  13  14
HETATM   14  O4  UNL     1      13.053 -27.054 -10.120  1.00  0.00    -0.395 OA
ATOM     15  H4  UNL     1      12.768 -27.391 -10.961  1.00  0.00     0.210 HD
ENDBRANCH  13  14
BRANCH  13  16
HETATM   16  C11 UNL     1      11.311 -25.544  -9.633  1.00  0.00    -0.010 C
HETATM   17  C12 UNL     1      10.896 -25.394 -11.082  1.00  0.00     0.017 C
HETATM   18  C13 UNL     1      11.073 -23.899 -11.269  1.00  0.00    -0.013 C
HETATM   19  C14 UNL     1      10.115 -23.217 -10.329  1.00  0.00     0.010 C
HETATM   20  C18 UNL     1      12.388 -23.680 -10.536  1.00  0.00     0.010 C
HETATM   21  C15 UNL     1      10.606 -23.711  -8.967  1.00  0.00    -0.008 C
HETATM   22  C16 UNL     1      10.141 -25.148  -8.750  1.00  0.00     0.017 C
HETATM   23  C17 UNL     1      11.977 -24.282  -9.206  1.00  0.00     0.001 C
ENDBRANCH  13  16
ENDBRANCH   1  13
TORSDOF 11
ENDMDL