MODEL 5
REMARK VINA RESULT: -5.889353888      1.516      4.959
REMARK  8 active torsions:
REMARK  status: ('A' for Active; 'I' for Inactive)
REMARK    1  A    between atoms: C3_3  and  C6_6
REMARK    2  A    between atoms: C6_6  and  N1_7
REMARK    3  A    between atoms: C6_6  and  C10_14
REMARK    4  A    between atoms: N1_7  and  C7_9
REMARK    5  A    between atoms: C7_9  and  C9_11
REMARK    6  A    between atoms: C9_11  and  O1_12
REMARK    7  A    between atoms: N2_18  and  S1_19
REMARK    8  A    between atoms: S1_19  and  C14_22
ROOT
HETATM    1  C1  UNL     1      18.066 -14.567  21.228  1.00  0.00     0.013 C
HETATM    2  C2  UNL     1      17.684 -13.488  20.815  1.00  0.00    -0.106 C
HETATM    3  C3  UNL     1      17.209 -12.166  20.339  1.00  0.00     0.037 C
HETATM    4  C4  UNL     1      18.394 -11.562  19.629  1.00  0.00     0.031 C
HETATM    5  C5  UNL     1      16.998 -11.302  21.550  1.00  0.00     0.031 C
ENDROOT
BRANCH   3   6
HETATM    6  C6  UNL     1      15.952 -12.265  19.543  1.00  0.00     0.120 C
BRANCH   6   7
HETATM    7  N1  UNL     1      15.894 -11.193  18.641  1.00  0.00    -0.387 N
ATOM      8  H1  UNL     1      15.824 -10.252  19.031  1.00  0.00     0.159 HD
BRANCH   7   9
HETATM    9  C7  UNL     1      15.924 -11.313  17.267  1.00  0.00     0.002 C
HETATM   10  C8  UNL     1      15.585 -12.676  16.674  1.00  0.00     0.065 C
BRANCH   9  11
HETATM   11  C9  UNL     1      17.045 -10.761  16.465  1.00  0.00     0.215 C
BRANCH  11  12
HETATM   12  O1  UNL     1      16.820  -9.503  15.913  1.00  0.00    -0.395 OA
ATOM     13  H1  UNL     1      16.175  -9.474  15.217  1.00  0.00     0.209 HD
ENDBRANCH  11  12
ENDBRANCH   9  11
ENDBRANCH   7   9
ENDBRANCH   6   7
BRANCH   6  14
HETATM   14  C10 UNL     1      14.693 -12.490  20.260  1.00  0.00     0.103 C
HETATM   15  C11 UNL     1      14.097 -13.836  20.288  1.00  0.00     0.020 A
HETATM   16  C12 UNL     1      12.954 -13.357  21.286  1.00  0.00     0.014 A
HETATM   17  C16 UNL     1      13.473 -14.661  21.248  1.00  0.00    -0.037 A
HETATM   18  C13 UNL     1      12.362 -12.426  20.295  1.00  0.00     0.113 C
HETATM   19  N2  UNL     1      13.543 -11.725  19.801  1.00  0.00    -0.203 NA
HETATM   20  C17 UNL     1      12.485 -15.762  20.833  1.00  0.00     0.015 C
HETATM   21  C18 UNL     1      14.368 -15.168  22.388  1.00  0.00     0.015 C
BRANCH  19  22
HETATM   22  S1  UNL     1      13.496 -10.102  20.204  1.00  0.00     0.211 S
HETATM   23  O2  UNL     1      14.773  -9.535  20.748  1.00  0.00    -0.211 OA
HETATM   24  O3  UNL     1      13.246  -9.324  18.909  1.00  0.00    -0.211 OA
BRANCH  22  25
HETATM   25  C14 UNL     1      12.211  -9.595  21.306  1.00  0.00     0.153 C
HETATM   26  C15 UNL     1      12.866  -9.299  22.642  1.00  0.00     0.022 C
ENDBRANCH  22  25
ENDBRANCH  19  22
ENDBRANCH   6  14
ENDBRANCH   3   6
TORSDOF 8
ENDMDL