MODEL 5
REMARK VINA RESULT: -6.349062252      1.323      1.786
REMARK  13 active torsions:
REMARK  status: ('A' for Active; 'I' for Inactive)
REMARK    1  A    between atoms: C3_3  and  N1_4
REMARK    2  A    between atoms: N1_4  and  C4_5
REMARK    3  A    between atoms: N1_4  and  C21_29
REMARK    4  A    between atoms: C6_7  and  C7_8
REMARK    5  A    between atoms: C7_8  and  O1_9
REMARK    6  A    between atoms: N2_12  and  C9_13
REMARK    7  A    between atoms: C9_13  and  C10_14
REMARK    8  A    between atoms: C11_15  and  C12_16
REMARK    9  A    between atoms: C13_17  and  C14_18
REMARK   10  A    between atoms: C14_18  and  C15_19
REMARK   11  A    between atoms: C15_19  and  C16_20
REMARK   12  A    between atoms: C17_21  and  C18_22
REMARK   13  A    between atoms: C18_22  and  N3_24
ROOT
HETATM    1  C1  UNL     1      15.374 -15.799  22.254  1.00  0.00     0.014 C
HETATM    2  C2  UNL     1      14.251 -15.594  21.829  1.00  0.00    -0.098 C
HETATM    3  C3  UNL     1      12.908 -15.389  21.320  1.00  0.00     0.216 C
ENDROOT
BRANCH   3   4
HETATM    4  N1  UNL     1      12.792 -14.196  20.498  1.00  0.00    -0.365 N
BRANCH   4   5
HETATM    5  C4  UNL     1      13.080 -12.894  20.991  1.00  0.00     0.047 A
HETATM    6  C5  UNL     1      12.165 -12.193  21.752  1.00  0.00     0.041 A
HETATM    7  C6  UNL     1      12.491 -10.920  22.197  1.00  0.00    -0.017 A
HETATM    8  C8  UNL     1      13.712 -10.406  21.864  1.00  0.00     0.100 A
HETATM    9  N2  UNL     1      14.615 -11.059  21.133  1.00  0.00    -0.353 N
HETATM   10  C20 UNL     1      14.290 -12.309  20.698  1.00  0.00     0.120 A
BRANCH   7  11
HETATM   11  C7  UNL     1      11.489 -10.185  23.012  1.00  0.00     0.204 C
BRANCH  11  12
HETATM   12  O1  UNL     1      10.659 -11.050  23.693  1.00  0.00    -0.396 OA
ATOM     13  H1  UNL     1      10.895 -11.106  24.611  1.00  0.00     0.209 HD
ENDBRANCH  11  12
ENDBRANCH   7  11
BRANCH   9  14
HETATM   14  C9  UNL     1      15.896 -10.528  20.779  1.00  0.00     0.222 C
BRANCH  14  15
HETATM   15  C10 UNL     1      16.901 -11.579  20.944  1.00  0.00    -0.072 C
HETATM   16  C11 UNL     1      17.717 -12.461  21.090  1.00  0.00    -0.013 C
BRANCH  16  17
HETATM   17  C12 UNL     1      18.656 -13.511  21.265  1.00  0.00    -0.015 C
HETATM   18  C13 UNL     1      19.439 -14.419  21.418  1.00  0.00    -0.092 C
BRANCH  18  19
HETATM   19  C14 UNL     1      20.380 -15.542  21.620  1.00  0.00     0.107 C
BRANCH  19  20
HETATM   20  C15 UNL     1      20.247 -15.960  23.060  1.00  0.00     0.106 C
BRANCH  20  21
HETATM   21  C16 UNL     1      20.908 -14.919  23.874  1.00  0.00    -0.104 C
HETATM   22  C17 UNL     1      21.448 -14.059  24.521  1.00  0.00    -0.074 C
BRANCH  22  23
HETATM   23  C18 UNL     1      22.089 -13.006  25.315  1.00  0.00     0.257 C
HETATM   24  C19 UNL     1      21.120 -11.842  25.361  1.00  0.00     0.053 C
BRANCH  23  25
HETATM   25  N3  UNL     1      23.301 -12.528  24.648  1.00  0.00    -0.065 N
ATOM     26  H33 UNL     1      24.146 -12.857  25.115  1.00  0.00     0.275 HD
ATOM     27  H32 UNL     1      23.440 -12.980  23.745  1.00  0.00     0.275 HD
ATOM     28  H31 UNL     1      23.286 -11.511  24.565  1.00  0.00     0.275 HD
ENDBRANCH  23  25
ENDBRANCH  22  23
ENDBRANCH  20  21
ENDBRANCH  19  20
ENDBRANCH  18  19
ENDBRANCH  16  17
ENDBRANCH  14  15
ENDBRANCH   9  14
ENDBRANCH   4   5
BRANCH   4  29
HETATM   29  C21 UNL     1      12.355 -14.384  19.128  1.00  0.00     0.077 C
HETATM   30  C22 UNL     1      11.345 -15.475  18.982  1.00  0.00     0.032 C
HETATM   31  C23 UNL     1      13.631 -14.816  18.337  1.00  0.00     0.032 C
ENDBRANCH   4  29
ENDBRANCH   3   4
TORSDOF 13
ENDMDL