MODEL 5
REMARK VINA RESULT: -6.702132854      2.954      6.529
REMARK  7 active torsions:
REMARK  status: ('A' for Active; 'I' for Inactive)
REMARK    1  A    between atoms: C3_3  and  N1_4
REMARK    2  A    between atoms: N2_12  and  C10_13
REMARK    3  A    between atoms: C13_16  and  O1_17
REMARK    4  A    between atoms: C13_16  and  C14_19
REMARK    5  A    between atoms: C14_19  and  N3_20
REMARK    6  A    between atoms: N3_20  and  S1_22
REMARK    7  A    between atoms: S1_22  and  C15_25
ROOT
HETATM    1  C1  UNL     1      12.478  -9.009  23.016  1.00  0.00     0.014 C
HETATM    2  C2  UNL     1      12.304 -10.043  22.404  1.00  0.00    -0.098 C
HETATM    3  C3  UNL     1      12.087 -11.284  21.641  1.00  0.00     0.214 C
ENDROOT
BRANCH   3   4
HETATM    4  N1  UNL     1      13.178 -11.425  20.749  1.00  0.00    -0.363 N
HETATM    5  C4  UNL     1      14.022 -12.410  20.790  1.00  0.00     0.181 C
HETATM    6  C5  UNL     1      13.721 -13.360  21.865  1.00  0.00     0.084 C
HETATM    7  N2  UNL     1      15.031 -12.336  19.795  1.00  0.00    -0.024 N
HETATM    8  C6  UNL     1      14.653 -14.496  22.008  1.00  0.00     0.015 C
HETATM    9  C7  UNL     1      15.919 -14.410  21.233  1.00  0.00     0.025 C
HETATM   10  C8  UNL     1      15.745 -14.677  19.759  1.00  0.00     0.036 C
HETATM   11  C13 UNL     1      16.666 -13.129  21.444  1.00  0.00     0.102 C
HETATM   12  C9  UNL     1      15.012 -13.572  19.053  1.00  0.00     0.246 C
HETATM   13  C12 UNL     1      16.299 -12.070  20.431  1.00  0.00     0.285 C
ATOM     14  H1  UNL     1      13.308 -10.711  20.032  1.00  0.00     0.161 HD
BRANCH  11  15
HETATM   15  O1  UNL     1      16.373 -12.694  22.755  1.00  0.00    -0.386 OA
ATOM     16  H1  UNL     1      15.492 -12.990  22.954  1.00  0.00     0.210 HD
ENDBRANCH  11  15
BRANCH  11  17
HETATM   17  C14 UNL     1      18.156 -13.391  21.416  1.00  0.00     0.171 C
BRANCH  17  18
HETATM   18  N3  UNL     1      18.682 -13.435  22.749  1.00  0.00    -0.316 N
ATOM     19  H3  UNL     1      18.131 -13.634  23.584  1.00  0.00     0.172 HD
BRANCH  18  20
HETATM   20  S1  UNL     1      20.382 -13.106  22.747  1.00  0.00     0.230 S
HETATM   21  O2  UNL     1      21.167 -14.393  22.798  1.00  0.00    -0.206 OA
HETATM   22  O3  UNL     1      20.771 -12.341  21.516  1.00  0.00    -0.206 OA
BRANCH  20  23
HETATM   23  C15 UNL     1      20.787 -12.059  24.145  1.00  0.00     0.129 A
HETATM   24  C16 UNL     1      20.603 -12.682  25.532  1.00  0.00     0.023 A
HETATM   25  C17 UNL     1      21.989 -12.414  24.947  1.00  0.00     0.023 A
ENDBRANCH  20  23
ENDBRANCH  18  20
ENDBRANCH  17  18
ENDBRANCH  11  17
BRANCH   7  26
HETATM   26  C10 UNL     1      14.774 -11.263  18.867  1.00  0.00     0.241 C
HETATM   27  C11 UNL     1      15.127 -11.631  17.448  1.00  0.00     0.035 C
ENDBRANCH   7  26
ENDBRANCH   3   4
TORSDOF 7
ENDMDL