MODEL 3
REMARK VINA RESULT: -6.182057428      6.268      8.826
REMARK  8 active torsions:
REMARK  status: ('A' for Active; 'I' for Inactive)
REMARK    1  A    between atoms: C2_2  and  N1_3
REMARK    2  A    between atoms: N1_3  and  C3_4
REMARK    3  A    between atoms: C7_8  and  C8_9
REMARK    4  A    between atoms: C8_9  and  O1_10
REMARK    5  A    between atoms: C15_19  and  C16_20
REMARK    6  A    between atoms: C16_20  and  C17_21
REMARK    7  A    between atoms: C18_24  and  N2_25
REMARK    8  A    between atoms: N2_25  and  N3_26
ROOT
HETATM    1  N1  UNL     1      19.513 -13.410  22.120  1.00  0.00    -0.063 N
HETATM    2  C5  UNL     1      20.021 -12.247  22.822  1.00  0.00     0.239 C
HETATM    3  C6  UNL     1      21.368 -12.494  23.508  1.00  0.00     0.047 C
HETATM    4  C7  UNL     1      21.279 -13.540  24.598  1.00  0.00     0.039 C
HETATM    5  C9  UNL     1      19.939 -14.232  24.267  1.00  0.00     0.053 C
HETATM    6  C10 UNL     1      20.100 -14.568  22.821  1.00  0.00     0.198 C
HETATM    7  C11 UNL     1      19.612 -15.892  22.387  1.00  0.00     0.043 C
HETATM    8  C12 UNL     1      20.525 -16.541  21.322  1.00  0.00     0.175 C
HETATM    9  O2  UNL     1      21.761 -16.382  21.984  1.00  0.00    -0.385 OA
HETATM   10  C13 UNL     1      21.520 -16.832  23.306  1.00  0.00     0.133 C
HETATM   11  C14 UNL     1      20.072 -16.919  23.440  1.00  0.00     0.041 C
HETATM   12  C15 UNL     1      22.338 -16.124  24.308  1.00  0.00     0.087 C
HETATM   13  C18 UNL     1      22.262 -14.665  24.350  1.00  0.00     0.103 C
ENDROOT
BRANCH   1  14
HETATM   14  C2  UNL     1      19.971 -13.433  20.749  1.00  0.00     0.233 C
HETATM   15  C1  UNL     1      20.360 -12.130  20.168  1.00  0.00     0.035 C
ENDBRANCH   1  14
BRANCH   1  16
HETATM   16  C3  UNL     1      18.090 -13.538  22.155  1.00  0.00     0.233 C
HETATM   17  C4  UNL     1      17.323 -12.277  21.968  1.00  0.00     0.035 C
ENDBRANCH   1  16
BRANCH   4  18
HETATM   18  C8  UNL     1      21.329 -13.016  25.977  1.00  0.00     0.180 C
BRANCH  18  19
HETATM   19  O1  UNL     1      22.536 -13.414  26.549  1.00  0.00    -0.400 OA
ATOM     20  H1  UNL     1      22.907 -14.102  26.009  1.00  0.00     0.209 HD
ENDBRANCH  18  19
ENDBRANCH   4  18
BRANCH  13  21
HETATM   21  N2  UNL     1      23.365 -14.074  24.100  1.00  0.00    -0.341 NA
BRANCH  21  22
HETATM   22  N3  UNL     1      24.542 -13.769  23.811  1.00  0.00    -0.280 N
ATOM     23  H32 UNL     1      24.795 -14.746  23.660  1.00  0.00     0.191 HD
ATOM     24  H31 UNL     1      25.424 -13.297  23.614  1.00  0.00     0.191 HD
ENDBRANCH  21  22
ENDBRANCH  13  21
BRANCH  12  25
HETATM   25  C16 UNL     1      22.180 -16.774  25.655  1.00  0.00     0.127 C
BRANCH  25  26
HETATM   26  C17 UNL     1      23.393 -16.628  26.496  1.00  0.00     0.173 C
HETATM   27  O3  UNL     1      24.550 -16.985  26.148  1.00  0.00    -0.648 OA
HETATM   28  O4  UNL     1      23.280 -16.054  27.776  1.00  0.00    -0.648 OA
ENDBRANCH  25  26
ENDBRANCH  12  25
TORSDOF 8
ENDMDL