MODEL 5
REMARK VINA RESULT: -7.092270429      2.361      3.529
REMARK  6 active torsions:
REMARK  status: ('A' for Active; 'I' for Inactive)
REMARK    1  A    between atoms: C2_2  and  C3_3
REMARK    2  A    between atoms: N1_6  and  C6_7
REMARK    3  A    between atoms: C6_7  and  C7_8
REMARK    4  A    between atoms: C7_8  and  C8_9
REMARK    5  A    between atoms: C7_8  and  O2_11
REMARK    6  A    between atoms: O2_11  and  N2_12
ROOT
HETATM    1  C7  UNL     1      17.833 -15.724  22.662  1.00  0.00     0.251 C
ENDROOT
BRANCH   1   2
HETATM    2  C6  UNL     1      18.043 -15.450  24.101  1.00  0.00     0.107 C
BRANCH   2   3
HETATM    3  N1  UNL     1      19.177 -14.728  24.480  1.00  0.00    -0.333 N
HETATM    4  C5  UNL     1      19.383 -13.347  24.809  1.00  0.00     0.161 C
HETATM    5  C3  UNL     1      20.781 -13.041  24.231  1.00  0.00     0.045 C
HETATM    6  C4  UNL     1      20.732 -12.808  22.751  1.00  0.00     0.040 C
HETATM    7  N4  UNL     1      21.472 -14.260  24.515  1.00  0.00    -0.356 N
HETATM    8  C17 UNL     1      20.525 -15.307  24.620  1.00  0.00     0.174 C
ATOM      9  H4  UNL     1      22.481 -14.360  24.622  1.00  0.00     0.162 HD
HETATM   10  S1  UNL     1      20.825 -16.899  24.857  1.00  0.00    -0.041 SA
BRANCH   5  11
HETATM   11  C2  UNL     1      21.428 -11.920  24.996  1.00  0.00     0.028 C
HETATM   12  C1  UNL     1      21.025 -12.016  26.448  1.00  0.00     0.007 C
ENDBRANCH   5  11
ENDBRANCH   2   3
ENDBRANCH   1   2
BRANCH   1  13
HETATM   13  C8  UNL     1      16.595 -16.458  22.384  1.00  0.00     0.271 C
HETATM   14  O1  UNL     1      15.585 -16.425  23.048  1.00  0.00    -0.304 OA
ENDBRANCH   1  13
BRANCH   1  15
HETATM   15  O2  UNL     1      17.700 -14.408  21.999  1.00  0.00    -0.263 OA
BRANCH  15  16
HETATM   16  N2  UNL     1      16.519 -13.757  22.034  1.00  0.00    -0.272 N
HETATM   17  C9  UNL     1      16.296 -12.520  21.806  1.00  0.00     0.036 C
HETATM   18  C10 UNL     1      17.389 -11.587  21.450  1.00  0.00     0.058 C
HETATM   19  C16 UNL     1      14.923 -11.971  21.893  1.00  0.00     0.291 C
HETATM   20  C11 UNL     1      17.018 -10.897  20.166  1.00  0.00     0.034 C
HETATM   21  C12 UNL     1      15.595 -11.093  19.758  1.00  0.00     0.238 C
HETATM   22  N3  UNL     1      14.660 -11.026  20.850  1.00  0.00    -0.062 N
HETATM   23  C13 UNL     1      13.305 -11.246  20.321  1.00  0.00     0.239 C
HETATM   24  C15 UNL     1      14.241  -9.725  21.272  1.00  0.00     0.239 C
HETATM   25  C14 UNL     1      13.032  -9.769  20.360  1.00  0.00     0.056 C
ATOM     26  H2  UNL     1      15.704 -14.322  22.272  1.00  0.00     0.193 HD
ENDBRANCH  15  16
ENDBRANCH   1  15
TORSDOF 6
ENDMDL