MODEL 1
REMARK VINA RESULT: -6.726742932      0.000      0.000
REMARK  9 active torsions:
REMARK  status: ('A' for Active; 'I' for Inactive)
REMARK    1  A    between atoms: N1_2  and  C3_4
REMARK    2  A    between atoms: C3_4  and  N2_6
REMARK    3  A    between atoms: N2_6  and  C4_8
REMARK    4  A    between atoms: C4_8  and  C5_9
REMARK    5  A    between atoms: C5_9  and  C6_10
REMARK    6  A    between atoms: C6_10  and  C7_11
REMARK    7  A    between atoms: C7_11  and  C8_12
REMARK    8  A    between atoms: C8_12  and  C9_13
REMARK    9  A    between atoms: C9_13  and  N4_17
ROOT
HETATM    1  C9  UNL     1      16.330 -12.857  20.294  1.00  0.00     0.074 C
HETATM    2  N3  UNL     1      16.865 -13.957  20.758  1.00  0.00    -0.389 N
ATOM      3  H31 UNL     1      16.274 -14.641  21.230  1.00  0.00     0.157 HD
ATOM      4  H32 UNL     1      17.866 -14.082  20.600  1.00  0.00     0.157 HD
ENDROOT
BRANCH   1   5
HETATM    5  C8  UNL     1      17.180 -11.874  19.616  1.00  0.00     0.076 C
BRANCH   5   6
HETATM    6  C7  UNL     1      18.152 -11.155  20.456  1.00  0.00     0.007 C
BRANCH   6   7
HETATM    7  C6  UNL     1      19.577 -11.159  20.124  1.00  0.00     0.002 C
BRANCH   7   8
HETATM    8  C5  UNL     1      20.351 -12.392  20.076  1.00  0.00     0.020 C
BRANCH   8   9
HETATM    9  C4  UNL     1      20.350 -13.331  21.207  1.00  0.00     0.122 C
BRANCH   9  10
HETATM   10  N2  UNL     1      21.211 -12.741  22.267  1.00  0.00    -0.367 N
ATOM     11  H2  UNL     1      22.101 -12.290  22.056  1.00  0.00     0.161 HD
BRANCH  10  12
HETATM   12  C3  UNL     1      20.710 -12.850  23.591  1.00  0.00     0.169 C
HETATM   13  S1  UNL     1      19.203 -13.391  23.896  1.00  0.00    -0.041 SA
BRANCH  12  14
HETATM   14  N1  UNL     1      21.589 -12.460  24.655  1.00  0.00    -0.367 N
HETATM   15  C1  UNL     1      23.016 -12.660  24.440  1.00  0.00     0.151 C
HETATM   16  C2  UNL     1      21.073 -11.893  25.884  1.00  0.00     0.151 C
ENDBRANCH  12  14
ENDBRANCH  10  12
ENDBRANCH   9  10
ENDBRANCH   8   9
ENDBRANCH   7   8
ENDBRANCH   6   7
ENDBRANCH   5   6
ENDBRANCH   1   5
BRANCH   1  17
HETATM   17  N4  UNL     1      14.954 -12.686  20.510  1.00  0.00    -0.346 N
HETATM   18  C10 UNL     1      13.902 -12.439  19.543  1.00  0.00     0.154 C
HETATM   19  C11 UNL     1      12.859 -11.671  20.349  1.00  0.00     0.259 C
HETATM   20  N5  UNL     1      13.460 -11.474  21.620  1.00  0.00    -0.046 N
HETATM   21  C12 UNL     1      12.528 -11.305  22.707  1.00  0.00     0.265 C
HETATM   22  C15 UNL     1      14.406 -10.376  21.643  1.00  0.00     0.265 C
HETATM   23  C16 UNL     1      14.242 -12.702  21.812  1.00  0.00     0.363 C
HETATM   24  C13 UNL     1      11.866  -9.958  22.560  1.00  0.00     0.195 C
HETATM   25  O1  UNL     1      12.853  -8.981  22.766  1.00  0.00    -0.388 OA
HETATM   26  C14 UNL     1      13.707  -9.035  21.665  1.00  0.00     0.195 C
ENDBRANCH   1  17
TORSDOF 9
ENDMDL