MODEL 2
REMARK VINA RESULT: -8.127111184      0.060      1.694
REMARK  8 active torsions:
REMARK  status: ('A' for Active; 'I' for Inactive)
REMARK    1  A    between atoms: C2_2  and  N1_3
REMARK    2  A    between atoms: N1_3  and  C3_5
REMARK    3  A    between atoms: C6_10  and  N3_11
REMARK    4  A    between atoms: N3_11  and  S1_13
REMARK    5  A    between atoms: S1_13  and  C7_16
REMARK    6  A    between atoms: C7_16  and  C8_17
REMARK    7  A    between atoms: C8_17  and  C9_18
REMARK    8  A    between atoms: C9_18  and  N4_19
ROOT
HETATM    1  S1  UNL     1      16.031 -11.014  19.164  1.00  0.00     0.244 S
HETATM    2  O1  UNL     1      16.637 -10.784  17.816  1.00  0.00    -0.205 OA
HETATM    3  O2  UNL     1      16.622  -9.994  20.096  1.00  0.00    -0.205 OA
ENDROOT
BRANCH   1   4
HETATM    4  N3  UNL     1      14.326 -10.813  19.171  1.00  0.00    -0.116 N
ATOM      5  H3  UNL     1      13.842 -10.767  18.275  1.00  0.00     0.197 HD
BRANCH   4   6
HETATM    6  C6  UNL     1      13.633 -10.717  20.235  1.00  0.00     0.693 A
HETATM    7  N2  UNL     1      12.746 -11.726  20.481  1.00  0.00    -0.201 N
HETATM    8  C5  UNL     1      11.967 -11.721  21.576  1.00  0.00     0.110 A
ATOM      9  H2  UNL     1      12.674 -12.500  19.820  1.00  0.00     0.183 HD
HETATM   10  C4  UNL     1      12.076 -10.668  22.463  1.00  0.00     0.066 A
HETATM   11  C3  UNL     1      12.964  -9.646  22.228  1.00  0.00     0.118 A
HETATM   12  N5  UNL     1      13.715  -9.712  21.112  1.00  0.00    -0.176 N
ATOM     13  H5  UNL     1      14.377  -8.959  20.928  1.00  0.00     0.186 HD
BRANCH  11  14
HETATM   14  N1  UNL     1      13.057  -8.669  23.061  1.00  0.00    -0.376 N
ATOM     15  H1  UNL     1      13.886  -8.076  23.053  1.00  0.00     0.161 HD
BRANCH  14  16
HETATM   16  C2  UNL     1      12.010  -8.406  23.999  1.00  0.00     0.116 C
HETATM   17  C1  UNL     1      12.181  -7.016  24.575  1.00  0.00     0.026 C
ENDBRANCH  14  16
ENDBRANCH  11  14
ENDBRANCH   4   6
ENDBRANCH   1   4
BRANCH   1  18
HETATM   18  C7  UNL     1      16.451 -12.659  19.685  1.00  0.00     0.165 C
BRANCH  18  19
HETATM   19  C8  UNL     1      16.989 -12.652  21.119  1.00  0.00     0.037 C
BRANCH  19  20
HETATM   20  C9  UNL     1      18.030 -13.744  21.180  1.00  0.00     0.130 C
BRANCH  20  21
HETATM   21  N4  UNL     1      19.144 -13.443  22.023  1.00  0.00    -0.355 N
HETATM   22  C10 UNL     1      19.117 -13.894  23.303  1.00  0.00     0.008 A
HETATM   23  C11 UNL     1      18.020 -14.677  23.885  1.00  0.00     0.068 C
HETATM   24  C12 UNL     1      20.195 -13.608  24.139  1.00  0.00     0.031 A
HETATM   25  C13 UNL     1      21.277 -12.882  23.694  1.00  0.00    -0.058 A
HETATM   26  C14 UNL     1      22.439 -12.564  24.565  1.00  0.00     0.048 C
HETATM   27  C15 UNL     1      21.267 -12.446  22.406  1.00  0.00     0.031 A
HETATM   28  C16 UNL     1      20.195 -12.731  21.575  1.00  0.00     0.008 A
HETATM   29  C17 UNL     1      20.253 -12.220  20.169  1.00  0.00     0.068 C
ENDBRANCH  20  21
ENDBRANCH  19  20
ENDBRANCH  18  19
ENDBRANCH   1  18
TORSDOF 8
ENDMDL