MODEL 1
REMARK VINA RESULT: -7.351010334      0.000      0.000
REMARK  6 active torsions:
REMARK  status: ('A' for Active; 'I' for Inactive)
REMARK    1  A    between atoms: C2_2  and  C3_3
REMARK    2  A    between atoms: N2_13  and  C11_15
REMARK    3  A    between atoms: C11_15  and  C12_16
REMARK    4  A    between atoms: C12_16  and  N3_17
REMARK    5  A    between atoms: N3_17  and  S1_19
REMARK    6  A    between atoms: S1_19  and  N4_22
ROOT
HETATM    1  C11 UNL     1      17.625 -13.257  22.475  1.00  0.00     0.258 C
ENDROOT
BRANCH   1   2
HETATM    2  N2  UNL     1      18.527 -14.356  22.569  1.00  0.00    -0.059 N
HETATM    3  C2  UNL     1      19.206 -14.339  23.803  1.00  0.00     0.154 C
HETATM    4  C1  UNL     1      18.151 -14.129  24.906  1.00  0.00     0.049 C
HETATM    5  C7  UNL     1      19.688 -15.758  24.008  1.00  0.00     0.043 C
HETATM    6  C8  UNL     1      18.469 -16.535  23.537  1.00  0.00     0.030 C
HETATM    7  C9  UNL     1      17.704 -15.575  22.690  1.00  0.00     0.238 C
HETATM    8  C10 UNL     1      19.336 -14.556  21.403  1.00  0.00     0.273 C
BRANCH   3   9
HETATM    9  C3  UNL     1      20.227 -13.311  24.055  1.00  0.00     0.221 C
HETATM   10  C4  UNL     1      21.644 -13.662  23.958  1.00  0.00     0.037 C
HETATM   11  C5  UNL     1      22.314 -12.558  24.782  1.00  0.00     0.029 C
HETATM   12  C6  UNL     1      21.164 -11.934  25.570  1.00  0.00     0.233 C
HETATM   13  N1  UNL     1      20.087 -12.902  25.464  1.00  0.00    -0.069 N
ATOM     14  H12 UNL     1      19.163 -12.565  25.736  1.00  0.00     0.277 HD
ATOM     15  H11 UNL     1      20.106 -13.659  26.147  1.00  0.00     0.277 HD
ENDBRANCH   3   9
ENDBRANCH   1   2
BRANCH   1  16
HETATM   16  C12 UNL     1      17.674 -12.547  21.146  1.00  0.00     0.161 C
BRANCH  16  17
HETATM   17  N3  UNL     1      17.188 -11.183  21.244  1.00  0.00    -0.301 N
ATOM     18  H3  UNL     1      17.562 -10.449  21.845  1.00  0.00     0.173 HD
BRANCH  17  19
HETATM   19  S1  UNL     1      15.862 -11.032  20.157  1.00  0.00     0.317 S
HETATM   20  O1  UNL     1      15.150  -9.738  20.514  1.00  0.00    -0.183 OA
HETATM   21  O2  UNL     1      16.344 -10.872  18.748  1.00  0.00    -0.183 OA
BRANCH  19  22
HETATM   22  N4  UNL     1      14.748 -12.295  20.243  1.00  0.00    -0.291 N
HETATM   23  C13 UNL     1      14.307 -12.816  18.992  1.00  0.00     0.164 C
HETATM   24  C14 UNL     1      13.264 -13.885  19.236  1.00  0.00     0.257 C
HETATM   25  N5  UNL     1      13.433 -14.504  20.542  1.00  0.00    -0.072 N
HETATM   26  C15 UNL     1      14.744 -15.121  20.609  1.00  0.00     0.272 C
HETATM   27  C16 UNL     1      12.441 -15.573  20.631  1.00  0.00     0.272 C
HETATM   28  C17 UNL     1      13.274 -13.557  21.625  1.00  0.00     0.257 C
HETATM   29  C18 UNL     1      13.733 -12.161  21.238  1.00  0.00     0.164 C
ENDBRANCH  19  22
ENDBRANCH  17  19
ENDBRANCH  16  17
ENDBRANCH   1  16
TORSDOF 6
ENDMDL