MODEL 1
REMARK VINA RESULT: -6.827512159      0.000      0.000
REMARK  11 active torsions:
REMARK  status: ('A' for Active; 'I' for Inactive)
REMARK    1  A    between atoms: C3_3  and  C4_4
REMARK    2  A    between atoms: C4_4  and  C5_5
REMARK    3  A    between atoms: C5_5  and  C6_6
REMARK    4  A    between atoms: C6_6  and  N1_7
REMARK    5  A    between atoms: N2_10  and  C9_11
REMARK    6  A    between atoms: C9_11  and  C10_12
REMARK    7  A    between atoms: C11_13  and  C12_14
REMARK    8  A    between atoms: C13_15  and  C14_16
REMARK    9  A    between atoms: C14_16  and  N3_17
REMARK   10  A    between atoms: N3_17  and  C15_18
REMARK   11  A    between atoms: C15_18  and  N4_20
ROOT
HETATM    1  C1  UNL     1      11.914  -7.154  24.636  1.00  0.00     0.012 C
HETATM    2  C2  UNL     1      12.231  -8.074  23.920  1.00  0.00    -0.117 C
HETATM    3  C3  UNL     1      12.616  -9.176  23.028  1.00  0.00     0.093 C
ENDROOT
BRANCH   3   4
HETATM    4  C4  UNL     1      11.757 -10.371  23.408  1.00  0.00     0.014 C
BRANCH   4   5
HETATM    5  C5  UNL     1      11.793 -11.330  22.236  1.00  0.00     0.021 C
BRANCH   5   6
HETATM    6  C6  UNL     1      12.309 -10.620  21.011  1.00  0.00     0.141 C
BRANCH   6   7
HETATM    7  N1  UNL     1      13.314 -11.422  20.322  1.00  0.00    -0.217 N
HETATM    8  C7  UNL     1      13.164 -12.706  19.706  1.00  0.00     0.161 C
HETATM    9  C8  UNL     1      14.450 -12.956  18.994  1.00  0.00     0.162 C
HETATM   10  N2  UNL     1      15.405 -12.000  19.495  1.00  0.00    -0.206 N
HETATM   11  C19 UNL     1      14.660 -11.007  20.159  1.00  0.00     0.672 C
HETATM   12  N6  UNL     1      15.172  -9.868  20.558  1.00  0.00    -0.235 N
ATOM     13  H62 UNL     1      14.632  -9.148  21.038  1.00  0.00     0.174 HD
ATOM     14  H61 UNL     1      16.140  -9.569  20.441  1.00  0.00     0.174 HD
BRANCH  10  15
HETATM   15  C9  UNL     1      16.825 -12.051  19.352  1.00  0.00     0.236 C
BRANCH  15  16
HETATM   16  C10 UNL     1      17.473 -12.532  20.599  1.00  0.00    -0.072 C
HETATM   17  C11 UNL     1      17.997 -12.903  21.621  1.00  0.00    -0.013 C
BRANCH  17  18
HETATM   18  C12 UNL     1      18.613 -13.315  22.832  1.00  0.00    -0.013 C
HETATM   19  C13 UNL     1      19.130 -13.647  23.876  1.00  0.00    -0.062 C
BRANCH  19  20
HETATM   20  C14 UNL     1      19.761 -14.026  25.149  1.00  0.00     0.366 C
BRANCH  20  21
HETATM   21  N3  UNL     1      21.048 -13.343  25.315  1.00  0.00     0.094 N
HETATM   22  C18 UNL     1      21.036 -11.938  25.382  1.00  0.00     0.413 A
HETATM   23  N5  UNL     1      21.249 -12.647  26.547  1.00  0.00    -0.006 NA
BRANCH  21  24
HETATM   24  C15 UNL     1      22.197 -14.037  24.891  1.00  0.00     0.297 C
HETATM   25  S1  UNL     1      23.403 -13.241  24.123  1.00  0.00    -0.032 SA
BRANCH  24  26
HETATM   26  N4  UNL     1      22.304 -15.423  25.132  1.00  0.00    -0.359 N
HETATM   27  C16 UNL     1      22.458 -15.904  26.484  1.00  0.00     0.151 C
HETATM   28  C17 UNL     1      22.264 -16.394  24.044  1.00  0.00     0.151 C
ENDBRANCH  24  26
ENDBRANCH  21  24
ENDBRANCH  20  21
ENDBRANCH  19  20
ENDBRANCH  17  18
ENDBRANCH  15  16
ENDBRANCH  10  15
ENDBRANCH   6   7
ENDBRANCH   5   6
ENDBRANCH   4   5
ENDBRANCH   3   4
TORSDOF 11
ENDMDL