MODEL 2
REMARK VINA RESULT: -7.010183185      1.222      1.686
REMARK  6 active torsions:
REMARK  status: ('A' for Active; 'I' for Inactive)
REMARK    1  A    between atoms: N1_2  and  C4_5
REMARK    2  A    between atoms: C4_5  and  C5_6
REMARK    3  A    between atoms: C9_10  and  C10_11
REMARK    4  A    between atoms: N3_14  and  C11_15
REMARK    5  A    between atoms: C11_15  and  C12_16
REMARK    6  A    between atoms: C12_16  and  N4_17
ROOT
HETATM    1  C5  UNL     1      15.783 -13.138  20.091  1.00  0.00     0.024 C
HETATM    2  C6  UNL     1      15.181 -11.950  20.694  1.00  0.00     0.016 C
HETATM    3  C7  UNL     1      16.322 -10.921  20.614  1.00  0.00     0.037 C
HETATM    4  C8  UNL     1      17.481 -11.637  19.952  1.00  0.00     0.236 C
HETATM    5  C9  UNL     1      16.683 -12.542  18.994  1.00  0.00     0.120 C
HETATM    6  N3  UNL     1      18.003 -12.668  20.776  1.00  0.00     0.096 N
HETATM    7  C20 UNL     1      16.914 -13.538  21.073  1.00  0.00     0.285 C
ENDROOT
BRANCH   6   8
HETATM    8  C11 UNL     1      18.860 -12.295  21.831  1.00  0.00     0.301 C
BRANCH   8   9
HETATM    9  C12 UNL     1      19.835 -13.416  22.053  1.00  0.00     0.279 C
BRANCH   9  10
HETATM   10  N4  UNL     1      20.345 -13.548  23.370  1.00  0.00     0.015 N
HETATM   11  C13 UNL     1      19.611 -12.877  24.397  1.00  0.00     0.250 C
HETATM   12  C14 UNL     1      20.158 -13.208  25.748  1.00  0.00     0.035 C
HETATM   13  C15 UNL     1      21.632 -13.420  25.801  1.00  0.00     0.007 C
HETATM   14  C16 UNL     1      22.301 -12.723  24.644  1.00  0.00     0.035 C
HETATM   15  C18 UNL     1      22.024 -14.894  25.750  1.00  0.00     0.129 C
HETATM   16  C17 UNL     1      21.739 -13.080  23.316  1.00  0.00     0.250 C
HETATM   17  N5  UNL     1      21.086 -15.522  24.824  1.00  0.00    -0.336 N
HETATM   18  C19 UNL     1      20.399 -14.932  23.718  1.00  0.00     0.415 C
ATOM     19  H5  UNL     1      20.895 -16.510  24.988  1.00  0.00     0.164 HD
HETATM   20  O2  UNL     1      19.794 -15.772  23.010  1.00  0.00    -0.239 OA
ENDBRANCH   9  10
ENDBRANCH   8   9
ENDBRANCH   6   8
BRANCH   5  21
HETATM   21  C10 UNL     1      16.020 -11.838  17.944  1.00  0.00     0.238 C
HETATM   22  N2  UNL     1      16.689 -10.765  17.291  1.00  0.00    -0.062 NA
HETATM   23  O1  UNL     1      14.854 -12.070  17.509  1.00  0.00    -0.276 OA
ENDBRANCH   5  21
BRANCH   1  24
HETATM   24  C4  UNL     1      15.019 -14.268  19.608  1.00  0.00     0.248 C
BRANCH  24  25
HETATM   25  N1  UNL     1      13.772 -14.660  20.077  1.00  0.00    -0.078 N
HETATM   26  C1  UNL     1      12.685 -13.724  19.720  1.00  0.00     0.271 C
HETATM   27  C2  UNL     1      13.609 -14.979  21.468  1.00  0.00     0.271 C
HETATM   28  C3  UNL     1      13.382 -15.896  19.365  1.00  0.00     0.271 C
ENDBRANCH  24  25
ENDBRANCH   1  24
TORSDOF 6
ENDMDL