MODEL 2
REMARK VINA RESULT: -7.744548100      1.042      1.249
REMARK  7 active torsions:
REMARK  status: ('A' for Active; 'I' for Inactive)
REMARK    1  A    between atoms: N1_1  and  C1_5
REMARK    2  A    between atoms: S1_8  and  C4_9
REMARK    3  A    between atoms: C4_9  and  C5_10
REMARK    4  A    between atoms: C5_10  and  C6_11
REMARK    5  A    between atoms: C6_11  and  N2_12
REMARK    6  A    between atoms: N3_15  and  C9_16
REMARK    7  A    between atoms: C9_16  and  C10_17
ROOT
HETATM    1  C1  UNL     1      21.304 -13.453  23.432  1.00  0.00     0.130 C
HETATM    2  C2  UNL     1      20.821 -13.131  22.077  1.00  0.00     0.048 C
HETATM    3  C3  UNL     1      19.951 -14.323  21.643  1.00  0.00     0.066 C
HETATM    4  S1  UNL     1      18.575 -14.549  22.750  1.00  0.00    -0.219 SA
HETATM    5  C14 UNL     1      19.264 -14.445  24.415  1.00  0.00     0.071 C
HETATM    6  C15 UNL     1      20.118 -13.243  24.393  1.00  0.00     0.038 C
HETATM    7  C16 UNL     1      21.107 -12.936  25.388  1.00  0.00    -0.031 A
HETATM    8  C17 UNL     1      20.993 -12.345  26.693  1.00  0.00     0.011 A
HETATM    9  C18 UNL     1      21.639 -13.730  26.459  1.00  0.00     0.011 A
HETATM   10  C19 UNL     1      21.947 -12.334  24.259  1.00  0.00     0.049 C
ENDROOT
BRANCH   4  11
HETATM   11  C4  UNL     1      17.416 -13.201  22.576  1.00  0.00     0.065 C
BRANCH  11  12
HETATM   12  C5  UNL     1      17.229 -12.813  21.143  1.00  0.00     0.037 C
BRANCH  12  13
HETATM   13  C6  UNL     1      16.211 -13.577  20.407  1.00  0.00     0.240 C
BRANCH  13  14
HETATM   14  N2  UNL     1      14.986 -12.977  20.069  1.00  0.00    -0.040 N
HETATM   15  C7  UNL     1      14.102 -13.825  19.330  1.00  0.00     0.267 C
HETATM   16  C8  UNL     1      12.683 -13.461  19.810  1.00  0.00     0.268 C
HETATM   17  N3  UNL     1      12.958 -12.271  20.545  1.00  0.00    -0.030 N
HETATM   18  C11 UNL     1      13.515 -11.273  19.687  1.00  0.00     0.268 C
HETATM   19  C13 UNL     1      14.165 -12.709  21.279  1.00  0.00     0.473 C
HETATM   20  C12 UNL     1      14.990 -11.675  19.497  1.00  0.00     0.267 C
BRANCH  17  21
HETATM   21  C9  UNL     1      11.951 -11.813  21.437  1.00  0.00     0.352 C
BRANCH  21  22
HETATM   22  C10 UNL     1      12.171 -10.462  21.971  1.00  0.00     0.199 C
HETATM   23  O1  UNL     1      12.685 -10.316  23.109  1.00  0.00    -0.647 OA
HETATM   24  O2  UNL     1      11.809  -9.366  21.209  1.00  0.00    -0.647 OA
ENDBRANCH  21  22
ENDBRANCH  17  21
ENDBRANCH  13  14
ENDBRANCH  12  13
ENDBRANCH  11  12
ENDBRANCH   4  11
BRANCH   1  25
HETATM   25  N1  UNL     1      22.040 -14.652  23.640  1.00  0.00    -0.070 N
ATOM     26  H13 UNL     1      22.992 -14.513  23.304  1.00  0.00     0.275 HD
ATOM     27  H12 UNL     1      22.195 -14.772  24.641  1.00  0.00     0.275 HD
ATOM     28  H11 UNL     1      21.683 -15.528  23.258  1.00  0.00     0.275 HD
ENDBRANCH   1  25
TORSDOF 7
ENDMDL