MODEL 3
REMARK VINA RESULT: -7.437836679      1.578      2.967
REMARK  7 active torsions:
REMARK  status: ('A' for Active; 'I' for Inactive)
REMARK    1  A    between atoms: N2_8  and  C7_9
REMARK    2  A    between atoms: N2_8  and  C10_13
REMARK    3  A    between atoms: C7_9  and  C8_10
REMARK    4  A    between atoms: C8_10  and  O1_11
REMARK    5  A    between atoms: C10_13  and  C11_14
REMARK    6  A    between atoms: C11_14  and  C12_15
REMARK    7  A    between atoms: N5_28  and  O3_29
ROOT
HETATM    1  C12 UNL     1      17.653 -14.074  22.329  1.00  0.00     0.016 A
HETATM    2  C13 UNL     1      18.909 -13.728  21.880  1.00  0.00     0.055 A
HETATM    3  C14 UNL     1      19.955 -13.489  22.738  1.00  0.00     0.052 A
HETATM    4  N3  UNL     1      21.245 -13.142  22.518  1.00  0.00    -0.339 N
ATOM      5  H3  UNL     1      21.684 -12.989  21.610  1.00  0.00     0.167 HD
HETATM    6  C15 UNL     1      21.841 -13.035  23.720  1.00  0.00     0.145 A
HETATM    7  C16 UNL     1      20.937 -13.314  24.714  1.00  0.00     0.046 A
HETATM    8  C17 UNL     1      19.752 -13.597  24.077  1.00  0.00     0.074 A
HETATM    9  C18 UNL     1      18.490 -13.946  24.533  1.00  0.00     0.259 A
HETATM   10  O2  UNL     1      18.342 -14.036  25.780  1.00  0.00    -0.267 OA
HETATM   11  N4  UNL     1      17.483 -14.173  23.658  1.00  0.00    -0.326 N
ATOM     12  H4  UNL     1      16.564 -14.428  24.020  1.00  0.00     0.169 HD
HETATM   13  C19 UNL     1      21.900 -13.098  25.597  1.00  0.00     0.141 A
HETATM   14  N5  UNL     1      22.827 -12.812  24.545  1.00  0.00    -0.217 N
ENDROOT
BRANCH   1  15
HETATM   15  C11 UNL     1      16.558 -14.321  21.355  1.00  0.00     0.085 C
BRANCH  15  16
HETATM   16  C10 UNL     1      16.732 -13.549  20.096  1.00  0.00     0.252 C
BRANCH  16  17
HETATM   17  N2  UNL     1      15.732 -12.587  19.790  1.00  0.00    -0.011 N
HETATM   18  C2  UNL     1      14.982 -12.889  18.622  1.00  0.00     0.296 C
HETATM   19  C1  UNL     1      13.946 -13.697  18.590  1.00  0.00     0.079 C
HETATM   20  N1  UNL     1      15.509 -12.194  17.506  1.00  0.00    -0.021 N
HETATM   21  C3  UNL     1      15.749 -13.066  16.373  1.00  0.00     0.281 C
HETATM   22  C4  UNL     1      14.650 -11.126  17.050  1.00  0.00     0.281 C
HETATM   23  C5  UNL     1      16.743 -11.623  17.950  1.00  0.00     0.273 C
HETATM   24  C6  UNL     1      16.483 -11.372  19.420  1.00  0.00     0.274 C
BRANCH  17  25
HETATM   25  C7  UNL     1      14.948 -12.263  20.932  1.00  0.00     0.272 C
BRANCH  25  26
HETATM   26  C8  UNL     1      14.669 -10.823  21.168  1.00  0.00     0.195 C
BRANCH  26  27
HETATM   27  O1  UNL     1      13.694 -10.774  22.197  1.00  0.00    -0.394 OA
HETATM   28  C9  UNL     1      13.117  -9.507  22.211  1.00  0.00     0.201 C
ENDBRANCH  26  27
ENDBRANCH  25  26
ENDBRANCH  17  25
ENDBRANCH  16  17
ENDBRANCH  15  16
ENDBRANCH   1  15
BRANCH  14  29
HETATM   29  O3  UNL     1      24.151 -12.461  24.433  1.00  0.00    -0.281 OA
ATOM     30  H3  UNL     1      24.985 -12.911  24.494  1.00  0.00     0.245 HD
ENDBRANCH  14  29
TORSDOF 7
ENDMDL