MODEL 1
REMARK VINA RESULT: -7.448712417      0.000      0.000
REMARK  6 active torsions:
REMARK  status: ('A' for Active; 'I' for Inactive)
REMARK    1  A    between atoms: C4_4  and  N1_5
REMARK       I    between atoms: N1_5  and  C6_7
REMARK    2  A    between atoms: C6_7  and  C7_9
REMARK    3  A    between atoms: C7_9  and  N2_10
REMARK    4  A    between atoms: N3_15  and  C13_17
REMARK    5  A    between atoms: C13_17  and  C14_18
REMARK    6  A    between atoms: C14_18  and  C15_19
ROOT
HETATM    1  C1  UNL     1      14.910 -14.329  20.863  1.00  0.00     0.040 C
HETATM    2  C2  UNL     1      16.056 -13.697  20.153  1.00  0.00     0.188 C
HETATM    3  C3  UNL     1      17.338 -14.186  20.819  1.00  0.00     0.060 C
HETATM    4  C4  UNL     1      17.998 -12.965  21.413  1.00  0.00     0.114 C
HETATM    5  C11 UNL     1      16.792 -12.021  21.516  1.00  0.00     0.262 C
HETATM    6  N3  UNL     1      16.158 -12.282  20.261  1.00  0.00    -0.065 N
HETATM    7  C12 UNL     1      17.064 -11.841  19.215  1.00  0.00     0.273 C
ENDROOT
BRANCH   6   8
HETATM    8  C13 UNL     1      14.896 -11.574  20.096  1.00  0.00     0.241 C
BRANCH   8   9
HETATM    9  C14 UNL     1      14.649 -10.576  21.148  1.00  0.00     0.057 C
BRANCH   9  10
HETATM   10  C15 UNL     1      13.453 -10.737  21.932  1.00  0.00     0.010 C
HETATM   11  C16 UNL     1      12.814  -9.968  22.764  1.00  0.00     0.101 A
HETATM   12  N4  UNL     1      13.071  -8.664  23.209  1.00  0.00    -0.304 N
HETATM   13  C18 UNL     1      11.551 -10.360  23.478  1.00  0.00     0.276 A
HETATM   14  C17 UNL     1      12.076  -8.201  24.146  1.00  0.00     0.327 A
ATOM     15  H4  UNL     1      13.870  -8.107  22.906  1.00  0.00     0.171 HD
HETATM   16  O2  UNL     1      12.009  -7.100  24.726  1.00  0.00    -0.247 OA
HETATM   17  N5  UNL     1      11.170  -9.262  24.282  1.00  0.00    -0.274 N
ATOM     18  H5  UNL     1      10.344  -9.244  24.881  1.00  0.00     0.173 HD
HETATM   19  O3  UNL     1      10.972 -11.465  23.359  1.00  0.00    -0.266 OA
ENDBRANCH   9  10
ENDBRANCH   8   9
ENDBRANCH   6   8
BRANCH   4  20
HETATM   20  N1  UNL     1      18.625 -13.202  22.672  1.00  0.00    -0.349 N
HETATM   21  C5  UNL     1      17.807 -13.577  23.813  1.00  0.00     0.153 C
HETATM   22  C6  UNL     1      20.028 -13.067  22.782  1.00  0.00     0.246 C
HETATM   23  O1  UNL     1      20.718 -12.744  21.794  1.00  0.00    -0.272 OA
BRANCH  22  24
HETATM   24  C7  UNL     1      20.679 -13.311  24.079  1.00  0.00     0.338 C
BRANCH  24  25
HETATM   25  N2  UNL     1      21.269 -14.632  24.110  1.00  0.00    -0.070 N
HETATM   26  C8  UNL     1      22.705 -14.468  24.180  1.00  0.00     0.272 C
HETATM   27  C9  UNL     1      20.931 -15.376  22.927  1.00  0.00     0.272 C
HETATM   28  C10 UNL     1      20.747 -15.298  25.292  1.00  0.00     0.272 C
ENDBRANCH  24  25
ENDBRANCH  22  24
ENDBRANCH   4  20
TORSDOF 6
ENDMDL