MODEL 5
REMARK VINA RESULT: -6.397764145      1.942      2.944
REMARK  11 active torsions:
REMARK  status: ('A' for Active; 'I' for Inactive)
REMARK    1  A    between atoms: C2_2  and  N1_3
REMARK    2  A    between atoms: N1_3  and  C4_5
REMARK    3  A    between atoms: N1_3  and  C13_15
REMARK    4  A    between atoms: C4_5  and  C5_6
REMARK    5  A    between atoms: C6_7  and  C7_8
REMARK    6  A    between atoms: C7_8  and  N2_9
REMARK    7  A    between atoms: C13_15  and  C14_16
REMARK    8  A    between atoms: C15_17  and  C16_18
REMARK    9  A    between atoms: C16_18  and  N3_19
REMARK   10  A    between atoms: N3_19  and  S1_21
REMARK   11  A    between atoms: S1_21  and  N4_22
ROOT
HETATM    1  N1  UNL     1      17.595 -12.391  20.175  1.00  0.00    -0.051 N
HETATM    2  C3  UNL     1      16.905 -12.211  18.888  1.00  0.00     0.274 C
ENDROOT
BRANCH   1   3
HETATM    3  C2  UNL     1      16.961 -11.535  21.148  1.00  0.00     0.234 C
HETATM    4  C1  UNL     1      16.009 -10.584  20.454  1.00  0.00     0.035 C
ENDBRANCH   1   3
BRANCH   1   5
HETATM    5  C4  UNL     1      18.975 -12.050  19.947  1.00  0.00     0.331 C
BRANCH   5   6
HETATM    6  C5  UNL     1      19.765 -12.555  21.085  1.00  0.00    -0.077 C
HETATM    7  C6  UNL     1      20.405 -12.959  22.024  1.00  0.00    -0.077 C
BRANCH   7   8
HETATM    8  C7  UNL     1      21.183 -13.431  23.167  1.00  0.00     0.330 C
BRANCH   8   9
HETATM    9  N2  UNL     1      20.411 -14.231  24.081  1.00  0.00    -0.061 N
HETATM   10  C8  UNL     1      21.271 -14.943  25.009  1.00  0.00     0.273 C
HETATM   11  C9  UNL     1      19.525 -13.340  24.801  1.00  0.00     0.238 C
HETATM   12  C10 UNL     1      18.197 -14.051  24.922  1.00  0.00     0.029 C
HETATM   13  C11 UNL     1      18.374 -15.375  24.227  1.00  0.00     0.029 C
HETATM   14  C12 UNL     1      19.581 -15.138  23.347  1.00  0.00     0.238 C
ENDBRANCH   8   9
ENDBRANCH   7   8
ENDBRANCH   5   6
ENDBRANCH   1   5
BRANCH   1  15
HETATM   15  C13 UNL     1      17.403 -13.754  20.561  1.00  0.00     0.331 C
BRANCH  15  16
HETATM   16  C14 UNL     1      16.003 -14.056  20.735  1.00  0.00    -0.076 C
HETATM   17  C15 UNL     1      14.827 -14.294  20.896  1.00  0.00    -0.072 C
BRANCH  17  18
HETATM   18  C16 UNL     1      13.393 -14.570  21.114  1.00  0.00     0.105 A
HETATM   19  C17 UNL     1      13.064 -16.078  21.125  1.00  0.00     0.048 A
HETATM   20  C18 UNL     1      12.644 -15.145  19.989  1.00  0.00     0.048 A
BRANCH  18  21
HETATM   21  N3  UNL     1      12.808 -13.860  22.191  1.00  0.00    -0.282 N
ATOM     22  H3  UNL     1      12.618 -14.308  23.087  1.00  0.00     0.175 HD
BRANCH  21  23
HETATM   23  S1  UNL     1      12.441 -12.241  21.920  1.00  0.00     0.314 S
HETATM   24  O1  UNL     1      13.577 -11.374  22.443  1.00  0.00    -0.183 OA
HETATM   25  O2  UNL     1      12.342 -11.955  20.451  1.00  0.00    -0.183 OA
BRANCH  23  26
HETATM   26  N4  UNL     1      11.003 -11.694  22.666  1.00  0.00    -0.312 N
ATOM     27  H42 UNL     1      10.251 -12.336  22.915  1.00  0.00     0.170 HD
ATOM     28  H41 UNL     1      10.964 -10.690  22.838  1.00  0.00     0.170 HD
ENDBRANCH  23  26
ENDBRANCH  21  23
ENDBRANCH  18  21
ENDBRANCH  17  18
ENDBRANCH  15  16
ENDBRANCH   1  15
TORSDOF 11
ENDMDL