MODEL 5
REMARK VINA RESULT: -7.506678854      1.266      1.270
REMARK  6 active torsions:
REMARK  status: ('A' for Active; 'I' for Inactive)
REMARK    1  A    between atoms: C4_4  and  N1_5
REMARK    2  A    between atoms: N2_8  and  C7_9
REMARK    3  A    between atoms: C7_9  and  C8_10
REMARK       I    between atoms: C8_10  and  N3_12
REMARK    4  A    between atoms: N3_12  and  C9_14
REMARK    5  A    between atoms: C9_14  and  C10_15
REMARK    6  A    between atoms: C10_15  and  N4_16
ROOT
HETATM    1  N1  UNL     1      13.179 -11.619  21.369  1.00  0.00    -0.056 N
HETATM    2  C5  UNL     1      12.946 -13.024  21.687  1.00  0.00     0.266 C
HETATM    3  C6  UNL     1      14.227 -13.798  21.412  1.00  0.00     0.271 C
HETATM    4  N2  UNL     1      14.982 -13.161  20.382  1.00  0.00    -0.037 N
HETATM    5  C16 UNL     1      13.996 -12.719  19.375  1.00  0.00     0.271 C
HETATM    6  C17 UNL     1      13.195 -11.575  19.905  1.00  0.00     0.266 C
HETATM    7  C18 UNL     1      15.550 -11.899  20.911  1.00  0.00     0.271 C
HETATM    8  C19 UNL     1      14.533 -11.308  21.862  1.00  0.00     0.266 C
ENDROOT
BRANCH   4   9
HETATM    9  C7  UNL     1      16.035 -13.880  19.796  1.00  0.00     0.276 C
BRANCH   9  10
HETATM   10  C8  UNL     1      16.895 -14.731  20.596  1.00  0.00     0.264 C
HETATM   11  O1  UNL     1      16.833 -15.960  20.571  1.00  0.00    -0.267 OA
HETATM   12  N3  UNL     1      17.853 -14.112  21.444  1.00  0.00    -0.355 N
ATOM     13  H3  UNL     1      17.900 -13.094  21.466  1.00  0.00     0.162 HD
BRANCH  12  14
HETATM   14  C9  UNL     1      18.759 -14.861  22.271  1.00  0.00     0.151 C
BRANCH  14  15
HETATM   15  C10 UNL     1      19.928 -14.046  22.706  1.00  0.00     0.256 C
BRANCH  15  16
HETATM   16  N4  UNL     1      20.335 -14.287  24.060  1.00  0.00    -0.069 N
HETATM   17  C11 UNL     1      20.017 -15.639  24.483  1.00  0.00     0.272 C
HETATM   18  C12 UNL     1      21.782 -14.157  24.135  1.00  0.00     0.237 C
HETATM   19  C13 UNL     1      22.100 -12.766  24.566  1.00  0.00     0.029 C
HETATM   20  C14 UNL     1      20.815 -12.269  25.189  1.00  0.00     0.029 C
HETATM   21  C15 UNL     1      19.805 -13.391  25.038  1.00  0.00     0.237 C
ENDBRANCH  15  16
ENDBRANCH  14  15
ENDBRANCH  12  14
ENDBRANCH   9  10
ENDBRANCH   4   9
BRANCH   1  22
HETATM   22  C4  UNL     1      12.289 -10.708  21.969  1.00  0.00     0.218 C
HETATM   23  C3  UNL     1      12.928  -9.421  22.470  1.00  0.00     0.067 C
HETATM   24  C2  UNL     1      11.762  -8.842  23.261  1.00  0.00     0.184 C
HETATM   25  C1  UNL     1      12.238  -7.926  24.351  1.00  0.00     0.040 C
HETATM   26  N5  UNL     1      10.979  -9.950  23.736  1.00  0.00    -0.069 N
HETATM   27  C20 UNL     1      11.585 -11.171  23.213  1.00  0.00     0.266 C
ATOM     28  H52 UNL     1      10.877  -9.959  24.751  1.00  0.00     0.277 HD
ATOM     29  H51 UNL     1       9.989  -9.866  23.503  1.00  0.00     0.277 HD
ENDBRANCH   1  22
TORSDOF 6
ENDMDL