MODEL 3
REMARK VINA RESULT: -7.034994298      2.176      5.567
REMARK  7 active torsions:
REMARK  status: ('A' for Active; 'I' for Inactive)
REMARK    1  A    between atoms: C3_3  and  N1_4
REMARK    2  A    between atoms: N1_4  and  C4_5
REMARK    3  A    between atoms: C4_5  and  C5_6
REMARK    4  A    between atoms: C5_6  and  C6_7
REMARK       I    between atoms: C6_7  and  N2_9
REMARK    5  A    between atoms: C8_14  and  C9_15
REMARK    6  A    between atoms: C9_15  and  C10_16
REMARK    7  A    between atoms: C12_18  and  N4_19
ROOT
HETATM    1  C1  UNL     1      14.549 -15.023  17.484  1.00  0.00     0.098 C
HETATM    2  C2  UNL     1      14.496 -15.663  18.532  1.00  0.00    -0.158 C
HETATM    3  C3  UNL     1      14.470 -16.438  19.775  1.00  0.00     0.339 C
ENDROOT
BRANCH   3   4
HETATM    4  N1  UNL     1      13.198 -16.334  20.417  1.00  0.00     0.020 N
HETATM    5  C18 UNL     1      12.189 -17.037  19.708  1.00  0.00     0.262 C
HETATM    6  C19 UNL     1      11.935 -18.377  20.346  1.00  0.00     0.048 C
HETATM    7  C20 UNL     1      13.043 -18.431  21.361  1.00  0.00     0.144 C
HETATM    8  N5  UNL     1      13.380 -17.057  21.648  1.00  0.00    -0.046 NA
BRANCH   4   9
HETATM    9  C4  UNL     1      12.775 -15.040  20.827  1.00  0.00     0.271 C
BRANCH   9  10
HETATM   10  C5  UNL     1      13.579 -14.238  21.767  1.00  0.00     0.133 C
BRANCH  10  11
HETATM   11  C6  UNL     1      13.578 -12.778  21.584  1.00  0.00     0.235 C
HETATM   12  O1  UNL     1      12.400 -12.260  21.558  1.00  0.00    -0.272 OA
HETATM   13  N2  UNL     1      14.676 -11.924  21.443  1.00  0.00    -0.213 N
HETATM   14  C7  UNL     1      14.385 -10.487  21.254  1.00  0.00     0.331 C
HETATM   15  C12 UNL     1      16.073 -11.906  21.403  1.00  0.00     0.220 C
HETATM   16  O2  UNL     1      13.370  -9.836  21.580  1.00  0.00    -0.246 OA
HETATM   17  N3  UNL     1      15.508  -9.890  20.594  1.00  0.00    -0.331 N
HETATM   18  C8  UNL     1      16.277 -11.067  20.130  1.00  0.00     0.163 C
ATOM     19  H3  UNL     1      15.723  -8.901  20.474  1.00  0.00     0.165 HD
BRANCH  18  20
HETATM   20  C9  UNL     1      15.493 -11.583  18.963  1.00  0.00     0.033 C
BRANCH  20  21
HETATM   21  C10 UNL     1      16.369 -11.808  17.741  1.00  0.00    -0.002 C
HETATM   22  C11 UNL     1      15.627 -11.559  16.457  1.00  0.00     0.005 C
ENDBRANCH  20  21
ENDBRANCH  18  20
BRANCH  15  23
HETATM   23  N4  UNL     1      17.007 -12.892  21.577  1.00  0.00    -0.027 N
HETATM   24  C13 UNL     1      18.315 -12.179  21.226  1.00  0.00     0.281 C
HETATM   25  C14 UNL     1      17.091 -14.041  20.764  1.00  0.00     0.245 C
HETATM   26  C15 UNL     1      18.278 -14.793  21.361  1.00  0.00     0.030 C
HETATM   27  C16 UNL     1      18.340 -14.421  22.801  1.00  0.00     0.030 C
HETATM   28  C17 UNL     1      17.271 -13.325  22.901  1.00  0.00     0.245 C
ENDBRANCH  15  23
ENDBRANCH  10  11
ENDBRANCH   9  10
ENDBRANCH   4   9
ENDBRANCH   3   4
TORSDOF 7
ENDMDL