MODEL 2
REMARK VINA RESULT: -7.451467708      1.782      7.968
REMARK  6 active torsions:
REMARK  status: ('A' for Active; 'I' for Inactive)
REMARK       I    between atoms: N1_4  and  C4_5
REMARK       I    between atoms: C4_5  and  N2_7
REMARK    1  A    between atoms: N2_7  and  N3_9
REMARK    2  A    between atoms: C10_16  and  C11_17
REMARK    3  A    between atoms: C11_17  and  C12_18
REMARK    4  A    between atoms: C12_18  and  N4_19
REMARK    5  A    between atoms: N4_19  and  C15_22
REMARK    6  A    between atoms: C15_22  and  N5_23
ROOT
HETATM    1  C1  UNL     1      19.137 -11.281  20.097  1.00  0.00     0.015 C
HETATM    2  C2  UNL     1      18.535 -12.678  20.134  1.00  0.00     0.037 C
HETATM    3  C3  UNL     1      17.132 -12.627  19.672  1.00  0.00     0.135 C
HETATM    4  N1  UNL     1      16.194 -12.367  20.741  1.00  0.00    -0.330 N
HETATM    5  C4  UNL     1      15.146 -11.382  20.585  1.00  0.00     0.342 C
HETATM    6  O1  UNL     1      15.147 -10.791  19.486  1.00  0.00    -0.245 OA
HETATM    7  N2  UNL     1      14.193 -11.103  21.587  1.00  0.00    -0.168 N
ATOM      8  H2  UNL     1      14.269 -11.630  22.456  1.00  0.00     0.198 HD
HETATM    9  C8  UNL     1      16.326 -13.114  21.947  1.00  0.00     0.162 C
HETATM   10  C9  UNL     1      17.733 -13.376  22.395  1.00  0.00     0.175 A
HETATM   11  O2  UNL     1      18.594 -12.299  22.554  1.00  0.00    -0.367 OA
HETATM   12  C10 UNL     1      18.790 -13.282  21.467  1.00  0.00     0.095 A
ENDROOT
BRANCH  12  13
HETATM   13  C11 UNL     1      20.036 -14.111  21.703  1.00  0.00     0.069 C
BRANCH  13  14
HETATM   14  C12 UNL     1      19.723 -15.452  22.243  1.00  0.00     0.241 C
BRANCH  14  15
HETATM   15  N4  UNL     1      20.505 -15.795  23.447  1.00  0.00    -0.051 N
HETATM   16  C13 UNL     1      19.545 -16.241  24.410  1.00  0.00     0.274 C
HETATM   17  C14 UNL     1      21.293 -17.017  23.147  1.00  0.00     0.274 C
BRANCH  15  18
HETATM   18  C15 UNL     1      21.397 -14.775  23.756  1.00  0.00     0.471 C
BRANCH  18  19
HETATM   19  N5  UNL     1      21.448 -14.165  25.042  1.00  0.00    -0.047 N
HETATM   20  C16 UNL     1      22.103 -14.993  26.044  1.00  0.00     0.274 C
HETATM   21  C17 UNL     1      20.364 -13.383  25.498  1.00  0.00     0.240 C
HETATM   22  C18 UNL     1      21.008 -12.069  25.136  1.00  0.00     0.056 C
HETATM   23  C19 UNL     1      22.236 -12.917  24.942  1.00  0.00     0.240 C
ENDBRANCH  18  19
ENDBRANCH  15  18
ENDBRANCH  14  15
ENDBRANCH  13  14
ENDBRANCH  12  13
BRANCH   7  24
HETATM   24  N3  UNL     1      13.174 -10.191  21.502  1.00  0.00     0.004 N
HETATM   25  C5  UNL     1      11.913 -10.866  21.832  1.00  0.00     0.301 C
HETATM   26  C6  UNL     1      13.019  -9.549  20.245  1.00  0.00     0.301 C
HETATM   27  C7  UNL     1      13.371  -9.138  22.503  1.00  0.00     0.301 C
ENDBRANCH   7  24
TORSDOF 6
ENDMDL