MODEL 4
REMARK VINA RESULT: -7.866232455      1.717      4.812
REMARK  12 active torsions:
REMARK  status: ('A' for Active; 'I' for Inactive)
REMARK    1  A    between atoms: N1_6  and  C5_7
REMARK    2  A    between atoms: C5_7  and  O1_8
REMARK    3  A    between atoms: C5_7  and  C6_10
REMARK    4  A    between atoms: C6_10  and  N2_11
REMARK    5  A    between atoms: C6_10  and  C12_21
REMARK       I    between atoms: N2_11  and  C7_13
REMARK       I    between atoms: C7_13  and  N3_15
REMARK       I    between atoms: C12_21  and  N4_23
REMARK    6  A    between atoms: C15_27  and  C16_28
REMARK    7  A    between atoms: C18_32  and  O7_33
REMARK    8  A    between atoms: C18_32  and  N5_35
REMARK    9  A    between atoms: N5_35  and  C19_37
REMARK   10  A    between atoms: C19_37  and  C20_38
REMARK   11  A    between atoms: C20_38  and  C21_39
REMARK   12  A    between atoms: C21_39  and  S3_40
ROOT
HETATM    1  C1  UNL     1     -33.703  -3.001 -16.254  1.00  0.00     0.034 C
HETATM    2  C2  UNL     1     -33.587  -3.834 -17.487  1.00  0.00     0.049 C
HETATM    3  C3  UNL     1     -33.683  -5.298 -17.280  1.00  0.00     0.034 C
HETATM    4  S1  UNL     1     -31.891  -3.496 -18.177  1.00  0.00    -0.133 SA
HETATM    5  C4  UNL     1     -32.469  -2.394 -19.559  1.00  0.00     0.205 C
HETATM    6  N1  UNL     1     -33.748  -1.991 -18.932  1.00  0.00    -0.318 N
HETATM    7  C17 UNL     1     -34.352  -3.293 -18.659  1.00  0.00     0.083 C
HETATM    8  C18 UNL     1     -35.753  -3.518 -18.735  1.00  0.00     0.161 C
ENDROOT
BRANCH   6   9
HETATM    9  C5  UNL     1     -34.219  -0.716 -18.652  1.00  0.00     0.151 C
BRANCH   9  10
HETATM   10  O1  UNL     1     -35.259  -0.367 -19.363  1.00  0.00    -0.347 OA
ATOM     11  H1  UNL     1     -35.345  -0.844 -20.180  1.00  0.00     0.219 HD
ENDBRANCH   9  10
BRANCH   9  12
HETATM   12  C6  UNL     1     -33.795   0.314 -17.734  1.00  0.00     0.253 C
BRANCH  12  13
HETATM   13  N2  UNL     1     -32.618  -0.269 -17.026  1.00  0.00    -0.322 N
HETATM   14  C7  UNL     1     -31.308   0.200 -17.199  1.00  0.00     0.319 C
HETATM   15  O2  UNL     1     -31.141   1.159 -17.996  1.00  0.00    -0.247 OA
HETATM   16  N3  UNL     1     -30.188  -0.348 -16.529  1.00  0.00    -0.330 N
HETATM   17  C8  UNL     1     -30.410  -1.445 -15.606  1.00  0.00     0.153 C
HETATM   18  C11 UNL     1     -28.877   0.180 -16.776  1.00  0.00     0.153 C
HETATM   19  C9  UNL     1     -29.221  -1.655 -14.695  1.00  0.00     0.187 C
HETATM   20  O3  UNL     1     -28.012  -1.410 -15.303  1.00  0.00    -0.388 OA
HETATM   21  C10 UNL     1     -27.958  -0.022 -15.570  1.00  0.00     0.187 C
ATOM     22  H2  UNL     1     -32.774  -1.048 -16.386  1.00  0.00     0.165 HD
ENDBRANCH  12  13
BRANCH  12  23
HETATM   23  C12 UNL     1     -34.684   0.931 -16.790  1.00  0.00     0.252 C
HETATM   24  O4  UNL     1     -35.069   0.207 -15.801  1.00  0.00    -0.270 OA
HETATM   25  N4  UNL     1     -35.200   2.265 -16.796  1.00  0.00    -0.326 N
HETATM   26  C13 UNL     1     -34.852   3.189 -17.856  1.00  0.00     0.201 C
HETATM   27  C15 UNL     1     -36.078   2.867 -15.818  1.00  0.00     0.198 C
HETATM   28  S2  UNL     1     -34.843   4.783 -16.940  1.00  0.00    -0.147 SA
HETATM   29  C14 UNL     1     -35.347   4.118 -15.302  1.00  0.00     0.112 C
BRANCH  27  30
HETATM   30  C16 UNL     1     -37.363   3.307 -16.358  1.00  0.00     0.197 C
HETATM   31  O5  UNL     1     -37.849   2.885 -17.422  1.00  0.00    -0.646 OA
HETATM   32  O6  UNL     1     -38.087   4.250 -15.648  1.00  0.00    -0.646 OA
ENDBRANCH  27  30
ENDBRANCH  12  23
ENDBRANCH   9  12
ENDBRANCH   6   9
BRANCH   8  33
HETATM   33  O7  UNL     1     -36.199  -4.471 -17.964  1.00  0.00    -0.345 OA
ATOM     34  H7  UNL     1     -35.774  -5.312 -18.080  1.00  0.00     0.219 HD
ENDBRANCH   8  33
BRANCH   8  35
HETATM   35  N5  UNL     1     -36.736  -2.886 -19.516  1.00  0.00    -0.360 N
ATOM     36  H5  UNL     1     -36.491  -2.720 -20.492  1.00  0.00     0.162 HD
BRANCH  35  37
HETATM   37  C19 UNL     1     -38.039  -2.446 -19.116  1.00  0.00     0.033 C
HETATM   38  C23 UNL     1     -38.425  -1.249 -19.994  1.00  0.00     0.031 C
HETATM   39  C24 UNL     1     -39.671  -0.570 -19.575  1.00  0.00     0.002 C
HETATM   40  C25 UNL     1     -39.859  -0.310 -18.129  1.00  0.00     0.000 C
HETATM   41  C26 UNL     1     -39.189  -1.281 -17.210  1.00  0.00     0.002 C
HETATM   42  C27 UNL     1     -37.904  -1.832 -17.725  1.00  0.00     0.031 C
BRANCH  37  43
HETATM   43  C20 UNL     1     -39.124  -3.427 -19.215  1.00  0.00     0.046 C
BRANCH  43  44
HETATM   44  C21 UNL     1     -39.038  -4.507 -20.224  1.00  0.00     0.142 C
BRANCH  44  45
HETATM   45  S3  UNL     1     -39.182  -6.091 -19.362  1.00  0.00     0.140 S
HETATM   46  C22 UNL     1     -39.853  -7.318 -20.447  1.00  0.00     0.161 C
HETATM   47  O8  UNL     1     -37.867  -6.542 -18.849  1.00  0.00    -0.228 OA
HETATM   48  O9  UNL     1     -40.121  -5.949 -18.198  1.00  0.00    -0.228 OA
ENDBRANCH  44  45
ENDBRANCH  43  44
ENDBRANCH  37  43
ENDBRANCH  35  37
ENDBRANCH   8  35
TORSDOF 12
ENDMDL