MODEL 2
REMARK VINA RESULT: -7.687341775      3.085      3.904
REMARK  12 active torsions:
REMARK  status: ('A' for Active; 'I' for Inactive)
REMARK    1  A    between atoms: C2_2  and  N1_5
REMARK    2  A    between atoms: N1_5  and  C5_7
REMARK    3  A    between atoms: C5_7  and  C6_8
REMARK    4  A    between atoms: C5_7  and  C25_48
REMARK       I    between atoms: C6_8  and  N2_10
REMARK    5  A    between atoms: N3_12  and  S1_13
REMARK    6  A    between atoms: S1_13  and  C8_16
REMARK    7  A    between atoms: C9_20  and  C10_21
REMARK       I    between atoms: C10_21  and  N5_23
REMARK    8  A    between atoms: N5_23  and  C11_25
REMARK    9  A    between atoms: C11_25  and  C12_26
REMARK       I    between atoms: C12_26  and  N6_28
REMARK   10  A    between atoms: N6_28  and  S2_30
REMARK   11  A    between atoms: S2_30  and  C13_33
REMARK   12  A    between atoms: C19_39  and  C20_40
REMARK       I    between atoms: C20_40  and  N7_42
ROOT
HETATM    1  C6  UNL     1     -35.672   2.711 -18.104  1.00  0.00     0.245 C
HETATM    2  O1  UNL     1     -36.917   2.667 -18.292  1.00  0.00    -0.271 OA
HETATM    3  N2  UNL     1     -34.859   1.551 -18.062  1.00  0.00    -0.318 N
HETATM    4  C7  UNL     1     -33.424   1.562 -17.919  1.00  0.00     0.241 C
HETATM    5  N3  UNL     1     -33.043   0.173 -17.674  1.00  0.00    -0.150 NA
HETATM    6  C9  UNL     1     -33.993  -0.467 -18.515  1.00  0.00     0.104 C
HETATM    7  C19 UNL     1     -35.285   0.125 -18.122  1.00  0.00     0.231 C
ENDROOT
BRANCH   6   8
HETATM    8  C10 UNL     1     -33.820  -1.852 -18.832  1.00  0.00     0.263 C
HETATM    9  O4  UNL     1     -33.198  -2.340 -19.796  1.00  0.00    -0.267 OA
HETATM   10  N5  UNL     1     -34.422  -2.830 -17.950  1.00  0.00    -0.338 N
ATOM     11  H5  UNL     1     -34.935  -2.474 -17.143  1.00  0.00     0.164 HD
BRANCH  10  12
HETATM   12  C11 UNL     1     -34.362  -4.236 -18.106  1.00  0.00     0.115 A
HETATM   13  C17 UNL     1     -33.588  -4.985 -17.005  1.00  0.00     0.044 A
HETATM   14  C18 UNL     1     -33.125  -4.998 -18.411  1.00  0.00     0.044 A
BRANCH  12  15
HETATM   15  C12 UNL     1     -35.650  -4.902 -18.512  1.00  0.00     0.259 C
HETATM   16  O5  UNL     1     -36.569  -4.171 -18.994  1.00  0.00    -0.270 OA
HETATM   17  N6  UNL     1     -35.859  -6.261 -18.374  1.00  0.00    -0.252 N
ATOM     18  H6  UNL     1     -35.134  -6.865 -17.987  1.00  0.00     0.181 HD
BRANCH  17  19
HETATM   19  S2  UNL     1     -37.394  -6.915 -18.878  1.00  0.00     0.240 S
HETATM   20  O6  UNL     1     -38.498  -5.952 -18.603  1.00  0.00    -0.205 OA
HETATM   21  O7  UNL     1     -37.350  -7.251 -20.339  1.00  0.00    -0.205 OA
BRANCH  19  22
HETATM   22  C13 UNL     1     -37.736  -8.424 -17.992  1.00  0.00     0.072 C
HETATM   23  C14 UNL     1     -38.969  -8.295 -17.145  1.00  0.00     0.033 C
HETATM   24  C15 UNL     1     -36.574  -8.807 -17.105  1.00  0.00     0.033 C
HETATM   25  C16 UNL     1     -37.964  -9.520 -19.006  1.00  0.00     0.033 C
ENDBRANCH  19  22
ENDBRANCH  17  19
ENDBRANCH  12  15
ENDBRANCH  10  12
ENDBRANCH   6   8
BRANCH   5  26
HETATM   26  S1  UNL     1     -33.011  -0.132 -16.034  1.00  0.00     0.253 S
HETATM   27  O2  UNL     1     -34.230  -0.781 -15.440  1.00  0.00    -0.205 OA
HETATM   28  O3  UNL     1     -31.860  -1.022 -15.668  1.00  0.00    -0.205 OA
BRANCH  26  29
HETATM   29  C8  UNL     1     -32.790   1.346 -15.091  1.00  0.00     0.208 C
HETATM   30  N4  UNL     1     -33.567   1.548 -14.114  1.00  0.00    -0.398 N
ATOM     31  H42 UNL     1     -34.294   0.869 -13.890  1.00  0.00     0.156 HD
ATOM     32  H41 UNL     1     -33.440   2.402 -13.569  1.00  0.00     0.156 HD
ENDBRANCH  26  29
ENDBRANCH   5  26
BRANCH   7  33
HETATM   33  C20 UNL     1     -36.365  -0.054 -19.122  1.00  0.00     0.248 C
HETATM   34  O8  UNL     1     -36.185   0.434 -20.264  1.00  0.00    -0.271 OA
HETATM   35  N7  UNL     1     -37.590  -0.727 -18.909  1.00  0.00    -0.346 N
HETATM   36  C21 UNL     1     -38.033  -1.333 -17.673  1.00  0.00     0.152 C
HETATM   37  C24 UNL     1     -38.580  -0.872 -19.993  1.00  0.00     0.152 C
HETATM   38  C22 UNL     1     -39.253  -0.616 -17.136  1.00  0.00     0.187 C
HETATM   39  O9  UNL     1     -40.103  -0.354 -18.206  1.00  0.00    -0.388 OA
HETATM   40  C23 UNL     1     -39.891  -1.185 -19.294  1.00  0.00     0.187 C
ENDBRANCH   7  33
BRANCH   1  41
HETATM   41  C5  UNL     1     -35.108   4.066 -17.926  1.00  0.00     0.177 C
BRANCH  41  42
HETATM   42  N1  UNL     1     -35.749   5.123 -18.597  1.00  0.00    -0.401 N
ATOM     43  H1  UNL     1     -36.553   5.554 -18.142  1.00  0.00     0.154 HD
BRANCH  42  44
HETATM   44  C2  UNL     1     -35.366   5.618 -19.824  1.00  0.00     0.015 C
HETATM   45  C1  UNL     1     -33.862   5.965 -19.827  1.00  0.00     0.037 C
HETATM   46  C3  UNL     1     -36.031   7.013 -19.969  1.00  0.00     0.037 C
HETATM   47  C4  UNL     1     -35.648   4.919 -21.087  1.00  0.00     0.037 C
ENDBRANCH  42  44
ENDBRANCH  41  42
BRANCH  41  48
HETATM   48  C25 UNL     1     -35.223   4.474 -16.434  1.00  0.00    -0.022 C
HETATM   49  C26 UNL     1     -36.018   5.756 -16.316  1.00  0.00     0.017 C
HETATM   50  C27 UNL     1     -35.904   3.464 -15.589  1.00  0.00     0.017 C
HETATM   51  C28 UNL     1     -33.828   4.683 -15.910  1.00  0.00     0.017 C
ENDBRANCH  41  48
ENDBRANCH   1  41
TORSDOF 12
ENDMDL