MODEL 2
REMARK VINA RESULT: -9.673875260      2.643     10.504
REMARK  14 active torsions:
REMARK  status: ('A' for Active; 'I' for Inactive)
REMARK    1  A    between atoms: O1_2  and  C2_3
REMARK    2  A    between atoms: C5_6  and  C6_7
REMARK       I    between atoms: N1_12  and  C11_14
REMARK    3  A    between atoms: C11_14  and  C12_16
REMARK    4  A    between atoms: C12_16  and  N2_17
REMARK    5  A    between atoms: N2_17  and  N3_18
REMARK    6  A    between atoms: N2_17  and  C26_49
REMARK       I    between atoms: N3_18  and  C13_20
REMARK    7  A    between atoms: C13_20  and  C14_22
REMARK    8  A    between atoms: C17_25  and  C18_26
REMARK       I    between atoms: C18_26  and  N4_28
REMARK    9  A    between atoms: C21_34  and  C22_35
REMARK   10  A    between atoms: C22_35  and  C23_36
REMARK   11  A    between atoms: C23_36  and  S1_37
REMARK   12  A    between atoms: S1_37  and  N6_38
REMARK   13  A    between atoms: C26_49  and  O7_50
REMARK   14  A    between atoms: C26_49  and  N9_52
ROOT
HETATM    1  N3  UNL     1     -37.713   2.369 -18.083  1.00  0.00    -0.260 N
ATOM      2  H3  UNL     1     -38.605   2.461 -18.569  1.00  0.00     0.190 HD
HETATM    3  C13 UNL     1     -37.419   1.230 -17.280  1.00  0.00     0.270 C
HETATM    4  O3  UNL     1     -36.312   1.107 -16.668  1.00  0.00    -0.266 OA
ENDROOT
BRANCH   3   5
HETATM    5  C14 UNL     1     -38.375   0.152 -17.123  1.00  0.00     0.033 A
HETATM    6  C15 UNL     1     -39.747   0.380 -17.299  1.00  0.00     0.018 A
HETATM    7  C16 UNL     1     -40.690  -0.599 -17.164  1.00  0.00     0.018 A
HETATM    8  C17 UNL     1     -40.315  -1.906 -16.836  1.00  0.00     0.032 A
HETATM    9  C24 UNL     1     -38.975  -2.145 -16.660  1.00  0.00     0.018 A
HETATM   10  C25 UNL     1     -38.032  -1.132 -16.803  1.00  0.00     0.018 A
BRANCH   8  11
HETATM   11  C18 UNL     1     -41.319  -2.950 -16.692  1.00  0.00     0.257 C
HETATM   12  O4  UNL     1     -42.483  -2.754 -17.077  1.00  0.00    -0.267 OA
HETATM   13  N4  UNL     1     -40.968  -4.188 -16.113  1.00  0.00    -0.307 N
HETATM   14  C19 UNL     1     -40.674  -5.181 -16.875  1.00  0.00     0.138 A
ATOM     15  H4  UNL     1     -40.947  -4.294 -15.099  1.00  0.00     0.170 HD
HETATM   16  C20 UNL     1     -40.699  -5.048 -18.246  1.00  0.00     0.139 A
HETATM   17  N8  UNL     1     -40.335  -6.372 -16.356  1.00  0.00    -0.283 N
HETATM   18  N5  UNL     1     -40.397  -6.067 -19.066  1.00  0.00    -0.351 N
HETATM   19  C21 UNL     1     -40.059  -7.252 -18.521  1.00  0.00     0.096 A
ATOM     20  H5  UNL     1     -40.422  -5.948 -20.078  1.00  0.00     0.166 HD
HETATM   21  N7  UNL     1     -40.038  -7.373 -17.161  1.00  0.00    -0.287 N
ATOM     22  H7  UNL     1     -39.782  -8.271 -16.752  1.00  0.00     0.188 HD
ATOM     23  H8  UNL     1     -40.307  -6.501 -15.345  1.00  0.00     0.188 HD
BRANCH  19  24
HETATM   24  C22 UNL     1     -39.705  -8.446 -19.287  1.00  0.00     0.094 C
BRANCH  24  25
HETATM   25  C23 UNL     1     -38.993  -8.269 -20.569  1.00  0.00     0.170 C
BRANCH  25  26
HETATM   26  S1  UNL     1     -39.787  -8.900 -22.002  1.00  0.00     0.224 S
HETATM   27  O5  UNL     1     -39.461 -10.378 -22.136  1.00  0.00    -0.206 OA
HETATM   28  O6  UNL     1     -41.283  -8.799 -21.780  1.00  0.00    -0.206 OA
BRANCH  26  29
HETATM   29  N6  UNL     1     -39.424  -8.056 -23.425  1.00  0.00    -0.328 N
ATOM     30  H62 UNL     1     -38.515  -8.132 -23.882  1.00  0.00     0.168 HD
ATOM     31  H61 UNL     1     -40.187  -7.475 -23.773  1.00  0.00     0.168 HD
ENDBRANCH  26  29
ENDBRANCH  25  26
ENDBRANCH  24  25
ENDBRANCH  19  24
ENDBRANCH   8  11
ENDBRANCH   3   5
BRANCH   1  32
HETATM   32  N2  UNL     1     -36.736   3.348 -18.176  1.00  0.00    -0.245 N
BRANCH  32  33
HETATM   33  C12 UNL     1     -36.464   3.840 -19.546  1.00  0.00     0.256 C
BRANCH  33  34
HETATM   34  C11 UNL     1     -35.743   2.800 -20.324  1.00  0.00     0.242 C
HETATM   35  N1  UNL     1     -35.029   1.738 -19.740  1.00  0.00    -0.320 N
HETATM   36  C10 UNL     1     -35.380   0.492 -19.800  1.00  0.00     0.077 A
ATOM     37  H1  UNL     1     -34.174   1.965 -19.232  1.00  0.00     0.169 HD
HETATM   38  C9  UNL     1     -36.527   0.130 -20.473  1.00  0.00     0.037 A
HETATM   39  S2  UNL     1     -34.526  -0.794 -19.099  1.00  0.00    -0.072 SA
HETATM   40  C8  UNL     1     -37.001  -1.140 -20.607  1.00  0.00     0.004 A
HETATM   41  C7  UNL     1     -36.418  -2.281 -20.094  1.00  0.00     0.020 A
HETATM   42  C6  UNL     1     -35.266  -2.332 -19.364  1.00  0.00     0.017 A
HETATM   43  O2  UNL     1     -35.763   2.858 -21.586  1.00  0.00    -0.271 OA
BRANCH  42  44
HETATM   44  C5  UNL     1     -34.690  -3.568 -18.843  1.00  0.00    -0.019 A
HETATM   45  C4  UNL     1     -35.533  -4.588 -18.467  1.00  0.00     0.015 A
HETATM   46  C3  UNL     1     -35.009  -5.777 -17.970  1.00  0.00     0.037 A
HETATM   47  C2  UNL     1     -33.647  -5.966 -17.842  1.00  0.00     0.068 A
HETATM   48  C30 UNL     1     -32.823  -4.931 -18.225  1.00  0.00     0.037 A
HETATM   49  C29 UNL     1     -33.362  -3.729 -18.727  1.00  0.00     0.015 A
BRANCH  47  50
HETATM   50  O1  UNL     1     -33.115  -7.156 -17.345  1.00  0.00    -0.356 OA
HETATM   51  C1  UNL     1     -32.789  -7.203 -15.956  1.00  0.00     0.210 C
ENDBRANCH  47  50
ENDBRANCH  42  44
ENDBRANCH  33  34
ENDBRANCH  32  33
BRANCH  32  52
HETATM   52  C26 UNL     1     -36.035   3.849 -17.092  1.00  0.00     0.236 C
BRANCH  52  53
HETATM   53  O7  UNL     1     -34.784   3.503 -16.978  1.00  0.00    -0.331 OA
ATOM     54  H7  UNL     1     -34.331   3.761 -16.184  1.00  0.00     0.221 HD
ENDBRANCH  52  53
BRANCH  52  55
HETATM   55  N9  UNL     1     -36.494   4.688 -16.088  1.00  0.00    -0.355 N
HETATM   56  C27 UNL     1     -35.871   6.017 -15.857  1.00  0.00     0.152 C
HETATM   57  C28 UNL     1     -37.579   4.388 -15.209  1.00  0.00     0.152 C
ENDBRANCH  52  55
ENDBRANCH  32  52
ENDBRANCH   1  32
TORSDOF 14
ENDMDL