MODEL 3
REMARK VINA RESULT: -8.274666692      3.389      6.996
REMARK  10 active torsions:
REMARK  status: ('A' for Active; 'I' for Inactive)
REMARK    1  A    between atoms: C2_2  and  C4_4
REMARK    2  A    between atoms: C4_4  and  N1_5
REMARK    3  A    between atoms: N1_5  and  C5_6
REMARK    4  A    between atoms: N1_5  and  S2_41
REMARK    5  A    between atoms: C5_6  and  C6_7
REMARK    6  A    between atoms: C6_7  and  O1_8
REMARK    7  A    between atoms: C6_7  and  C7_10
REMARK    8  A    between atoms: N3_25  and  S1_26
REMARK    9  A    between atoms: S1_26  and  N4_29
REMARK   10  A    between atoms: S2_41  and  C26_44
ROOT
HETATM    1  C7  UNL     1     -37.748  -1.596 -18.707  1.00  0.00     0.123 C
HETATM    2  C8  UNL     1     -38.108  -2.894 -19.444  1.00  0.00     0.130 C
HETATM    3  C9  UNL     1     -39.230  -3.578 -18.734  1.00  0.00     0.219 C
HETATM    4  O2  UNL     1     -40.007  -2.870 -18.039  1.00  0.00    -0.274 OA
HETATM    5  N2  UNL     1     -39.444  -4.979 -18.818  1.00  0.00    -0.361 N
ATOM      6  H2  UNL     1     -39.797  -5.463 -17.992  1.00  0.00     0.162 HD
HETATM    7  C10 UNL     1     -39.189  -5.760 -20.010  1.00  0.00     0.122 C
HETATM    8  C11 UNL     1     -38.978  -7.224 -19.685  1.00  0.00     0.020 C
HETATM    9  C12 UNL     1     -37.592  -7.385 -19.156  1.00  0.00     0.002 C
HETATM   10  C13 UNL     1     -37.364  -8.627 -18.361  1.00  0.00     0.000 C
HETATM   11  C14 UNL     1     -36.829  -8.243 -16.999  1.00  0.00     0.000 C
HETATM   12  C15 UNL     1     -35.444  -8.752 -16.757  1.00  0.00     0.000 C
HETATM   13  C16 UNL     1     -34.393  -8.123 -17.610  1.00  0.00     0.001 C
HETATM   14  C17 UNL     1     -34.365  -6.645 -17.616  1.00  0.00     0.015 C
HETATM   15  C18 UNL     1     -33.287  -6.057 -16.698  1.00  0.00     0.108 C
HETATM   16  N3  UNL     1     -33.165  -4.682 -17.077  1.00  0.00    -0.197 NA
HETATM   17  C23 UNL     1     -34.111  -3.814 -16.454  1.00  0.00     0.117 C
HETATM   18  C24 UNL     1     -34.821  -3.005 -17.550  1.00  0.00     0.118 C
HETATM   19  C25 UNL     1     -35.928  -2.202 -16.982  1.00  0.00     0.219 C
HETATM   20  O6  UNL     1     -35.590  -1.561 -15.911  1.00  0.00    -0.274 OA
HETATM   21  N5  UNL     1     -37.221  -2.046 -17.418  1.00  0.00    -0.353 N
ATOM     22  H5  UNL     1     -37.933  -2.282 -16.727  1.00  0.00     0.163 HD
ENDROOT
BRANCH   1  23
HETATM   23  C6  UNL     1     -36.770  -0.781 -19.421  1.00  0.00     0.155 C
BRANCH  23  24
HETATM   24  C5  UNL     1     -35.908   0.210 -18.778  1.00  0.00     0.141 C
BRANCH  24  25
HETATM   25  N1  UNL     1     -36.353   1.553 -18.560  1.00  0.00    -0.203 NA
BRANCH  25  26
HETATM   26  C4  UNL     1     -37.056   1.559 -17.278  1.00  0.00     0.111 C
BRANCH  26  27
HETATM   27  C2  UNL     1     -38.208   2.490 -17.194  1.00  0.00    -0.009 C
HETATM   28  C1  UNL     1     -39.577   1.881 -17.210  1.00  0.00     0.011 C
HETATM   29  C3  UNL     1     -38.102   3.557 -16.130  1.00  0.00     0.011 C
ENDBRANCH  26  27
ENDBRANCH  25  26
BRANCH  25  30
HETATM   30  S2  UNL     1     -35.056   2.632 -18.465  1.00  0.00     0.251 S
HETATM   31  O7  UNL     1     -34.820   3.122 -17.054  1.00  0.00    -0.205 OA
HETATM   32  O8  UNL     1     -33.717   2.034 -18.883  1.00  0.00    -0.205 OA
BRANCH  30  33
HETATM   33  C26 UNL     1     -35.190   4.065 -19.492  1.00  0.00     0.131 A
HETATM   34  C27 UNL     1     -35.839   4.213 -20.696  1.00  0.00     0.120 A
HETATM   35  N6  UNL     1     -35.800   5.374 -21.265  1.00  0.00    -0.367 N
HETATM   36  C28 UNL     1     -35.150   6.372 -20.688  1.00  0.00     0.139 A
ATOM     37  H6  UNL     1     -36.270   5.520 -22.158  1.00  0.00     0.165 HD
HETATM   38  S3  UNL     1     -34.558   5.643 -19.264  1.00  0.00    -0.070 SA
ENDBRANCH  30  33
ENDBRANCH  25  30
ENDBRANCH  24  25
ENDBRANCH  23  24
BRANCH  23  39
HETATM   39  O1  UNL     1     -36.102  -1.554 -20.389  1.00  0.00    -0.392 OA
ATOM     40  H1  UNL     1     -35.222  -1.802 -20.131  1.00  0.00     0.210 HD
ENDBRANCH  23  39
ENDBRANCH   1  23
BRANCH  16  41
HETATM   41  S1  UNL     1     -31.568  -4.147 -17.087  1.00  0.00     0.283 S
HETATM   42  O3  UNL     1     -30.755  -5.112 -16.231  1.00  0.00    -0.194 OA
HETATM   43  O4  UNL     1     -31.513  -2.830 -16.307  1.00  0.00    -0.194 OA
BRANCH  41  44
HETATM   44  N4  UNL     1     -30.796  -4.021 -18.582  1.00  0.00    -0.194 NA
HETATM   45  C19 UNL     1     -31.596  -3.968 -19.749  1.00  0.00     0.134 C
HETATM   46  C20 UNL     1     -32.321  -2.646 -19.921  1.00  0.00     0.183 C
HETATM   47  O5  UNL     1     -31.712  -1.610 -19.257  1.00  0.00    -0.389 OA
HETATM   48  C21 UNL     1     -30.345  -1.680 -19.162  1.00  0.00     0.183 C
HETATM   49  C22 UNL     1     -29.804  -2.967 -18.619  1.00  0.00     0.134 C
ENDBRANCH  41  44
ENDBRANCH  16  41
TORSDOF 10
ENDMDL