MODEL 4
REMARK VINA RESULT: -10.008630439      1.480      2.209
REMARK  13 active torsions:
REMARK  status: ('A' for Active; 'I' for Inactive)
REMARK    1  A    between atoms: S1_2  and  N1_5
REMARK    2  A    between atoms: N1_5  and  C2_7
REMARK    3  A    between atoms: C2_7  and  O3_8
REMARK    4  A    between atoms: C2_7  and  C3_10
REMARK    5  A    between atoms: C4_11  and  C5_12
REMARK    6  A    between atoms: C6_13  and  C7_14
REMARK    7  A    between atoms: C10_17  and  C11_18
REMARK       I    between atoms: C11_18  and  N2_20
REMARK    8  A    between atoms: N2_20  and  S2_22
REMARK    9  A    between atoms: S2_22  and  C12_25
REMARK   10  A    between atoms: N4_36  and  S3_37
REMARK   11  A    between atoms: S3_37  and  N5_40
REMARK       I    between atoms: N5_40  and  C22_42
REMARK   12  A    between atoms: C22_42  and  C23_44
REMARK   13  A    between atoms: C27_48  and  O10_49
ROOT
HETATM    1  C12 UNL     1     -40.298  -7.140 -19.857  1.00  0.00     0.080 A
HETATM    2  C13 UNL     1     -39.342  -6.646 -20.716  1.00  0.00     0.027 A
HETATM    3  C14 UNL     1     -39.129  -7.287 -21.932  1.00  0.00     0.024 A
HETATM    4  C15 UNL     1     -39.866  -8.390 -22.260  1.00  0.00     0.044 A
HETATM    5  C16 UNL     1     -39.619  -9.043 -23.539  1.00  0.00     0.099 C
HETATM    6  N3  UNL     1     -39.403  -9.558 -24.547  1.00  0.00    -0.191 NA
HETATM    7  C17 UNL     1     -40.822  -8.892 -21.414  1.00  0.00     0.024 A
HETATM    8  C18 UNL     1     -41.036  -8.251 -20.196  1.00  0.00     0.027 A
ENDROOT
BRANCH   1   9
HETATM    9  S2  UNL     1     -40.591  -6.412 -18.292  1.00  0.00     0.265 S
HETATM   10  O5  UNL     1     -40.017  -7.262 -17.211  1.00  0.00    -0.200 OA
HETATM   11  O6  UNL     1     -42.074  -6.324 -18.068  1.00  0.00    -0.200 OA
BRANCH   9  12
HETATM   12  N2  UNL     1     -39.871  -4.835 -18.225  1.00  0.00    -0.246 N
HETATM   13  C11 UNL     1     -40.436  -3.865 -17.386  1.00  0.00     0.265 C
HETATM   14  O4  UNL     1     -41.462  -4.129 -16.676  1.00  0.00    -0.267 OA
ATOM     15  H2  UNL     1     -39.048  -4.618 -18.787  1.00  0.00     0.182 HD
BRANCH  13  16
HETATM   16  C10 UNL     1     -39.870  -2.532 -17.300  1.00  0.00     0.033 A
HETATM   17  C9  UNL     1     -38.485  -2.367 -17.185  1.00  0.00     0.018 A
HETATM   18  C8  UNL     1     -37.925  -1.093 -17.087  1.00  0.00     0.022 A
HETATM   19  C7  UNL     1     -38.719   0.032 -17.100  1.00  0.00     0.018 A
HETATM   20  C20 UNL     1     -40.084  -0.166 -17.217  1.00  0.00     0.022 A
HETATM   21  C19 UNL     1     -40.668  -1.411 -17.315  1.00  0.00     0.018 A
BRANCH  19  22
HETATM   22  C6  UNL     1     -38.145   1.340 -16.980  1.00  0.00    -0.061 C
HETATM   23  C5  UNL     1     -37.642   2.424 -16.909  1.00  0.00    -0.059 C
BRANCH  23  24
HETATM   24  C4  UNL     1     -37.000   3.724 -16.802  1.00  0.00     0.046 C
HETATM   25  C3  UNL     1     -36.101   4.258 -17.570  1.00  0.00     0.032 C
HETATM   26  C29 UNL     1     -35.698   5.642 -17.032  1.00  0.00     0.187 C
HETATM   27  N4  UNL     1     -36.321   5.679 -15.810  1.00  0.00    -0.264 N
HETATM   28  C21 UNL     1     -37.332   4.719 -15.709  1.00  0.00     0.126 C
BRANCH  25  29
HETATM   29  C2  UNL     1     -35.461   3.744 -18.766  1.00  0.00     0.159 C
BRANCH  29  30
HETATM   30  N1  UNL     1     -34.195   3.176 -18.904  1.00  0.00    -0.264 N
ATOM     31  H1  UNL     1     -33.454   3.689 -19.384  1.00  0.00     0.180 HD
BRANCH  30  32
HETATM   32  S1  UNL     1     -33.874   1.570 -18.250  1.00  0.00     0.228 S
HETATM   33  C1  UNL     1     -34.969   0.374 -18.938  1.00  0.00     0.186 C
HETATM   34  O1  UNL     1     -34.147   1.635 -16.756  1.00  0.00    -0.206 OA
HETATM   35  O2  UNL     1     -32.437   1.232 -18.526  1.00  0.00    -0.206 OA
ENDBRANCH  30  32
ENDBRANCH  29  30
BRANCH  29  36
HETATM   36  O3  UNL     1     -36.157   3.818 -19.866  1.00  0.00    -0.345 OA
ATOM     37  H3  UNL     1     -36.021   4.608 -20.377  1.00  0.00     0.219 HD
ENDBRANCH  29  36
ENDBRANCH  25  29
BRANCH  27  38
HETATM   38  S3  UNL     1     -35.623   6.176 -14.401  1.00  0.00     0.327 S
HETATM   39  O7  UNL     1     -35.621   7.697 -14.337  1.00  0.00    -0.182 OA
HETATM   40  O8  UNL     1     -36.384   5.749 -13.161  1.00  0.00    -0.182 OA
BRANCH  38  41
HETATM   41  N5  UNL     1     -33.994   5.608 -14.169  1.00  0.00    -0.233 N
HETATM   42  C22 UNL     1     -33.744   4.218 -14.062  1.00  0.00     0.266 C
HETATM   43  O9  UNL     1     -34.744   3.435 -14.146  1.00  0.00    -0.267 OA
ATOM     44  H5  UNL     1     -33.222   6.272 -14.110  1.00  0.00     0.183 HD
BRANCH  42  45
HETATM   45  C23 UNL     1     -32.425   3.666 -13.863  1.00  0.00     0.035 A
HETATM   46  C24 UNL     1     -31.581   3.617 -14.963  1.00  0.00     0.017 A
HETATM   47  C25 UNL     1     -30.317   3.101 -14.863  1.00  0.00     0.004 A
HETATM   48  C26 UNL     1     -29.840   2.614 -13.671  1.00  0.00     0.036 A
HETATM   49  C27 UNL     1     -30.689   2.666 -12.575  1.00  0.00     0.066 A
HETATM   50  C28 UNL     1     -31.961   3.182 -12.664  1.00  0.00     0.053 A
BRANCH  49  51
HETATM   51  O10 UNL     1     -30.231   2.181 -11.358  1.00  0.00    -0.361 OA
ATOM     52  H10 UNL     1     -29.444   2.560 -10.986  1.00  0.00     0.217 HD
ENDBRANCH  49  51
ENDBRANCH  42  45
ENDBRANCH  38  41
ENDBRANCH  27  38
ENDBRANCH  23  24
ENDBRANCH  19  22
ENDBRANCH  13  16
ENDBRANCH   9  12
ENDBRANCH   1   9
TORSDOF 13
ENDMDL