MODEL 3
REMARK VINA RESULT: -8.505710492      4.272      6.920
REMARK  14 active torsions:
REMARK  status: ('A' for Active; 'I' for Inactive)
REMARK    1  A    between atoms: C2_2  and  C3_3
REMARK    2  A    between atoms: C3_3  and  N1_4
REMARK       I    between atoms: N1_4  and  C4_6
REMARK    3  A    between atoms: C4_6  and  C5_8
REMARK    4  A    between atoms: C6_9  and  O2_10
REMARK    5  A    between atoms: O2_10  and  C7_11
REMARK    6  A    between atoms: C7_11  and  C8_13
REMARK    7  A    between atoms: C8_13  and  N2_14
REMARK    8  A    between atoms: C8_13  and  C25_40
REMARK       I    between atoms: N2_14  and  C9_16
REMARK    9  A    between atoms: C9_16  and  C10_18
REMARK   10  A    between atoms: C10_18  and  N3_19
REMARK   11  A    between atoms: C10_18  and  C21_36
REMARK       I    between atoms: N3_19  and  C11_21
REMARK       I    between atoms: C11_21  and  N4_23
REMARK       I    between atoms: N5_26  and  C14_27
REMARK   12  A    between atoms: C14_27  and  O7_29
REMARK   13  A    between atoms: O7_29  and  C15_30
REMARK   14  A    between atoms: N6_46  and  S1_47
ROOT
HETATM    1  N2  UNL     1     -38.886  -4.918 -18.899  1.00  0.00    -0.345 N
ATOM      2  H2  UNL     1     -38.463  -5.096 -17.988  1.00  0.00     0.163 HD
HETATM    3  C9  UNL     1     -38.820  -3.617 -19.408  1.00  0.00     0.242 C
HETATM    4  O4  UNL     1     -39.362  -3.435 -20.551  1.00  0.00    -0.271 OA
ENDROOT
BRANCH   1   5
HETATM    5  C8  UNL     1     -39.521  -6.033 -19.588  1.00  0.00     0.191 C
BRANCH   5   6
HETATM    6  C7  UNL     1     -38.514  -6.883 -20.261  1.00  0.00     0.284 C
HETATM    7  O3  UNL     1     -37.363  -7.053 -19.779  1.00  0.00    -0.263 OA
BRANCH   6   8
HETATM    8  O2  UNL     1     -38.810  -7.515 -21.442  1.00  0.00    -0.286 OA
BRANCH   8   9
HETATM    9  C6  UNL     1     -38.266  -8.789 -21.783  1.00  0.00     0.298 C
HETATM   10  C5  UNL     1     -39.237  -9.895 -21.325  1.00  0.00     0.223 C
HETATM   11  N6  UNL     1     -40.355  -9.565 -22.127  1.00  0.00    -0.170 NA
HETATM   12  C29 UNL     1     -39.740  -9.234 -23.395  1.00  0.00     0.280 C
HETATM   13  O8  UNL     1     -38.401  -8.929 -23.156  1.00  0.00    -0.344 OA
BRANCH  10  14
HETATM   14  C4  UNL     1     -38.655 -11.208 -21.581  1.00  0.00     0.241 C
HETATM   15  N1  UNL     1     -38.978 -12.041 -22.688  1.00  0.00    -0.356 N
ATOM     16  H1  UNL     1     -39.672 -11.708 -23.357  1.00  0.00     0.162 HD
HETATM   17  O1  UNL     1     -37.798 -11.677 -20.789  1.00  0.00    -0.272 OA
BRANCH  15  18
HETATM   18  C3  UNL     1     -38.376 -13.328 -22.909  1.00  0.00     0.149 C
BRANCH  18  19
HETATM   19  C2  UNL     1     -39.133 -14.468 -22.380  1.00  0.00    -0.018 C
HETATM   20  C1  UNL     1     -40.455 -14.447 -22.290  1.00  0.00     0.008 C
ENDBRANCH  18  19
ENDBRANCH  15  18
ENDBRANCH  10  14
BRANCH  11  21
HETATM   21  S1  UNL     1     -41.701 -10.551 -22.189  1.00  0.00     0.210 S
HETATM   22  C30 UNL     1     -41.933 -11.343 -20.607  1.00  0.00     0.180 C
HETATM   23  O9  UNL     1     -41.845 -11.467 -23.336  1.00  0.00    -0.211 OA
HETATM   24  O10 UNL     1     -42.922  -9.595 -22.291  1.00  0.00    -0.211 OA
ENDBRANCH  11  21
ENDBRANCH   8   9
ENDBRANCH   6   8
ENDBRANCH   5   6
BRANCH   5  25
HETATM   25  C25 UNL     1     -40.332  -6.833 -18.610  1.00  0.00    -0.022 C
HETATM   26  C26 UNL     1     -39.471  -7.821 -17.856  1.00  0.00     0.017 C
HETATM   27  C27 UNL     1     -41.071  -5.923 -17.630  1.00  0.00     0.017 C
HETATM   28  C28 UNL     1     -41.395  -7.644 -19.319  1.00  0.00     0.017 C
ENDBRANCH   5  25
ENDBRANCH   1   5
BRANCH   3  29
HETATM   29  C10 UNL     1     -38.195  -2.472 -18.754  1.00  0.00     0.185 C
BRANCH  29  30
HETATM   30  N3  UNL     1     -36.952  -2.879 -18.083  1.00  0.00    -0.329 N
HETATM   31  C11 UNL     1     -35.687  -2.741 -18.690  1.00  0.00     0.319 C
HETATM   32  O5  UNL     1     -35.696  -2.244 -19.863  1.00  0.00    -0.247 OA
HETATM   33  N4  UNL     1     -34.444  -3.094 -18.127  1.00  0.00    -0.331 N
HETATM   34  C12 UNL     1     -34.415  -3.646 -16.791  1.00  0.00     0.147 C
HETATM   35  C20 UNL     1     -33.251  -2.890 -18.910  1.00  0.00     0.147 C
HETATM   36  C13 UNL     1     -33.200  -3.158 -16.026  1.00  0.00     0.148 C
HETATM   37  N5  UNL     1     -32.004  -3.218 -16.829  1.00  0.00    -0.325 N
HETATM   38  C14 UNL     1     -30.851  -3.846 -16.282  1.00  0.00     0.363 C
HETATM   39  C19 UNL     1     -32.009  -2.640 -18.144  1.00  0.00     0.148 C
HETATM   40  O6  UNL     1     -30.854  -4.333 -15.114  1.00  0.00    -0.238 OA
ATOM     41  H3  UNL     1     -37.007  -3.276 -17.145  1.00  0.00     0.165 HD
BRANCH  38  42
HETATM   42  O7  UNL     1     -29.661  -3.963 -16.997  1.00  0.00    -0.294 OA
BRANCH  42  43
HETATM   43  C15 UNL     1     -28.557  -3.115 -16.770  1.00  0.00     0.061 C
HETATM   44  C16 UNL     1     -27.468  -3.757 -15.948  1.00  0.00     0.046 C
HETATM   45  C17 UNL     1     -28.937  -1.799 -16.163  1.00  0.00     0.046 C
HETATM   46  C18 UNL     1     -27.941  -2.822 -18.141  1.00  0.00     0.046 C
ENDBRANCH  42  43
ENDBRANCH  38  42
ENDBRANCH  29  30
BRANCH  29  47
HETATM   47  C21 UNL     1     -39.017  -1.799 -17.692  1.00  0.00    -0.022 C
HETATM   48  C22 UNL     1     -38.225  -1.486 -16.456  1.00  0.00     0.017 C
HETATM   49  C23 UNL     1     -40.270  -2.525 -17.308  1.00  0.00     0.017 C
HETATM   50  C24 UNL     1     -39.465  -0.438 -18.256  1.00  0.00     0.017 C
ENDBRANCH  29  47
ENDBRANCH   3  29
TORSDOF 14
ENDMDL