MODEL 1
REMARK VINA RESULT: -9.178533626      0.000      0.000
REMARK  15 active torsions:
REMARK  status: ('A' for Active; 'I' for Inactive)
REMARK    1  A    between atoms: C2_2  and  C4_4
REMARK    2  A    between atoms: C4_4  and  N1_5
REMARK       I    between atoms: N1_5  and  C5_6
REMARK    3  A    between atoms: C5_6  and  O2_8
REMARK    4  A    between atoms: O2_8  and  C6_9
REMARK    5  A    between atoms: C10_13  and  O3_14
REMARK    6  A    between atoms: C10_13  and  N2_16
REMARK    7  A    between atoms: C13_20  and  O4_21
REMARK    8  A    between atoms: C13_20  and  N4_23
REMARK    9  A    between atoms: N4_23  and  C14_25
REMARK   10  A    between atoms: C14_25  and  C15_26
REMARK   11  A    between atoms: C14_25  and  C20_32
REMARK   12  A    between atoms: C15_26  and  N5_27
REMARK   13  A    between atoms: N5_27  and  C17_29
REMARK   14  A    between atoms: C20_32  and  O5_33
REMARK   15  A    between atoms: C20_32  and  N6_35
ROOT
HETATM    1  N4  UNL     1     -37.926  -2.915 -19.720  1.00  0.00    -0.343 N
ATOM      2  H4  UNL     1     -37.987  -2.754 -20.725  1.00  0.00     0.164 HD
ENDROOT
BRANCH   1   3
HETATM    3  C13 UNL     1     -37.700  -4.220 -19.266  1.00  0.00     0.215 C
HETATM    4  N3  UNL     1     -38.014  -5.480 -19.456  1.00  0.00    -0.345 N
HETATM    5  C12 UNL     1     -37.297  -6.679 -19.095  1.00  0.00     0.146 C
HETATM    6  C32 UNL     1     -39.440  -5.816 -19.893  1.00  0.00     0.146 C
HETATM    7  C11 UNL     1     -38.053  -7.935 -19.668  1.00  0.00     0.145 C
HETATM    8  N2  UNL     1     -39.344  -8.047 -19.107  1.00  0.00    -0.356 N
HETATM    9  C33 UNL     1     -39.892  -6.703 -18.668  1.00  0.00     0.145 C
BRANCH   8  10
HETATM   10  C10 UNL     1     -40.269  -9.076 -19.095  1.00  0.00     0.176 C
HETATM   11  C4  UNL     1     -40.872  -9.820 -20.167  1.00  0.00     0.144 C
BRANCH  11  12
HETATM   12  C2  UNL     1     -40.961  -9.080 -21.506  1.00  0.00     0.046 C
HETATM   13  C1  UNL     1     -39.955  -9.645 -22.498  1.00  0.00     0.017 C
HETATM   14  C3  UNL     1     -42.397  -9.242 -22.038  1.00  0.00     0.017 C
ENDBRANCH  11  12
BRANCH  11  15
HETATM   15  N1  UNL     1     -41.054 -11.123 -20.311  1.00  0.00    -0.345 NA
HETATM   16  C5  UNL     1     -41.249 -12.521 -20.460  1.00  0.00     0.441 C
HETATM   17  O1  UNL     1     -41.223 -13.430 -19.677  1.00  0.00    -0.221 OA
BRANCH  16  18
HETATM   18  O2  UNL     1     -41.534 -12.903 -21.801  1.00  0.00    -0.282 OA
BRANCH  18  19
HETATM   19  C6  UNL     1     -42.737 -13.071 -22.396  1.00  0.00     0.062 C
HETATM   20  C7  UNL     1     -42.588 -12.487 -23.836  1.00  0.00     0.046 C
HETATM   21  C8  UNL     1     -42.964 -14.589 -22.693  1.00  0.00     0.046 C
HETATM   22  C9  UNL     1     -43.966 -12.579 -21.805  1.00  0.00     0.046 C
ENDBRANCH  18  19
ENDBRANCH  16  18
ENDBRANCH  11  15
BRANCH  10  23
HETATM   23  O3  UNL     1     -40.697  -9.413 -17.898  1.00  0.00    -0.344 OA
ATOM     24  H3  UNL     1     -40.166  -9.078 -17.185  1.00  0.00     0.219 HD
ENDBRANCH  10  23
ENDBRANCH   8  10
BRANCH   3  25
HETATM   25  O4  UNL     1     -36.757  -4.081 -18.205  1.00  0.00    -0.333 OA
ATOM     26  H4  UNL     1     -37.166  -3.708 -17.432  1.00  0.00     0.220 HD
ENDBRANCH   3  25
ENDBRANCH   1   3
BRANCH   1  27
HETATM   27  C14 UNL     1     -38.087  -1.720 -18.785  1.00  0.00     0.188 C
BRANCH  27  28
HETATM   28  C15 UNL     1     -39.577  -1.668 -18.651  1.00  0.00     0.305 C
BRANCH  28  29
HETATM   29  N5  UNL     1     -40.179  -1.290 -17.439  1.00  0.00     0.090 N
HETATM   30  C16 UNL     1     -40.911  -2.377 -16.842  1.00  0.00     0.310 C
BRANCH  29  31
HETATM   31  C17 UNL     1     -40.877  -0.039 -17.432  1.00  0.00     0.214 C
HETATM   32  C18 UNL     1     -39.950   1.126 -17.100  1.00  0.00     0.042 C
HETATM   33  C19 UNL     1     -41.976  -0.005 -16.369  1.00  0.00     0.042 C
ENDBRANCH  29  31
ENDBRANCH  28  29
ENDBRANCH  27  28
BRANCH  27  34
HETATM   34  C20 UNL     1     -37.604  -0.545 -19.568  1.00  0.00     0.138 C
BRANCH  34  35
HETATM   35  O5  UNL     1     -38.635  -0.024 -20.199  1.00  0.00    -0.348 OA
ATOM     36  H5  UNL     1     -38.393   0.096 -21.109  1.00  0.00     0.219 HD
ENDBRANCH  34  35
BRANCH  34  37
HETATM   37  N6  UNL     1     -36.344   0.009 -19.702  1.00  0.00    -0.362 N
HETATM   38  C21 UNL     1     -35.278   0.049 -18.775  1.00  0.00     0.127 C
HETATM   39  C22 UNL     1     -35.496   0.339 -17.356  1.00  0.00     0.046 C
HETATM   40  C23 UNL     1     -35.525   1.827 -17.068  1.00  0.00     0.169 C
HETATM   41  O6  UNL     1     -35.531   2.122 -15.741  1.00  0.00    -0.389 OA
HETATM   42  C24 UNL     1     -36.174   3.330 -15.463  1.00  0.00     0.193 C
HETATM   43  C25 UNL     1     -36.338   4.186 -16.670  1.00  0.00     0.193 C
HETATM   44  O7  UNL     1     -36.188   5.554 -16.443  1.00  0.00    -0.387 OA
HETATM   45  C26 UNL     1     -35.572   6.129 -17.559  1.00  0.00     0.193 C
HETATM   46  C27 UNL     1     -36.249   5.710 -18.863  1.00  0.00     0.193 C
HETATM   47  O8  UNL     1     -35.451   5.861 -19.970  1.00  0.00    -0.387 OA
HETATM   48  C28 UNL     1     -35.034   4.651 -20.537  1.00  0.00     0.193 C
HETATM   49  C29 UNL     1     -35.946   4.155 -21.596  1.00  0.00     0.193 C
HETATM   50  O9  UNL     1     -35.782   2.832 -21.973  1.00  0.00    -0.387 OA
HETATM   51  C30 UNL     1     -35.545   2.026 -20.887  1.00  0.00     0.187 C
HETATM   52  C31 UNL     1     -36.094   0.656 -21.024  1.00  0.00     0.151 C
ENDBRANCH  34  37
ENDBRANCH  27  34
ENDBRANCH   1  27
TORSDOF 15
ENDMDL