MODEL 5
REMARK VINA RESULT: -11.061467618      1.854      2.756
REMARK  11 active torsions:
REMARK  status: ('A' for Active; 'I' for Inactive)
REMARK    1  A    between atoms: C5_5  and  S1_6
REMARK    2  A    between atoms: S1_6  and  N1_9
REMARK    3  A    between atoms: N1_9  and  C6_11
REMARK    4  A    between atoms: C7_14  and  C8_15
REMARK    5  A    between atoms: N5_21  and  C10_22
REMARK    6  A    between atoms: C10_22  and  N6_23
REMARK       I    between atoms: N6_23  and  C11_25
REMARK    7  A    between atoms: C11_25  and  C12_27
REMARK       I    between atoms: C12_27  and  N7_29
REMARK    8  A    between atoms: C15_32  and  C16_33
REMARK    9  A    between atoms: C16_33  and  C17_34
REMARK   10  A    between atoms: C20_37  and  C21_38
REMARK   11  A    between atoms: C24_41  and  S2_42
ROOT
HETATM    1  C6  UNL     1     -37.629   2.770 -17.255  1.00  0.00     0.721 A
HETATM    2  N2  UNL     1     -38.885   2.312 -17.209  1.00  0.00    -0.182 N
ATOM      3  H2  UNL     1     -39.704   2.876 -16.984  1.00  0.00     0.184 HD
HETATM    4  C7  UNL     1     -38.912   0.988 -17.505  1.00  0.00     0.141 A
HETATM    5  C9  UNL     1     -37.607   0.640 -17.743  1.00  0.00     0.117 A
HETATM    6  N4  UNL     1     -36.813   1.709 -17.593  1.00  0.00    -0.030 N
HETATM    7  O4  UNL     1     -35.503   1.354 -17.812  1.00  0.00    -0.158 OA
HETATM    8  N5  UNL     1     -35.440   0.004 -17.645  1.00  0.00    -0.138 NA
HETATM    9  C15 UNL     1     -36.641  -0.462 -18.126  1.00  0.00     0.169 C
ENDROOT
BRANCH   9  10
HETATM   10  C16 UNL     1     -36.849  -1.057 -19.428  1.00  0.00     0.013 C
BRANCH  10  11
HETATM   11  C17 UNL     1     -37.530  -2.310 -19.623  1.00  0.00    -0.038 A
HETATM   12  C18 UNL     1     -37.235  -3.429 -18.875  1.00  0.00     0.012 A
HETATM   13  C19 UNL     1     -37.822  -4.656 -19.055  1.00  0.00     0.013 A
HETATM   14  C20 UNL     1     -38.775  -4.829 -20.035  1.00  0.00    -0.026 A
HETATM   15  C28 UNL     1     -39.101  -3.728 -20.807  1.00  0.00     0.013 A
HETATM   16  C29 UNL     1     -38.498  -2.514 -20.605  1.00  0.00     0.012 A
BRANCH  14  17
HETATM   17  C21 UNL     1     -39.409  -6.132 -20.274  1.00  0.00    -0.026 A
HETATM   18  C22 UNL     1     -40.257  -6.684 -19.350  1.00  0.00     0.014 A
HETATM   19  C23 UNL     1     -40.821  -7.947 -19.583  1.00  0.00     0.024 A
HETATM   20  C24 UNL     1     -40.538  -8.642 -20.726  1.00  0.00     0.058 A
HETATM   21  C26 UNL     1     -39.690  -8.101 -21.666  1.00  0.00     0.024 A
HETATM   22  C27 UNL     1     -39.148  -6.862 -21.419  1.00  0.00     0.014 A
BRANCH  20  23
HETATM   23  S2  UNL     1     -41.190 -10.239 -21.056  1.00  0.00     0.171 S
HETATM   24  C25 UNL     1     -42.680 -10.196 -21.968  1.00  0.00     0.167 C
HETATM   25  O7  UNL     1     -41.346 -10.978 -19.744  1.00  0.00    -0.223 OA
HETATM   26  O8  UNL     1     -40.127 -10.993 -21.834  1.00  0.00    -0.223 OA
ENDBRANCH  20  23
ENDBRANCH  14  17
ENDBRANCH  10  11
ENDBRANCH   9  10
BRANCH   8  27
HETATM   27  C10 UNL     1     -34.183  -0.456 -18.035  1.00  0.00     0.248 C
BRANCH  27  28
HETATM   28  N6  UNL     1     -33.185   0.586 -17.758  1.00  0.00    -0.339 N
HETATM   29  C11 UNL     1     -32.265   0.378 -16.649  1.00  0.00     0.310 C
HETATM   30  O5  UNL     1     -32.387  -0.690 -15.998  1.00  0.00    -0.262 OA
ATOM     31  H6  UNL     1     -33.139   1.432 -18.327  1.00  0.00     0.164 HD
BRANCH  29  32
HETATM   32  C12 UNL     1     -31.261   1.345 -16.316  1.00  0.00     0.310 C
HETATM   33  O6  UNL     1     -30.109   1.321 -16.873  1.00  0.00    -0.262 OA
HETATM   34  N7  UNL     1     -31.499   2.360 -15.365  1.00  0.00    -0.353 N
HETATM   35  C13 UNL     1     -32.758   2.469 -14.683  1.00  0.00     0.152 C
HETATM   36  C14 UNL     1     -30.444   3.339 -15.044  1.00  0.00     0.152 C
ENDBRANCH  29  32
ENDBRANCH  27  28
ENDBRANCH   8  27
BRANCH   4  37
HETATM   37  C8  UNL     1     -40.077   0.137 -17.552  1.00  0.00     0.284 C
HETATM   38  N3  UNL     1     -41.171   0.412 -16.692  1.00  0.00    -0.056 NA
HETATM   39  O3  UNL     1     -40.209  -0.855 -18.310  1.00  0.00    -0.269 OA
ENDBRANCH   4  37
BRANCH   1  40
HETATM   40  N1  UNL     1     -37.175   3.938 -17.054  1.00  0.00    -0.110 N
ATOM     41  H1  UNL     1     -37.694   4.441 -16.333  1.00  0.00     0.197 HD
BRANCH  40  42
HETATM   42  S1  UNL     1     -35.937   4.837 -17.691  1.00  0.00     0.276 S
HETATM   43  O1  UNL     1     -36.048   6.268 -17.197  1.00  0.00    -0.200 OA
HETATM   44  O2  UNL     1     -34.599   4.281 -17.174  1.00  0.00    -0.200 OA
BRANCH  42  45
HETATM   45  C5  UNL     1     -35.775   4.894 -19.418  1.00  0.00     0.080 A
HETATM   46  C4  UNL     1     -36.031   3.817 -20.241  1.00  0.00     0.026 A
HETATM   47  C3  UNL     1     -35.892   3.913 -21.601  1.00  0.00     0.008 A
HETATM   48  C2  UNL     1     -35.486   5.088 -22.216  1.00  0.00    -0.062 A
HETATM   49  C1  UNL     1     -35.329   5.228 -23.680  1.00  0.00     0.048 C
HETATM   50  C31 UNL     1     -35.230   6.161 -21.414  1.00  0.00     0.008 A
HETATM   51  C30 UNL     1     -35.369   6.076 -20.044  1.00  0.00     0.026 A
ENDBRANCH  42  45
ENDBRANCH  40  42
ENDBRANCH   1  40
TORSDOF 11
ENDMDL