MODEL 4
REMARK VINA RESULT: -9.100095067      3.186     11.635
REMARK  14 active torsions:
REMARK  status: ('A' for Active; 'I' for Inactive)
REMARK    1  A    between atoms: C2_2  and  C5_5
REMARK    2  A    between atoms: C5_5  and  C6_6
REMARK    3  A    between atoms: C5_5  and  N3_18
REMARK    4  A    between atoms: C6_6  and  N1_7
REMARK    5  A    between atoms: N1_7  and  S1_9
REMARK    6  A    between atoms: S1_9  and  N2_12
REMARK       I    between atoms: N3_18  and  C11_20
REMARK       I    between atoms: C11_20  and  N4_22
REMARK    7  A    between atoms: C15_26  and  N5_27
REMARK    8  A    between atoms: C15_26  and  C16_31
REMARK    9  A    between atoms: N5_27  and  O5_29
REMARK   10  A    between atoms: C16_31  and  O6_32
REMARK   11  A    between atoms: C16_31  and  N6_34
REMARK       I    between atoms: N7_37  and  C19_38
REMARK   12  A    between atoms: C19_38  and  O8_40
REMARK   13  A    between atoms: O8_40  and  C20_41
REMARK   14  A    between atoms: C26_47  and  C27_48
ROOT
HETATM    1  N3  UNL     1     -36.389   1.070 -17.647  1.00  0.00    -0.336 N
ATOM      2  H3  UNL     1     -36.123   1.355 -18.590  1.00  0.00     0.164 HD
HETATM    3  C11 UNL     1     -36.945  -0.201 -17.423  1.00  0.00     0.318 C
HETATM    4  O4  UNL     1     -37.266  -0.533 -16.228  1.00  0.00    -0.247 OA
HETATM    5  N4  UNL     1     -37.160  -1.116 -18.460  1.00  0.00    -0.331 N
HETATM    6  C12 UNL     1     -36.818  -0.791 -19.818  1.00  0.00     0.128 C
HETATM    7  C13 UNL     1     -36.682  -2.111 -20.569  1.00  0.00     0.023 C
HETATM    8  C14 UNL     1     -38.099  -2.704 -20.615  1.00  0.00     0.045 C
HETATM    9  C15 UNL     1     -38.680  -2.843 -19.259  1.00  0.00     0.132 C
HETATM   10  C29 UNL     1     -37.750  -2.410 -18.155  1.00  0.00     0.169 C
ENDROOT
BRANCH   9  11
HETATM   11  N5  UNL     1     -39.784  -1.855 -19.204  1.00  0.00    -0.285 N
ATOM     12  H5  UNL     1     -40.128  -1.415 -20.058  1.00  0.00     0.188 HD
BRANCH  11  13
HETATM   13  O5  UNL     1     -40.265  -1.582 -18.147  1.00  0.00    -0.293 OA
ATOM     14  H5  UNL     1     -41.151  -1.868 -17.955  1.00  0.00     0.244 HD
ENDBRANCH  11  13
ENDBRANCH   9  11
BRANCH   9  15
HETATM   15  C16 UNL     1     -39.215  -4.180 -18.980  1.00  0.00     0.146 C
BRANCH  15  16
HETATM   16  O6  UNL     1     -40.087  -4.273 -17.990  1.00  0.00    -0.347 OA
ATOM     17  H6  UNL     1     -39.842  -4.828 -17.260  1.00  0.00     0.219 HD
ENDBRANCH  15  16
BRANCH  15  18
HETATM   18  N6  UNL     1     -38.962  -5.403 -19.589  1.00  0.00    -0.359 N
HETATM   19  C17 UNL     1     -39.361  -5.782 -20.897  1.00  0.00     0.145 C
HETATM   20  C18 UNL     1     -39.111  -7.277 -21.191  1.00  0.00     0.149 C
HETATM   21  N7  UNL     1     -39.491  -8.075 -20.079  1.00  0.00    -0.310 N
HETATM   22  C19 UNL     1     -40.323  -9.225 -20.148  1.00  0.00     0.364 C
HETATM   23  C26 UNL     1     -38.982  -7.706 -18.770  1.00  0.00     0.208 C
HETATM   24  O7  UNL     1     -40.627  -9.878 -19.092  1.00  0.00    -0.238 OA
HETATM   25  C28 UNL     1     -38.218  -6.422 -18.816  1.00  0.00     0.161 C
BRANCH  22  26
HETATM   26  O8  UNL     1     -40.862  -9.730 -21.316  1.00  0.00    -0.298 OA
BRANCH  26  27
HETATM   27  C20 UNL     1     -40.102 -10.440 -22.262  1.00  0.00     0.133 C
HETATM   28  C21 UNL     1     -39.982  -9.722 -23.583  1.00  0.00     0.032 C
HETATM   29  C22 UNL     1     -38.828 -10.354 -24.332  1.00  0.00     0.002 C
HETATM   30  C23 UNL     1     -38.905 -11.838 -24.434  1.00  0.00     0.000 C
HETATM   31  C24 UNL     1     -39.473 -12.548 -23.255  1.00  0.00     0.002 C
HETATM   32  C25 UNL     1     -40.575 -11.830 -22.542  1.00  0.00     0.032 C
ENDBRANCH  26  27
ENDBRANCH  22  26
BRANCH  23  33
HETATM   33  C27 UNL     1     -38.009  -8.777 -18.371  1.00  0.00     0.198 C
HETATM   34  O9  UNL     1     -37.194  -9.287 -19.187  1.00  0.00    -0.646 OA
HETATM   35  O10 UNL     1     -38.030  -9.200 -17.061  1.00  0.00    -0.646 OA
ENDBRANCH  23  33
ENDBRANCH  15  18
ENDBRANCH   9  15
BRANCH   1  36
HETATM   36  C5  UNL     1     -36.199   1.968 -16.541  1.00  0.00     0.112 C
BRANCH  36  37
HETATM   37  C2  UNL     1     -37.025   3.211 -16.792  1.00  0.00    -0.029 C
HETATM   38  C1  UNL     1     -38.498   2.923 -16.820  1.00  0.00     0.016 C
HETATM   39  C3  UNL     1     -36.779   4.150 -15.620  1.00  0.00     0.016 C
HETATM   40  C4  UNL     1     -36.578   3.928 -18.050  1.00  0.00     0.016 C
ENDBRANCH  36  37
BRANCH  36  41
HETATM   41  C6  UNL     1     -34.744   2.236 -16.335  1.00  0.00     0.159 C
BRANCH  41  42
HETATM   42  N1  UNL     1     -33.881   1.203 -16.831  1.00  0.00    -0.305 N
ATOM     43  H1  UNL     1     -33.578   1.123 -17.801  1.00  0.00     0.173 HD
BRANCH  42  44
HETATM   44  S1  UNL     1     -33.421   0.113 -15.578  1.00  0.00     0.299 S
HETATM   45  O1  UNL     1     -34.455   0.074 -14.480  1.00  0.00    -0.188 OA
HETATM   46  O2  UNL     1     -32.163   0.650 -14.925  1.00  0.00    -0.188 OA
BRANCH  44  47
HETATM   47  N2  UNL     1     -33.059  -1.446 -16.172  1.00  0.00    -0.189 NA
HETATM   48  C7  UNL     1     -33.952  -2.414 -15.669  1.00  0.00     0.135 C
HETATM   49  C8  UNL     1     -34.498  -3.393 -16.669  1.00  0.00     0.183 C
HETATM   50  O3  UNL     1     -33.622  -3.603 -17.734  1.00  0.00    -0.389 OA
HETATM   51  C9  UNL     1     -33.534  -2.391 -18.407  1.00  0.00     0.183 C
HETATM   52  C10 UNL     1     -32.733  -1.443 -17.539  1.00  0.00     0.135 C
ENDBRANCH  44  47
ENDBRANCH  42  44
ENDBRANCH  41  42
ENDBRANCH  36  41
ENDBRANCH   1  36
TORSDOF 14
ENDMDL