MODEL 3
REMARK VINA RESULT: -7.952822470      2.398     10.081
REMARK  14 active torsions:
REMARK  status: ('A' for Active; 'I' for Inactive)
REMARK    1  A    between atoms: C3_5  and  O2_6
REMARK    2  A    between atoms: O2_6  and  C4_7
REMARK    3  A    between atoms: C4_7  and  N2_8
REMARK    4  A    between atoms: C4_7  and  C24_40
REMARK       I    between atoms: N2_8  and  C5_10
REMARK    5  A    between atoms: C5_10  and  C6_12
REMARK       I    between atoms: C6_12  and  N3_14
REMARK    6  A    between atoms: N3_14  and  C7_16
REMARK    7  A    between atoms: C7_16  and  C8_17
REMARK    8  A    between atoms: C7_16  and  C20_36
REMARK       I    between atoms: C8_17  and  N4_19
REMARK    9  A    between atoms: N4_19  and  C9_21
REMARK   10  A    between atoms: C9_21  and  C10_22
REMARK   11  A    between atoms: C9_21  and  C16_32
REMARK   12  A    between atoms: C10_22  and  C11_24
REMARK   13  A    between atoms: C11_24  and  S1_25
REMARK   14  A    between atoms: S1_25  and  C12_28
ROOT
HETATM    1  C6  UNL     1     -38.437  -5.703 -18.796  1.00  0.00     0.310 C
HETATM    2  O4  UNL     1     -39.677  -5.862 -18.712  1.00  0.00    -0.262 OA
HETATM    3  N3  UNL     1     -37.815  -4.436 -18.886  1.00  0.00    -0.339 N
ATOM      4  H3  UNL     1     -36.796  -4.411 -18.927  1.00  0.00     0.163 HD
ENDROOT
BRANCH   3   5
HETATM    5  C7  UNL     1     -38.527  -3.157 -18.924  1.00  0.00     0.184 C
BRANCH   5   6
HETATM    6  C8  UNL     1     -38.146  -2.303 -17.774  1.00  0.00     0.241 C
HETATM    7  O5  UNL     1     -38.926  -2.296 -16.796  1.00  0.00    -0.271 OA
HETATM    8  N4  UNL     1     -36.998  -1.490 -17.693  1.00  0.00    -0.347 N
ATOM      9  H4  UNL     1     -36.354  -1.516 -18.484  1.00  0.00     0.163 HD
BRANCH   8  10
HETATM   10  C9  UNL     1     -36.646  -0.613 -16.575  1.00  0.00     0.162 C
BRANCH  10  11
HETATM   11  C10 UNL     1     -35.311  -1.025 -16.105  1.00  0.00     0.164 C
HETATM   12  O6  UNL     1     -35.122  -1.125 -14.855  1.00  0.00    -0.295 OA
BRANCH  11  13
HETATM   13  C11 UNL     1     -34.107  -1.355 -16.889  1.00  0.00     0.221 C
BRANCH  13  14
HETATM   14  S1  UNL     1     -33.887  -3.129 -17.032  1.00  0.00     0.158 S
HETATM   15  O7  UNL     1     -33.401  -3.692 -15.728  1.00  0.00    -0.227 OA
HETATM   16  O8  UNL     1     -35.228  -3.769 -17.286  1.00  0.00    -0.227 OA
BRANCH  14  17
HETATM   17  C12 UNL     1     -32.725  -3.516 -18.289  1.00  0.00     0.053 C
HETATM   18  C13 UNL     1     -32.894  -2.635 -19.514  1.00  0.00     0.031 C
HETATM   19  C14 UNL     1     -32.793  -4.933 -18.754  1.00  0.00     0.031 C
HETATM   20  C15 UNL     1     -31.321  -3.261 -17.783  1.00  0.00     0.031 C
ENDBRANCH  14  17
ENDBRANCH  13  14
ENDBRANCH  11  13
ENDBRANCH  10  11
BRANCH  10  21
HETATM   21  C16 UNL     1     -36.566   0.814 -17.061  1.00  0.00    -0.024 C
HETATM   22  C17 UNL     1     -35.804   1.751 -16.177  1.00  0.00     0.017 C
HETATM   23  C18 UNL     1     -37.987   1.322 -17.184  1.00  0.00     0.017 C
HETATM   24  C19 UNL     1     -35.945   0.920 -18.434  1.00  0.00     0.017 C
ENDBRANCH  10  21
ENDBRANCH   8  10
ENDBRANCH   5   6
BRANCH   5  25
HETATM   25  C20 UNL     1     -38.447  -2.568 -20.273  1.00  0.00    -0.022 C
HETATM   26  C21 UNL     1     -39.287  -1.272 -20.209  1.00  0.00     0.017 C
HETATM   27  C22 UNL     1     -39.027  -3.458 -21.356  1.00  0.00     0.017 C
HETATM   28  C23 UNL     1     -37.096  -2.135 -20.758  1.00  0.00     0.017 C
ENDBRANCH   5  25
ENDBRANCH   3   5
BRANCH   1  29
HETATM   29  C5  UNL     1     -37.638  -6.921 -18.796  1.00  0.00     0.311 C
HETATM   30  N2  UNL     1     -38.137  -8.221 -18.557  1.00  0.00    -0.326 N
ATOM     31  H2  UNL     1     -39.131  -8.337 -18.358  1.00  0.00     0.165 HD
HETATM   32  O3  UNL     1     -36.385  -6.801 -19.027  1.00  0.00    -0.262 OA
BRANCH  30  33
HETATM   33  C4  UNL     1     -37.264  -9.428 -18.583  1.00  0.00     0.233 C
BRANCH  33  34
HETATM   34  O2  UNL     1     -37.663 -10.271 -19.574  1.00  0.00    -0.336 OA
BRANCH  34  35
HETATM   35  C3  UNL     1     -38.885 -10.167 -20.143  1.00  0.00     0.308 C
HETATM   36  C2  UNL     1     -38.843  -9.648 -21.548  1.00  0.00     0.278 C
HETATM   37  N1  UNL     1     -40.097  -9.900 -22.171  1.00  0.00    -0.234 N
HETATM   38  O1  UNL     1     -37.906  -9.072 -22.165  1.00  0.00    -0.268 OA
HETATM   39  C1  UNL     1     -40.775  -9.171 -23.195  1.00  0.00     0.174 C
HETATM   40  S2  UNL     1     -40.664 -11.339 -21.406  1.00  0.00     0.309 S
HETATM   41  N5  UNL     1     -39.293 -11.599 -20.344  1.00  0.00    -0.160 NA
HETATM   42  O9  UNL     1     -41.908 -11.154 -20.626  1.00  0.00    -0.188 OA
HETATM   43  O10 UNL     1     -40.731 -12.498 -22.362  1.00  0.00    -0.188 OA
HETATM   44  C28 UNL     1     -38.219 -12.089 -21.247  1.00  0.00     0.134 C
ENDBRANCH  34  35
ENDBRANCH  33  34
BRANCH  33  45
HETATM   45  C24 UNL     1     -37.119 -10.058 -17.247  1.00  0.00    -0.007 C
HETATM   46  C25 UNL     1     -36.930 -11.556 -17.293  1.00  0.00     0.019 C
HETATM   47  C26 UNL     1     -36.039  -9.405 -16.460  1.00  0.00     0.019 C
HETATM   48  C27 UNL     1     -38.413  -9.850 -16.449  1.00  0.00     0.019 C
ENDBRANCH  33  45
ENDBRANCH  30  33
ENDBRANCH   1  29
TORSDOF 14
ENDMDL