MODEL 1
REMARK VINA RESULT: -8.143009389      0.000      0.000
REMARK  13 active torsions:
REMARK  status: ('A' for Active; 'I' for Inactive)
REMARK    1  A    between atoms: C2_2  and  C3_3
REMARK    2  A    between atoms: C3_3  and  C4_4
REMARK    3  A    between atoms: C4_4  and  C5_5
REMARK    4  A    between atoms: C5_5  and  C6_6
REMARK    5  A    between atoms: C6_6  and  C7_7
REMARK    6  A    between atoms: C7_7  and  C8_8
REMARK    7  A    between atoms: C10_13  and  C11_14
REMARK    8  A    between atoms: C14_23  and  C15_24
REMARK    9  A    between atoms: C15_24  and  C16_25
REMARK   10  A    between atoms: C16_25  and  C17_26
REMARK   11  A    between atoms: C17_26  and  N4_27
REMARK   12  A    between atoms: N7_32  and  S1_33
REMARK   13  A    between atoms: S1_33  and  C19_36
ROOT
HETATM    1  C8  UNL     1      22.844  46.710  43.715  1.00  0.00     0.198 C
HETATM    2  N1  UNL     1      23.545  45.770  44.555  1.00  0.00    -0.337 N
ATOM      3  H1  UNL     1      24.449  46.119  44.874  1.00  0.00     0.164 HD
HETATM    4  C9  UNL     1      23.258  44.477  45.032  1.00  0.00     0.247 C
HETATM    5  O1  UNL     1      24.231  43.775  45.397  1.00  0.00    -0.271 OA
HETATM    6  C10 UNL     1      21.984  43.744  45.200  1.00  0.00     0.221 C
HETATM    7  N3  UNL     1      20.941  44.544  45.797  1.00  0.00    -0.341 N
ATOM      8  H3  UNL     1      20.246  43.986  46.292  1.00  0.00     0.163 HD
HETATM    9  C13 UNL     1      20.671  45.924  45.846  1.00  0.00     0.242 C
HETATM   10  O2  UNL     1      19.929  46.121  46.885  1.00  0.00    -0.271 OA
HETATM   11  C14 UNL     1      20.902  47.187  45.191  1.00  0.00     0.190 C
HETATM   12  N7  UNL     1      21.844  47.470  44.262  1.00  0.00    -0.271 N
ENDROOT
BRANCH  12  13
HETATM   13  S1  UNL     1      22.365  49.136  44.424  1.00  0.00     0.263 S
HETATM   14  O3  UNL     1      21.301  50.112  44.114  1.00  0.00    -0.200 OA
HETATM   15  O4  UNL     1      23.559  49.411  43.589  1.00  0.00    -0.200 OA
BRANCH  13  16
HETATM   16  C19 UNL     1      22.813  49.449  46.111  1.00  0.00     0.079 A
HETATM   17  C20 UNL     1      23.068  48.411  46.979  1.00  0.00     0.027 A
HETATM   18  C21 UNL     1      23.409  48.725  48.273  1.00  0.00     0.025 A
HETATM   19  C22 UNL     1      23.499  50.029  48.712  1.00  0.00     0.034 A
HETATM   20 CL1  UNL     1      23.940  50.381  50.388  1.00  0.00    -0.084 Cl
HETATM   21  C23 UNL     1      23.244  51.066  47.842  1.00  0.00     0.025 A
HETATM   22  C24 UNL     1      22.903  50.753  46.550  1.00  0.00     0.027 A
ENDBRANCH  13  16
ENDBRANCH  12  13
BRANCH   1  23
HETATM   23  C7  UNL     1      22.479  46.004  42.389  1.00  0.00     0.048 C
BRANCH  23  24
HETATM   24  C6  UNL     1      23.598  46.045  41.420  1.00  0.00     0.004 C
BRANCH  24  25
HETATM   25  C5  UNL     1      23.376  45.138  40.234  1.00  0.00     0.000 C
BRANCH  25  26
HETATM   26  C4  UNL     1      23.588  45.845  38.932  1.00  0.00     0.000 C
BRANCH  26  27
HETATM   27  C3  UNL     1      23.121  44.999  37.791  1.00  0.00    -0.000 C
BRANCH  27  28
HETATM   28  C2  UNL     1      23.984  45.221  36.582  1.00  0.00    -0.005 C
HETATM   29  C1  UNL     1      23.122  45.665  35.403  1.00  0.00     0.005 C
ENDBRANCH  27  28
ENDBRANCH  26  27
ENDBRANCH  25  26
ENDBRANCH  24  25
ENDBRANCH  23  24
ENDBRANCH   1  23
BRANCH  11  30
HETATM   30  C15 UNL     1      19.509  47.649  44.703  1.00  0.00     0.037 C
BRANCH  30  31
HETATM   31  C16 UNL     1      19.242  47.301  43.283  1.00  0.00     0.022 C
BRANCH  31  32
HETATM   32  C17 UNL     1      18.647  45.910  43.254  1.00  0.00     0.122 C
BRANCH  32  33
HETATM   33  N4  UNL     1      18.672  45.319  41.951  1.00  0.00    -0.367 N
HETATM   34  C18 UNL     1      17.577  45.172  41.302  1.00  0.00     0.196 C
HETATM   35  N5  UNL     1      16.307  45.564  41.799  1.00  0.00    -0.067 NA
HETATM   36  N6  UNL     1      17.649  44.578  40.007  1.00  0.00    -0.067 NA
ATOM     37  H4  UNL     1      19.556  45.017  41.540  1.00  0.00     0.161 HD
ENDBRANCH  32  33
ENDBRANCH  31  32
ENDBRANCH  30  31
ENDBRANCH  11  30
BRANCH   6  38
HETATM   38  C11 UNL     1      22.212  42.479  45.997  1.00  0.00     0.008 C
HETATM   39  C12 UNL     1      23.144  42.464  47.151  1.00  0.00     0.065 C
HETATM   40  N2  UNL     1      21.606  41.402  45.694  1.00  0.00    -0.404 N
ATOM     41  H22 UNL     1      20.965  41.412  44.901  1.00  0.00     0.155 HD
ATOM     42  H21 UNL     1      21.758  40.549  46.232  1.00  0.00     0.155 HD
ENDBRANCH   6  38
TORSDOF 13
ENDMDL