MODEL 2
REMARK VINA RESULT: -10.532754371      0.944      1.323
REMARK  16 active torsions:
REMARK  status: ('A' for Active; 'I' for Inactive)
REMARK    1  A    between atoms: C2_2  and  C4_4
REMARK    2  A    between atoms: C4_4  and  C5_5
REMARK    3  A    between atoms: C5_5  and  N1_6
REMARK    4  A    between atoms: C5_5  and  C15_20
REMARK    5  A    between atoms: N1_6  and  C6_8
REMARK    6  A    between atoms: C6_8  and  C7_9
REMARK    7  A    between atoms: C7_9  and  C8_11
REMARK    8  A    between atoms: C8_11  and  O2_12
REMARK    9  A    between atoms: O2_12  and  C9_13
REMARK   10  A    between atoms: N3_26  and  C18_27
REMARK   11  A    between atoms: C18_27  and  O4_28
REMARK   12  A    between atoms: C18_27  and  C19_30
REMARK   13  A    between atoms: C19_30  and  C20_31
REMARK   14  A    between atoms: C19_30  and  C27_38
REMARK   15  A    between atoms: C20_31  and  C21_32
REMARK   16  A    between atoms: C29_42  and  N5_43
ROOT
HETATM    1  C15 UNL     1      21.892  47.185  43.748  1.00  0.00     0.211 C
HETATM    2  N2  UNL     1      22.744  47.145  42.582  1.00  0.00    -0.336 N
ATOM      3  H2  UNL     1      22.439  47.243  41.613  1.00  0.00     0.164 HD
HETATM    4  C16 UNL     1      24.076  46.948  43.018  1.00  0.00     0.237 C
HETATM    5  O3  UNL     1      24.979  46.419  42.344  1.00  0.00    -0.272 OA
HETATM    6  C17 UNL     1      24.088  47.510  44.409  1.00  0.00     0.229 C
HETATM    7  N3  UNL     1      22.725  47.532  44.880  1.00  0.00    -0.333 N
ENDROOT
BRANCH   7   8
HETATM    8  C18 UNL     1      22.276  47.855  46.164  1.00  0.00     0.126 C
BRANCH   8   9
HETATM    9  O4  UNL     1      21.404  47.020  46.659  1.00  0.00    -0.349 OA
ATOM     10  H4  UNL     1      21.777  46.340  47.208  1.00  0.00     0.219 HD
ENDBRANCH   8   9
BRANCH   8  11
HETATM   11  C19 UNL     1      22.616  48.960  47.052  1.00  0.00     0.116 C
BRANCH  11  12
HETATM   12  C20 UNL     1      23.766  48.671  47.974  1.00  0.00     0.057 C
BRANCH  12  13
HETATM   13  C21 UNL     1      23.570  49.324  49.290  1.00  0.00    -0.057 A
HETATM   14  C22 UNL     1      22.801  48.670  50.267  1.00  0.00     0.007 A
HETATM   15  C23 UNL     1      22.615  49.223  51.514  1.00  0.00     0.001 A
HETATM   16  C24 UNL     1      23.162  50.435  51.872  1.00  0.00     0.000 A
HETATM   17  C25 UNL     1      23.918  51.091  50.926  1.00  0.00     0.001 A
HETATM   18  C26 UNL     1      24.106  50.531  49.669  1.00  0.00     0.007 A
ENDBRANCH  12  13
ENDBRANCH  11  12
BRANCH  11  19
HETATM   19  C27 UNL     1      22.633  50.261  46.378  1.00  0.00     0.054 A
HETATM   20  C28 UNL     1      22.083  50.446  45.096  1.00  0.00     0.132 A
HETATM   21  N4  UNL     1      22.255  51.738  44.787  1.00  0.00    -0.200 N
HETATM   22  C29 UNL     1      22.875  52.377  45.788  1.00  0.00     0.675 A
ATOM     23  H4  UNL     1      21.956  52.173  43.915  1.00  0.00     0.183 HD
HETATM   24  N6  UNL     1      23.092  51.463  46.734  1.00  0.00    -0.194 N
ATOM     25  H6  UNL     1      23.553  51.658  47.623  1.00  0.00     0.184 HD
BRANCH  22  26
HETATM   26  N5  UNL     1      23.193  53.644  45.807  1.00  0.00    -0.234 N
ATOM     27  H52 UNL     1      22.955  54.360  45.120  1.00  0.00     0.174 HD
ATOM     28  H51 UNL     1      23.739  54.113  46.530  1.00  0.00     0.174 HD
ENDBRANCH  22  26
ENDBRANCH  11  19
ENDBRANCH   8  11
ENDBRANCH   7   8
BRANCH   1  29
HETATM   29  C5  UNL     1      21.213  45.790  43.928  1.00  0.00     0.124 C
BRANCH  29  30
HETATM   30  C4  UNL     1      22.199  44.743  44.021  1.00  0.00     0.033 C
BRANCH  30  31
HETATM   31  C2  UNL     1      22.749  44.150  45.258  1.00  0.00    -0.021 C
HETATM   32  C1  UNL     1      24.245  43.730  44.944  1.00  0.00     0.009 C
HETATM   33  C3  UNL     1      22.139  42.794  45.639  1.00  0.00     0.009 C
ENDBRANCH  30  31
ENDBRANCH  29  30
BRANCH  29  34
HETATM   34  N1  UNL     1      20.128  45.784  43.097  1.00  0.00    -0.387 N
ATOM     35  H1  UNL     1      20.361  45.751  42.105  1.00  0.00     0.159 HD
BRANCH  34  36
HETATM   36  C6  UNL     1      18.783  45.814  43.359  1.00  0.00     0.136 C
BRANCH  36  37
HETATM   37  C7  UNL     1      18.130  44.546  42.821  1.00  0.00     0.188 C
HETATM   38  O1  UNL     1      18.523  43.473  43.205  1.00  0.00    -0.289 OA
BRANCH  37  39
HETATM   39  C8  UNL     1      17.032  44.632  41.843  1.00  0.00     0.260 C
BRANCH  39  40
HETATM   40  O2  UNL     1      16.913  45.932  41.303  1.00  0.00    -0.340 OA
BRANCH  40  41
HETATM   41  C9  UNL     1      15.688  46.492  40.978  1.00  0.00     0.107 A
HETATM   42  C10 UNL     1      14.474  45.900  41.268  1.00  0.00     0.040 A
HETATM   43  C11 UNL     1      13.278  46.475  40.936  1.00  0.00     0.003 A
HETATM   44  C12 UNL     1      13.241  47.691  40.287  1.00  0.00     0.003 A
HETATM   45  C13 UNL     1      14.431  48.314  39.979  1.00  0.00     0.045 A
HETATM   46  C14 UNL     1      15.622  47.720  40.321  1.00  0.00     0.149 A
HETATM   47  F1  UNL     1      16.816  48.312  40.031  1.00  0.00    -0.203 F
ENDBRANCH  40  41
ENDBRANCH  39  40
ENDBRANCH  37  39
ENDBRANCH  36  37
ENDBRANCH  34  36
ENDBRANCH  29  34
ENDBRANCH   1  29
TORSDOF 16
ENDMDL