MODEL 5
REMARK VINA RESULT: -8.081272432      2.438      5.974
REMARK  17 active torsions:
REMARK  status: ('A' for Active; 'I' for Inactive)
REMARK    1  A    between atoms: N2_7  and  C4_9
REMARK    2  A    between atoms: C4_9  and  C5_10
REMARK    3  A    between atoms: C4_9  and  C18_31
REMARK    4  A    between atoms: C5_10  and  C6_11
REMARK    5  A    between atoms: C6_11  and  C7_12
REMARK    6  A    between atoms: C7_12  and  N3_13
REMARK       I    between atoms: C8_15  and  N5_17
REMARK    7  A    between atoms: N5_17  and  C9_19
REMARK    8  A    between atoms: C9_19  and  C12_22
REMARK    9  A    between atoms: C12_22  and  O2_23
REMARK   10  A    between atoms: C12_22  and  N6_25
REMARK   11  A    between atoms: N6_25  and  C14_27
REMARK   12  A    between atoms: C14_27  and  C15_28
REMARK       I    between atoms: C18_31  and  N7_33
REMARK   13  A    between atoms: N7_33  and  C19_34
REMARK   14  A    between atoms: C19_34  and  C20_35
REMARK   15  A    between atoms: C19_34  and  C24_39
REMARK   16  A    between atoms: C20_35  and  C21_36
REMARK   17  A    between atoms: C24_39  and  O4_40
ROOT
HETATM    1  C4  UNL     1      19.379  45.052  43.307  1.00  0.00     0.190 C
ENDROOT
BRANCH   1   2
HETATM    2  N2  UNL     1      20.200  44.457  44.200  1.00  0.00    -0.360 N
HETATM    3  C3  UNL     1      21.330  44.199  44.633  1.00  0.00     0.130 A
HETATM    4  N1  UNL     1      21.566  43.428  45.768  1.00  0.00    -0.245 N
HETATM    5  C25 UNL     1      22.564  44.527  44.124  1.00  0.00     0.015 A
HETATM    6  O1  UNL     1      22.832  43.327  45.899  1.00  0.00    -0.240 OA
ATOM      7  H1  UNL     1      20.860  43.020  46.380  1.00  0.00     0.196 HD
HETATM    8  C2  UNL     1      23.499  43.946  44.970  1.00  0.00     0.082 A
HETATM    9  C1  UNL     1      24.996  43.988  44.890  1.00  0.00     0.079 C
HETATM   10  C26 UNL     1      22.962  45.278  42.907  1.00  0.00     0.055 C
ATOM     11  H2  UNL     1      19.569  43.979  44.843  1.00  0.00     0.162 HD
ENDBRANCH   1   2
BRANCH   1  12
HETATM   12  C5  UNL     1      19.209  46.523  43.614  1.00  0.00     0.037 C
BRANCH  12  13
HETATM   13  C6  UNL     1      20.398  47.327  43.902  1.00  0.00     0.022 C
BRANCH  13  14
HETATM   14  C7  UNL     1      20.512  47.665  45.394  1.00  0.00     0.122 C
BRANCH  14  15
HETATM   15  N3  UNL     1      21.530  48.675  45.526  1.00  0.00    -0.365 N
HETATM   16  C8  UNL     1      21.521  49.847  45.026  1.00  0.00     0.185 C
HETATM   17  N4  UNL     1      20.449  50.331  44.240  1.00  0.00    -0.064 NA
HETATM   18  N5  UNL     1      22.637  50.719  45.186  1.00  0.00    -0.349 N
ATOM     19  H5  UNL     1      23.356  50.659  44.465  1.00  0.00     0.163 HD
ATOM     20  H3  UNL     1      22.349  48.425  46.080  1.00  0.00     0.162 HD
BRANCH  18  21
HETATM   21  C9  UNL     1      22.880  51.675  46.235  1.00  0.00     0.090 C
HETATM   22  C10 UNL     1      23.766  52.801  45.642  1.00  0.00     0.047 C
HETATM   23  C11 UNL     1      21.521  52.339  46.508  1.00  0.00     0.047 C
BRANCH  21  24
HETATM   24  C12 UNL     1      23.544  51.157  47.423  1.00  0.00     0.141 C
BRANCH  24  25
HETATM   25  O2  UNL     1      24.528  51.909  47.893  1.00  0.00    -0.348 OA
ATOM     26  H2  UNL     1      25.380  51.490  47.921  1.00  0.00     0.219 HD
ENDBRANCH  24  25
BRANCH  24  27
HETATM   27  N6  UNL     1      23.350  49.991  48.182  1.00  0.00    -0.367 N
HETATM   28  C13 UNL     1      23.918  48.756  47.580  1.00  0.00     0.151 C
BRANCH  27  29
HETATM   29  C14 UNL     1      22.657  49.815  49.426  1.00  0.00     0.128 C
BRANCH  29  30
HETATM   30  C15 UNL     1      23.504  49.666  50.651  1.00  0.00    -0.005 C
HETATM   31  C16 UNL     1      22.729  49.055  51.814  1.00  0.00     0.011 C
HETATM   32  C17 UNL     1      23.935  51.071  51.095  1.00  0.00     0.011 C
ENDBRANCH  29  30
ENDBRANCH  27  29
ENDBRANCH  24  27
ENDBRANCH  21  24
ENDBRANCH  18  21
ENDBRANCH  14  15
ENDBRANCH  13  14
ENDBRANCH  12  13
ENDBRANCH   1  12
BRANCH   1  33
HETATM   33  C18 UNL     1      17.913  44.527  43.511  1.00  0.00     0.314 C
HETATM   34  O3  UNL     1      17.705  44.292  44.736  1.00  0.00    -0.255 OA
HETATM   35  N7  UNL     1      17.061  44.369  42.496  1.00  0.00    -0.374 NA
BRANCH  35  36
HETATM   36  C19 UNL     1      16.168  44.203  41.438  1.00  0.00     0.110 C
BRANCH  36  37
HETATM   37  C20 UNL     1      14.895  44.981  41.387  1.00  0.00     0.076 C
BRANCH  37  38
HETATM   38  C21 UNL     1      14.951  46.467  41.424  1.00  0.00    -0.016 C
HETATM   39  C22 UNL     1      15.931  47.143  40.534  1.00  0.00     0.010 C
HETATM   40  C23 UNL     1      13.554  46.914  40.870  1.00  0.00     0.010 C
ENDBRANCH  37  38
ENDBRANCH  36  37
BRANCH  36  41
HETATM   41  C24 UNL     1      16.783  43.847  40.126  1.00  0.00     0.274 C
HETATM   42 CL1  UNL     1      15.690  44.050  38.755  1.00  0.00    -0.088 Cl
BRANCH  41  43
HETATM   43  O4  UNL     1      17.961  44.529  39.863  1.00  0.00    -0.374 OA
ATOM     44  H4  UNL     1      18.713  44.183  40.329  1.00  0.00     0.212 HD
ENDBRANCH  41  43
ENDBRANCH  36  41
ENDBRANCH  35  36
ENDBRANCH   1  33
TORSDOF 17
ENDMDL