MODEL 3
REMARK VINA RESULT: -9.560177758      3.969      9.957
REMARK  17 active torsions:
REMARK  status: ('A' for Active; 'I' for Inactive)
REMARK    1  A    between atoms: C2_2  and  C3_3
REMARK    2  A    between atoms: C6_6  and  C7_7
REMARK    3  A    between atoms: C7_7  and  C8_8
REMARK    4  A    between atoms: C8_8  and  N1_9
REMARK    5  A    between atoms: N1_9  and  C9_11
REMARK    6  A    between atoms: C10_14  and  N3_15
REMARK    7  A    between atoms: N3_15  and  C11_17
REMARK    8  A    between atoms: C11_17  and  C12_18
REMARK    9  A    between atoms: C12_18  and  C13_19
REMARK   10  A    between atoms: C13_19  and  C14_20
REMARK   11  A    between atoms: C14_20  and  N4_21
REMARK   12  A    between atoms: N4_21  and  C15_23
REMARK   13  A    between atoms: C21_34  and  N7_35
REMARK   14  A    between atoms: N7_35  and  C22_37
REMARK   15  A    between atoms: C22_37  and  C23_38
REMARK   16  A    between atoms: C23_38  and  C24_39
REMARK   17  A    between atoms: C24_39  and  N8_40
REMARK       I    between atoms: N8_40  and  C25_42
ROOT
HETATM    1  C9  UNL     1      21.316  48.402  44.284  1.00  0.00     0.710 A
HETATM    2  N2  UNL     1      20.977  47.436  45.131  1.00  0.00    -0.021 N
ATOM      3  H2  UNL     1      20.408  47.693  45.938  1.00  0.00     0.203 HD
HETATM    4  C10 UNL     1      21.336  46.113  44.998  1.00  0.00     0.707 A
HETATM    5  N6  UNL     1      22.082  45.831  43.924  1.00  0.00    -0.022 N
ATOM      6  H6  UNL     1      22.378  44.865  43.780  1.00  0.00     0.203 HD
HETATM    7  C21 UNL     1      22.459  46.744  43.032  1.00  0.00     0.707 A
HETATM    8  N9  UNL     1      22.071  48.031  43.220  1.00  0.00    -0.021 N
ATOM      9  H9  UNL     1      22.355  48.738  42.542  1.00  0.00     0.203 HD
ENDROOT
BRANCH   4  10
HETATM   10  N3  UNL     1      20.956  45.283  45.811  1.00  0.00    -0.225 N
ATOM     11  H3  UNL     1      21.237  45.639  46.725  1.00  0.00     0.177 HD
BRANCH  10  12
HETATM   12  C11 UNL     1      20.336  44.116  46.047  1.00  0.00     0.138 C
BRANCH  12  13
HETATM   13  C12 UNL     1      19.552  43.637  44.817  1.00  0.00     0.025 C
BRANCH  13  14
HETATM   14  C13 UNL     1      18.330  44.473  44.539  1.00  0.00     0.046 C
BRANCH  14  15
HETATM   15  C14 UNL     1      17.315  43.551  43.893  1.00  0.00     0.062 C
BRANCH  15  16
HETATM   16  N4  UNL     1      16.735  43.940  42.716  1.00  0.00    -0.356 N
ATOM     17  H4  UNL     1      16.447  43.099  42.218  1.00  0.00     0.166 HD
BRANCH  16  18
HETATM   18  C15 UNL     1      16.427  44.912  42.026  1.00  0.00     0.104 A
HETATM   19  C16 UNL     1      17.285  45.762  41.354  1.00  0.00     0.050 A
HETATM   20  C17 UNL     1      16.819  46.795  40.618  1.00  0.00     0.029 A
HETATM   21  C18 UNL     1      15.464  47.040  40.510  1.00  0.00     0.056 A
HETATM   22 CL1  UNL     1      14.786  48.347  39.572  1.00  0.00    -0.082 Cl
HETATM   23  C19 UNL     1      14.613  46.189  41.183  1.00  0.00     0.028 A
HETATM   24  C20 UNL     1      13.120  46.408  41.100  1.00  0.00     0.070 C
HETATM   25  N5  UNL     1      15.097  45.183  41.897  1.00  0.00    -0.345 N
ATOM     26  H5  UNL     1      14.435  44.575  42.379  1.00  0.00     0.167 HD
ENDBRANCH  16  18
ENDBRANCH  15  16
ENDBRANCH  14  15
ENDBRANCH  13  14
ENDBRANCH  12  13
ENDBRANCH  10  12
ENDBRANCH   4  10
BRANCH   1  27
HETATM   27  N1  UNL     1      21.033  49.642  44.412  1.00  0.00    -0.204 N
ATOM     28  H1  UNL     1      20.065  49.895  44.215  1.00  0.00     0.183 HD
BRANCH  27  29
HETATM   29  C8  UNL     1      21.862  50.689  44.782  1.00  0.00     0.083 C
BRANCH  29  30
HETATM   30  C7  UNL     1      23.281  50.363  45.161  1.00  0.00     0.083 C
BRANCH  30  31
HETATM   31  C6  UNL     1      23.361  50.104  46.604  1.00  0.00    -0.053 A
HETATM   32  C5  UNL     1      23.571  48.807  47.080  1.00  0.00     0.008 A
HETATM   33  C4  UNL     1      23.646  48.576  48.443  1.00  0.00     0.007 A
HETATM   34  C3  UNL     1      23.518  49.604  49.321  1.00  0.00    -0.059 A
HETATM   35  C28 UNL     1      23.305  50.910  48.847  1.00  0.00     0.007 A
HETATM   36  C27 UNL     1      23.231  51.131  47.497  1.00  0.00     0.008 A
BRANCH  34  37
HETATM   37  C2  UNL     1      23.639  49.440  50.782  1.00  0.00     0.034 C
HETATM   38  C1  UNL     1      23.714  50.827  51.388  1.00  0.00     0.010 C
ENDBRANCH  34  37
ENDBRANCH  30  31
ENDBRANCH  29  30
ENDBRANCH  27  29
ENDBRANCH   1  27
BRANCH   7  39
HETATM   39  N7  UNL     1      23.194  46.437  42.061  1.00  0.00    -0.225 N
ATOM     40  H7  UNL     1      23.874  47.167  41.844  1.00  0.00     0.177 HD
BRANCH  39  41
HETATM   41  C22 UNL     1      23.308  45.337  41.207  1.00  0.00     0.139 C
BRANCH  41  42
HETATM   42  C23 UNL     1      23.633  45.857  39.803  1.00  0.00     0.040 C
BRANCH  42  43
HETATM   43  C24 UNL     1      23.112  44.842  38.836  1.00  0.00     0.124 C
BRANCH  43  44
HETATM   44  N8  UNL     1      23.608  45.075  37.482  1.00  0.00    -0.361 N
HETATM   45  C25 UNL     1      22.678  45.508  36.489  1.00  0.00     0.213 C
HETATM   46  C26 UNL     1      23.182  45.754  35.108  1.00  0.00     0.117 C
HETATM   47  O1  UNL     1      21.453  45.692  36.731  1.00  0.00    -0.274 OA
ATOM     48  H8  UNL     1      24.592  44.932  37.252  1.00  0.00     0.162 HD
ENDBRANCH  43  44
ENDBRANCH  42  43
ENDBRANCH  41  42
ENDBRANCH  39  41
ENDBRANCH   7  39
TORSDOF 17
ENDMDL