MODEL 3
REMARK VINA RESULT: -8.081398810      3.333     10.766
REMARK  16 active torsions:
REMARK  status: ('A' for Active; 'I' for Inactive)
REMARK    1  A    between atoms: N1_2  and  C2_4
REMARK    2  A    between atoms: C3_7  and  N3_8
REMARK    3  A    between atoms: N3_8  and  C4_10
REMARK    4  A    between atoms: C4_10  and  C5_11
REMARK    5  A    between atoms: C8_14  and  N4_15
REMARK       I    between atoms: N4_15  and  C9_17
REMARK    6  A    between atoms: C9_17  and  C10_19
REMARK    7  A    between atoms: C10_19  and  C11_20
REMARK    8  A    between atoms: C11_20  and  C12_21
REMARK    9  A    between atoms: C12_21  and  N5_22
REMARK   10  A    between atoms: C17_29  and  N7_30
REMARK   11  A    between atoms: N7_30  and  C18_32
REMARK   12  A    between atoms: C18_32  and  C19_33
REMARK   13  A    between atoms: C18_32  and  C23_39
REMARK   14  A    between atoms: C19_33  and  N8_34
REMARK   15  A    between atoms: N8_34  and  C20_36
REMARK   16  A    between atoms: C23_39  and  C24_40
ROOT
HETATM    1  C2  UNL     1      20.166  43.871  45.300  1.00  0.00     0.706 A
HETATM    2  N2  UNL     1      21.171  44.319  44.537  1.00  0.00    -0.022 N
ATOM      3  H2  UNL     1      22.131  44.114  44.813  1.00  0.00     0.203 HD
HETATM    4  C3  UNL     1      20.952  45.034  43.411  1.00  0.00     0.707 A
HETATM    5  N6  UNL     1      19.672  45.265  43.110  1.00  0.00    -0.022 N
ATOM      6  H6  UNL     1      19.462  45.802  42.268  1.00  0.00     0.203 HD
HETATM    7  C17 UNL     1      18.620  44.816  43.873  1.00  0.00     0.707 A
HETATM    8  N9  UNL     1      18.885  44.112  44.980  1.00  0.00    -0.022 N
ATOM      9  H9  UNL     1      18.129  43.766  45.569  1.00  0.00     0.203 HD
ENDROOT
BRANCH   4  10
HETATM   10  N3  UNL     1      21.922  45.467  42.672  1.00  0.00    -0.225 N
ATOM     11  H3  UNL     1      22.547  44.813  42.201  1.00  0.00     0.177 HD
BRANCH  10  12
HETATM   12  C4  UNL     1      22.103  46.876  42.527  1.00  0.00     0.142 C
BRANCH  12  13
HETATM   13  C5  UNL     1      22.489  47.560  43.820  1.00  0.00     0.004 C
HETATM   14  C6  UNL     1      23.557  48.565  43.465  1.00  0.00     0.008 C
HETATM   15  C7  UNL     1      23.891  49.322  44.727  1.00  0.00     0.026 C
HETATM   16  C8  UNL     1      22.724  50.291  44.942  1.00  0.00     0.084 C
HETATM   17  C15 UNL     1      21.467  49.739  44.305  1.00  0.00     0.026 C
HETATM   18  C16 UNL     1      21.351  48.244  44.484  1.00  0.00     0.008 C
BRANCH  16  19
HETATM   19  N4  UNL     1      22.544  50.392  46.357  1.00  0.00    -0.356 N
HETATM   20  C9  UNL     1      23.247  51.315  47.178  1.00  0.00     0.217 C
HETATM   21  O1  UNL     1      24.098  52.119  46.674  1.00  0.00    -0.274 OA
ATOM     22  H4  UNL     1      21.874  49.765  46.802  1.00  0.00     0.162 HD
BRANCH  20  23
HETATM   23  C10 UNL     1      22.998  51.347  48.618  1.00  0.00     0.104 C
BRANCH  23  24
HETATM   24  C11 UNL     1      23.879  50.513  49.470  1.00  0.00     0.039 C
BRANCH  24  25
HETATM   25  C12 UNL     1      23.324  49.210  49.932  1.00  0.00     0.271 C
BRANCH  25  26
HETATM   26  N5  UNL     1      23.307  49.149  51.405  1.00  0.00     0.080 N
HETATM   27  C13 UNL     1      23.452  50.498  51.897  1.00  0.00     0.309 C
HETATM   28  C14 UNL     1      22.003  48.663  51.840  1.00  0.00     0.309 C
ENDBRANCH  25  26
ENDBRANCH  24  25
ENDBRANCH  23  24
ENDBRANCH  20  23
ENDBRANCH  16  19
ENDBRANCH  12  13
ENDBRANCH  10  12
ENDBRANCH   4  10
BRANCH   1  29
HETATM   29  N1  UNL     1      20.402  43.192  46.366  1.00  0.00    -0.229 N
HETATM   30  C1  UNL     1      21.588  42.425  46.591  1.00  0.00     0.165 C
ATOM     31  H1  UNL     1      19.695  43.202  47.102  1.00  0.00     0.177 HD
ENDBRANCH   1  29
BRANCH   7  32
HETATM   32  N7  UNL     1      17.427  45.088  43.505  1.00  0.00    -0.219 N
ATOM     33  H7  UNL     1      16.721  44.997  44.235  1.00  0.00     0.178 HD
BRANCH  32  34
HETATM   34  C18 UNL     1      16.927  45.496  42.238  1.00  0.00     0.120 C
BRANCH  34  35
HETATM   35  C19 UNL     1      17.177  44.401  41.195  1.00  0.00     0.140 C
BRANCH  35  36
HETATM   36  N8  UNL     1      15.992  43.620  40.965  1.00  0.00    -0.416 N
ATOM     37  H8  UNL     1      15.528  43.133  41.733  1.00  0.00     0.153 HD
BRANCH  36  38
HETATM   38  C20 UNL     1      15.494  43.545  39.662  1.00  0.00     0.068 C
HETATM   39  C21 UNL     1      15.584  42.239  38.958  1.00  0.00     0.031 C
HETATM   40  C22 UNL     1      16.174  44.617  38.819  1.00  0.00     0.031 C
ENDBRANCH  36  38
ENDBRANCH  35  36
ENDBRANCH  34  35
BRANCH  34  41
HETATM   41  C23 UNL     1      15.427  45.688  42.337  1.00  0.00     0.065 C
BRANCH  41  42
HETATM   42  C24 UNL     1      14.878  46.614  41.326  1.00  0.00    -0.056 A
HETATM   43  C25 UNL     1      15.628  47.595  40.712  1.00  0.00     0.007 A
HETATM   44  C26 UNL     1      15.094  48.446  39.773  1.00  0.00     0.001 A
HETATM   45  C27 UNL     1      13.765  48.362  39.390  1.00  0.00     0.000 A
HETATM   46  C28 UNL     1      13.020  47.389  39.998  1.00  0.00     0.001 A
HETATM   47  C29 UNL     1      13.536  46.531  40.936  1.00  0.00     0.007 A
ENDBRANCH  41  42
ENDBRANCH  34  41
ENDBRANCH  32  34
ENDBRANCH   7  32
TORSDOF 16
ENDMDL