MODEL 5
REMARK VINA RESULT: -7.408000338      3.202     10.475
REMARK  14 active torsions:
REMARK  status: ('A' for Active; 'I' for Inactive)
REMARK       I    between atoms: C1_4  and  N3_6
REMARK    1  A    between atoms: C5_10  and  C6_11
REMARK       I    between atoms: C6_11  and  N4_13
REMARK    2  A    between atoms: N4_13  and  C7_15
REMARK    3  A    between atoms: C7_15  and  C8_16
REMARK    4  A    between atoms: C7_15  and  C24_41
REMARK    5  A    between atoms: C8_16  and  C9_17
REMARK    6  A    between atoms: C9_17  and  C10_18
REMARK    7  A    between atoms: C13_21  and  O2_22
REMARK    8  A    between atoms: O2_22  and  C14_23
REMARK    9  A    between atoms: C14_23  and  C15_24
REMARK   10  A    between atoms: C17_29  and  C18_30
REMARK   11  A    between atoms: C18_30  and  C19_31
REMARK   12  A    between atoms: C19_31  and  C20_32
REMARK   13  A    between atoms: C20_32  and  N6_33
REMARK   14  A    between atoms: C24_41  and  C25_42
ROOT
HETATM    1  C8  UNL     1      20.475  46.286  46.218  1.00  0.00     0.030 C
ENDROOT
BRANCH   1   2
HETATM    2  C7  UNL     1      21.624  46.911  45.554  1.00  0.00     0.089 C
BRANCH   2   3
HETATM    3  N4  UNL     1      22.212  47.778  46.665  1.00  0.00    -0.354 N
HETATM    4  C6  UNL     1      23.124  48.745  46.279  1.00  0.00     0.241 C
HETATM    5  O1  UNL     1      23.428  48.870  45.044  1.00  0.00    -0.271 OA
ATOM      6  H4  UNL     1      21.946  47.651  47.641  1.00  0.00     0.162 HD
BRANCH   4   7
HETATM    7  C5  UNL     1      23.777  49.661  47.217  1.00  0.00     0.179 C
HETATM    8  N3  UNL     1      23.128  50.932  47.377  1.00  0.00    -0.342 N
HETATM    9  C1  UNL     1      23.076  51.952  46.398  1.00  0.00     0.184 C
HETATM   10  C2  UNL     1      22.543  51.025  48.708  1.00  0.00     0.126 C
HETATM   11  N1  UNL     1      22.217  52.913  46.458  1.00  0.00    -0.374 N
HETATM   12  N2  UNL     1      23.972  51.955  45.304  1.00  0.00    -0.064 NA
ATOM     13  H12 UNL     1      22.179  53.648  45.752  1.00  0.00     0.158 HD
ATOM     14  H11 UNL     1      21.571  52.910  47.247  1.00  0.00     0.158 HD
HETATM   15  C3  UNL     1      23.479  50.146  49.519  1.00  0.00     0.022 C
HETATM   16  C4  UNL     1      23.761  49.027  48.570  1.00  0.00     0.037 C
ENDBRANCH   4   7
ENDBRANCH   2   3
BRANCH   2  17
HETATM   17  C24 UNL     1      22.751  46.088  45.112  1.00  0.00     0.063 C
BRANCH  17  18
HETATM   18  C25 UNL     1      23.059  45.905  43.694  1.00  0.00    -0.056 A
HETATM   19  C26 UNL     1      23.462  44.671  43.193  1.00  0.00     0.010 A
HETATM   20  C27 UNL     1      23.676  44.466  41.867  1.00  0.00     0.043 A
HETATM   21  C28 UNL     1      23.498  45.494  40.952  1.00  0.00     0.116 A
HETATM   22  F1  UNL     1      23.694  45.345  39.631  1.00  0.00    -0.206 F
HETATM   23  C29 UNL     1      23.099  46.724  41.416  1.00  0.00     0.043 A
HETATM   24  C30 UNL     1      22.889  46.917  42.749  1.00  0.00     0.010 A
ENDBRANCH  17  18
ENDBRANCH   2  17
ENDBRANCH   1   2
BRANCH   1  25
HETATM   25  C9  UNL     1      20.161  44.857  46.028  1.00  0.00     0.040 C
BRANCH  25  26
HETATM   26  C10 UNL     1      19.316  44.769  44.775  1.00  0.00    -0.058 A
HETATM   27  C11 UNL     1      18.243  43.918  44.743  1.00  0.00     0.010 A
HETATM   28  C12 UNL     1      17.431  43.824  43.633  1.00  0.00     0.037 A
HETATM   29  C13 UNL     1      17.719  44.625  42.520  1.00  0.00     0.068 A
HETATM   30  C22 UNL     1      18.839  45.491  42.599  1.00  0.00     0.037 A
HETATM   31  C23 UNL     1      19.635  45.574  43.700  1.00  0.00     0.010 A
BRANCH  29  32
HETATM   32  O2  UNL     1      16.981  44.567  41.459  1.00  0.00    -0.350 OA
BRANCH  32  33
HETATM   33  C14 UNL     1      16.242  44.553  40.403  1.00  0.00     0.189 C
BRANCH  33  34
HETATM   34  C15 UNL     1      15.586  45.860  39.971  1.00  0.00     0.107 C
HETATM   35  C16 UNL     1      16.371  47.083  40.287  1.00  0.00     0.247 C
HETATM   36  N5  UNL     1      15.363  48.128  40.242  1.00  0.00    -0.063 N
HETATM   37  C17 UNL     1      14.164  47.553  40.824  1.00  0.00     0.255 C
ATOM     38  H52 UNL     1      15.656  48.996  40.690  1.00  0.00     0.278 HD
ATOM     39  H51 UNL     1      15.217  48.514  39.309  1.00  0.00     0.278 HD
HETATM   40  C21 UNL     1      14.322  46.089  40.694  1.00  0.00     0.165 C
HETATM   41  O3  UNL     1      13.568  45.236  41.099  1.00  0.00    -0.295 OA
BRANCH  37  42
HETATM   42  C18 UNL     1      12.892  48.033  40.161  1.00  0.00     0.042 C
BRANCH  42  43
HETATM   43  C19 UNL     1      12.966  47.958  38.658  1.00  0.00     0.030 C
BRANCH  43  44
HETATM   44  C20 UNL     1      11.562  48.003  38.080  1.00  0.00     0.230 C
BRANCH  44  45
HETATM   45  N6  UNL     1      11.479  48.885  36.935  1.00  0.00    -0.079 N
ATOM     46  H63 UNL     1      11.824  48.428  36.089  1.00  0.00     0.274 HD
ATOM     47  H62 UNL     1      10.511  49.036  36.651  1.00  0.00     0.274 HD
ATOM     48  H61 UNL     1      11.959  49.769  37.101  1.00  0.00     0.274 HD
ENDBRANCH  44  45
ENDBRANCH  43  44
ENDBRANCH  42  43
ENDBRANCH  37  42
ENDBRANCH  33  34
ENDBRANCH  32  33
ENDBRANCH  29  32
ENDBRANCH  25  26
ENDBRANCH   1  25
TORSDOF 14
ENDMDL