MODEL 1
REMARK VINA RESULT: -7.168814264      0.000      0.000
REMARK  16 active torsions:
REMARK  status: ('A' for Active; 'I' for Inactive)
REMARK    1  A    between atoms: C2_2  and  C4_5
REMARK    2  A    between atoms: C4_5  and  N1_6
REMARK    3  A    between atoms: C4_5  and  C9_20
REMARK    4  A    between atoms: N1_6  and  C5_8
REMARK    5  A    between atoms: C5_8  and  C6_9
REMARK    6  A    between atoms: C6_9  and  C7_10
REMARK    7  A    between atoms: C7_10  and  C8_11
REMARK    8  A    between atoms: C8_11  and  N2_12
REMARK    9  A    between atoms: N2_12  and  S1_14
REMARK   10  A    between atoms: S1_14  and  N3_15
REMARK   11  A    between atoms: C23_34  and  C24_35
REMARK       I    between atoms: C24_35  and  N4_37
REMARK   12  A    between atoms: N4_37  and  C25_39
REMARK   13  A    between atoms: C25_39  and  C26_40
REMARK   14  A    between atoms: C26_40  and  C27_41
REMARK   15  A    between atoms: C27_41  and  C28_42
REMARK   16  A    between atoms: C28_42  and  N5_43
ROOT
HETATM    1  C9  UNL     1      20.484  45.746  43.482  1.00  0.00     0.025 C
HETATM    2  C10 UNL     1      19.767  46.986  43.717  1.00  0.00     0.008 C
HETATM    3  C11 UNL     1      20.820  48.036  43.294  1.00  0.00     0.012 C
HETATM    4  C12 UNL     1      22.012  47.496  44.049  1.00  0.00    -0.017 C
HETATM    5  C13 UNL     1      21.677  47.604  45.554  1.00  0.00    -0.004 C
HETATM    6  C14 UNL     1      22.900  47.266  46.408  1.00  0.00     0.010 C
HETATM    7  C15 UNL     1      24.044  48.197  46.159  1.00  0.00    -0.013 C
HETATM    8  C16 UNL     1      23.623  49.595  46.505  1.00  0.00     0.009 C
HETATM    9  C17 UNL     1      22.400  49.918  45.659  1.00  0.00    -0.013 C
HETATM   10  C18 UNL     1      21.259  48.981  45.958  1.00  0.00     0.010 C
HETATM   11  C19 UNL     1      22.792  49.784  44.235  1.00  0.00     0.014 C
HETATM   12  C20 UNL     1      23.189  48.340  43.847  1.00  0.00    -0.035 C
HETATM   13  C21 UNL     1      23.691  48.525  42.434  1.00  0.00     0.016 C
HETATM   14  C22 UNL     1      24.390  48.047  44.689  1.00  0.00     0.014 C
HETATM   15  C23 UNL     1      21.980  46.083  43.694  1.00  0.00     0.093 C
ENDROOT
BRANCH   1  16
HETATM   16  C4  UNL     1      20.103  44.481  44.184  1.00  0.00     0.120 C
BRANCH  16  17
HETATM   17  C2  UNL     1      20.629  44.235  45.509  1.00  0.00     0.116 C
HETATM   18  C1  UNL     1      19.792  43.277  46.348  1.00  0.00     0.053 C
HETATM   19  C3  UNL     1      22.049  43.801  45.563  1.00  0.00     0.053 C
HETATM   20  F1  UNL     1      20.669  45.406  46.315  1.00  0.00    -0.242 F
ENDBRANCH  16  17
BRANCH  16  21
HETATM   21  N1  UNL     1      18.702  44.313  44.116  1.00  0.00    -0.413 N
ATOM     22  H1  UNL     1      18.163  44.599  44.933  1.00  0.00     0.153 HD
BRANCH  21  23
HETATM   23  C5  UNL     1      17.994  43.798  43.050  1.00  0.00     0.114 C
BRANCH  23  24
HETATM   24  C6  UNL     1      16.929  44.820  42.549  1.00  0.00     0.021 C
BRANCH  24  25
HETATM   25  C7  UNL     1      17.384  45.557  41.340  1.00  0.00     0.022 C
BRANCH  25  26
HETATM   26  C8  UNL     1      16.159  45.756  40.438  1.00  0.00     0.133 C
BRANCH  26  27
HETATM   27  N2  UNL     1      15.816  47.177  40.440  1.00  0.00    -0.303 N
ATOM     28  H2  UNL     1      16.506  47.923  40.529  1.00  0.00     0.173 HD
BRANCH  27  29
HETATM   29  S1  UNL     1      14.142  47.457  40.279  1.00  0.00     0.312 S
HETATM   30  O1  UNL     1      13.781  48.787  40.885  1.00  0.00    -0.183 OA
HETATM   31  O2  UNL     1      13.726  47.390  38.837  1.00  0.00    -0.183 OA
BRANCH  29  32
HETATM   32  N3  UNL     1      13.282  46.258  41.164  1.00  0.00    -0.312 N
ATOM     33  H32 UNL     1      13.342  45.255  40.991  1.00  0.00     0.170 HD
ATOM     34  H31 UNL     1      12.713  46.713  41.878  1.00  0.00     0.170 HD
ENDBRANCH  29  32
ENDBRANCH  27  29
ENDBRANCH  26  27
ENDBRANCH  25  26
ENDBRANCH  24  25
ENDBRANCH  23  24
ENDBRANCH  21  23
ENDBRANCH  16  21
ENDBRANCH   1  16
BRANCH  15  35
HETATM   35  C24 UNL     1      22.800  45.575  42.593  1.00  0.00     0.223 C
HETATM   36  O3  UNL     1      23.884  45.007  42.906  1.00  0.00    -0.273 OA
HETATM   37  N4  UNL     1      22.528  45.642  41.223  1.00  0.00    -0.361 N
ATOM     38  H4  UNL     1      21.667  46.087  40.907  1.00  0.00     0.162 HD
BRANCH  37  39
HETATM   39  C25 UNL     1      23.434  45.098  40.253  1.00  0.00     0.122 C
BRANCH  39  40
HETATM   40  C26 UNL     1      23.552  45.910  39.003  1.00  0.00     0.021 C
BRANCH  40  41
HETATM   41  C27 UNL     1      23.314  44.974  37.836  1.00  0.00     0.029 C
BRANCH  41  42
HETATM   42  C28 UNL     1      24.004  45.457  36.581  1.00  0.00     0.229 C
BRANCH  42  43
HETATM   43  N5  UNL     1      24.485  46.812  36.718  1.00  0.00    -0.079 N
ATOM     44  H53 UNL     1      23.726  47.486  36.621  1.00  0.00     0.274 HD
ATOM     45  H52 UNL     1      24.757  47.013  37.681  1.00  0.00     0.274 HD
ATOM     46  H51 UNL     1      25.245  47.014  36.068  1.00  0.00     0.274 HD
ENDBRANCH  42  43
ENDBRANCH  41  42
ENDBRANCH  40  41
ENDBRANCH  39  40
ENDBRANCH  37  39
ENDBRANCH  15  35
TORSDOF 16
ENDMDL