MODEL 1
REMARK VINA RESULT: -9.590805300      0.000      0.000
REMARK  15 active torsions:
REMARK  status: ('A' for Active; 'I' for Inactive)
REMARK    1  A    between atoms: C2_2  and  C3_3
REMARK    2  A    between atoms: N2_7  and  C5_8
REMARK    3  A    between atoms: C5_8  and  C6_9
REMARK    4  A    between atoms: C10_14  and  C11_15
REMARK    5  A    between atoms: C11_15  and  C12_16
REMARK    6  A    between atoms: C12_16  and  C14_19
REMARK    7  A    between atoms: C14_19  and  N4_20
REMARK    8  A    between atoms: N4_20  and  C15_23
REMARK    9  A    between atoms: C15_23  and  C16_24
REMARK   10  A    between atoms: C15_23  and  C23_33
REMARK   11  A    between atoms: C16_24  and  C17_25
REMARK   12  A    between atoms: C20_28  and  O1_29
REMARK   13  A    between atoms: C23_33  and  O2_34
REMARK   14  A    between atoms: C23_33  and  C24_36
REMARK   15  A    between atoms: C24_36  and  C25_37
ROOT
HETATM    1  C12 UNL     1      20.453  45.889  45.630  1.00  0.00     0.122 C
HETATM    2  C13 UNL     1      21.191  44.606  45.773  1.00  0.00     0.066 C
HETATM    3  N3  UNL     1      21.751  43.591  45.893  1.00  0.00    -0.197 NA
ENDROOT
BRANCH   1   4
HETATM    4  C11 UNL     1      20.213  46.204  44.176  1.00  0.00     0.059 C
BRANCH   4   5
HETATM    5  C10 UNL     1      19.049  45.459  43.646  1.00  0.00    -0.053 A
HETATM    6  C9  UNL     1      18.432  44.505  44.420  1.00  0.00     0.049 A
HETATM    7  C8  UNL     1      17.348  43.782  43.917  1.00  0.00     0.117 A
HETATM    8  C7  UNL     1      16.892  44.030  42.624  1.00  0.00     0.051 A
HETATM    9  F1  UNL     1      16.703  42.836  44.634  1.00  0.00    -0.206 F
HETATM   10  C6  UNL     1      17.499  44.979  41.841  1.00  0.00    -0.035 A
HETATM   11  C29 UNL     1      18.575  45.679  42.377  1.00  0.00     0.016 A
BRANCH  10  12
HETATM   12  C5  UNL     1      17.106  45.328  40.454  1.00  0.00     0.187 C
BRANCH  12  13
HETATM   13  N2  UNL     1      16.185  46.410  40.334  1.00  0.00    -0.292 N
HETATM   14  N1  UNL     1      16.503  47.662  40.118  1.00  0.00    -0.309 N
HETATM   15  C4  UNL     1      15.413  48.428  40.074  1.00  0.00     0.116 A
ATOM     16  H1  UNL     1      17.457  48.005  39.999  1.00  0.00     0.186 HD
HETATM   17  C3  UNL     1      14.333  47.592  40.276  1.00  0.00    -0.018 A
HETATM   18  C30 UNL     1      14.856  46.336  40.437  1.00  0.00     0.032 A
HETATM   19  C31 UNL     1      14.031  45.095  40.669  1.00  0.00     0.070 C
BRANCH  17  20
HETATM   20  C2  UNL     1      12.890  47.944  40.319  1.00  0.00     0.037 C
HETATM   21  C1  UNL     1      12.307  47.947  38.930  1.00  0.00     0.010 C
ENDBRANCH  17  20
ENDBRANCH  12  13
ENDBRANCH  10  12
ENDBRANCH   4   5
ENDBRANCH   1   4
BRANCH   1  22
HETATM   22  C14 UNL     1      21.387  46.929  46.205  1.00  0.00     0.252 C
BRANCH  22  23
HETATM   23  N4  UNL     1      21.449  48.042  45.320  1.00  0.00    -0.067 N
ATOM     24  H42 UNL     1      21.393  47.729  44.351  1.00  0.00     0.277 HD
ATOM     25  H41 UNL     1      20.591  48.590  45.378  1.00  0.00     0.277 HD
BRANCH  23  26
HETATM   26  C15 UNL     1      22.615  48.901  45.510  1.00  0.00     0.218 C
BRANCH  26  27
HETATM   27  C16 UNL     1      23.484  48.426  46.605  1.00  0.00     0.074 C
BRANCH  27  28
HETATM   28  C17 UNL     1      23.526  49.214  47.847  1.00  0.00    -0.056 A
HETATM   29  C18 UNL     1      23.820  48.626  49.083  1.00  0.00     0.010 A
HETATM   30  C19 UNL     1      23.855  49.333  50.252  1.00  0.00     0.037 A
HETATM   31  C20 UNL     1      23.593  50.676  50.245  1.00  0.00     0.065 A
HETATM   32  C21 UNL     1      23.297  51.291  49.027  1.00  0.00     0.037 A
HETATM   33  C22 UNL     1      23.266  50.579  47.867  1.00  0.00     0.010 A
BRANCH  31  34
HETATM   34  O1  UNL     1      23.618  51.426  51.416  1.00  0.00    -0.361 OA
ATOM     35  H1  UNL     1      23.213  51.111  52.215  1.00  0.00     0.217 HD
ENDBRANCH  31  34
ENDBRANCH  27  28
ENDBRANCH  26  27
BRANCH  26  36
HETATM   36  C23 UNL     1      23.222  49.077  44.154  1.00  0.00     0.149 C
BRANCH  36  37
HETATM   37  O2  UNL     1      24.527  49.474  44.112  1.00  0.00    -0.393 OA
ATOM     38  H2  UNL     1      24.892  49.655  43.253  1.00  0.00     0.210 HD
ENDBRANCH  36  37
BRANCH  36  39
HETATM   39  C24 UNL     1      22.871  47.963  43.185  1.00  0.00     0.048 C
BRANCH  39  40
HETATM   40  C25 UNL     1      24.117  47.296  42.636  1.00  0.00     0.082 C
HETATM   41  C26 UNL     1      23.612  46.192  41.688  1.00  0.00     0.034 C
HETATM   42  C27 UNL     1      22.945  45.218  42.663  1.00  0.00     0.123 C
HETATM   43  N5  UNL     1      23.755  45.367  43.869  1.00  0.00    -0.361 N
HETATM   44  C28 UNL     1      24.719  46.420  43.691  1.00  0.00     0.222 C
ATOM     45  H5  UNL     1      23.653  44.806  44.714  1.00  0.00     0.162 HD
HETATM   46  O3  UNL     1      25.779  46.492  44.319  1.00  0.00    -0.273 OA
ENDBRANCH  39  40
ENDBRANCH  36  39
ENDBRANCH  26  36
ENDBRANCH  23  26
ENDBRANCH  22  23
ENDBRANCH   1  22
TORSDOF 15
ENDMDL