MODEL 1
REMARK VINA RESULT: -9.313169928      0.000      0.000
REMARK  14 active torsions:
REMARK  status: ('A' for Active; 'I' for Inactive)
REMARK       I    between atoms: N2_3  and  C2_5
REMARK    1  A    between atoms: N4_7  and  C3_9
REMARK    2  A    between atoms: C3_9  and  C4_10
REMARK    3  A    between atoms: C4_10  and  C5_11
REMARK    4  A    between atoms: C5_11  and  C6_12
REMARK    5  A    between atoms: C6_12  and  C7_13
REMARK    6  A    between atoms: C6_12  and  N5_20
REMARK    7  A    between atoms: C7_13  and  C8_14
REMARK    8  A    between atoms: N5_20  and  S1_22
REMARK    9  A    between atoms: S1_22  and  N6_25
REMARK   10  A    between atoms: N6_25  and  C14_27
REMARK   11  A    between atoms: C14_27  and  C15_28
REMARK   12  A    between atoms: C18_31  and  C19_32
REMARK   13  A    between atoms: C19_32  and  N7_33
REMARK   14  A    between atoms: N7_33  and  C20_35
ROOT
HETATM    1  N1  UNL     1      26.750  54.478  46.336  1.00  0.00    -0.172 NA
HETATM    2  C1  UNL     1      25.604  54.431  46.161  1.00  0.00     0.184 C
HETATM    3  N2  UNL     1      24.211  54.373  45.947  1.00  0.00    -0.268 N
ATOM      4  H2  UNL     1      23.729  55.201  45.596  1.00  0.00     0.180 HD
HETATM    5  C2  UNL     1      23.463  53.199  46.205  1.00  0.00     0.197 C
HETATM    6  N3  UNL     1      24.091  52.168  46.949  1.00  0.00    -0.063 NA
HETATM    7  N4  UNL     1      22.276  53.044  45.798  1.00  0.00    -0.364 N
ATOM      8  H4  UNL     1      21.874  53.817  45.267  1.00  0.00     0.162 HD
ENDROOT
BRANCH   7   9
HETATM    9  C3  UNL     1      21.439  51.911  46.000  1.00  0.00     0.122 C
BRANCH   9  10
HETATM   10  C4  UNL     1      21.178  51.122  44.707  1.00  0.00     0.022 C
BRANCH  10  11
HETATM   11  C5  UNL     1      22.469  50.816  44.048  1.00  0.00     0.028 C
BRANCH  11  12
HETATM   12  C6  UNL     1      23.103  49.503  44.375  1.00  0.00     0.099 C
BRANCH  12  13
HETATM   13  C7  UNL     1      23.846  48.803  43.327  1.00  0.00     0.064 C
BRANCH  13  14
HETATM   14  C8  UNL     1      23.757  47.379  43.165  1.00  0.00    -0.056 A
HETATM   15  C9  UNL     1      24.458  46.527  43.983  1.00  0.00     0.007 A
HETATM   16  C10 UNL     1      24.400  45.153  43.848  1.00  0.00     0.001 A
HETATM   17  C11 UNL     1      23.633  44.585  42.882  1.00  0.00     0.000 A
HETATM   18  C12 UNL     1      22.913  45.429  42.040  1.00  0.00     0.001 A
HETATM   19  C13 UNL     1      22.986  46.796  42.192  1.00  0.00     0.007 A
ENDBRANCH  13  14
ENDBRANCH  12  13
BRANCH  12  20
HETATM   20  N5  UNL     1      23.803  49.550  45.639  1.00  0.00    -0.298 N
ATOM     21  H5  UNL     1      24.640  50.117  45.776  1.00  0.00     0.174 HD
BRANCH  20  22
HETATM   22  S1  UNL     1      23.141  48.600  46.877  1.00  0.00     0.315 S
HETATM   23  O1  UNL     1      24.054  47.436  47.249  1.00  0.00    -0.183 OA
HETATM   24  O2  UNL     1      22.802  49.397  48.112  1.00  0.00    -0.183 OA
BRANCH  22  25
HETATM   25  N6  UNL     1      21.676  47.883  46.329  1.00  0.00    -0.299 N
ATOM     26  H6  UNL     1      20.773  48.350  46.245  1.00  0.00     0.174 HD
BRANCH  25  27
HETATM   27  C14 UNL     1      21.953  46.500  46.008  1.00  0.00     0.172 C
BRANCH  27  28
HETATM   28  C15 UNL     1      20.849  45.890  45.217  1.00  0.00    -0.040 A
HETATM   29  C16 UNL     1      20.505  44.573  45.417  1.00  0.00     0.009 A
HETATM   30  C17 UNL     1      19.490  43.946  44.716  1.00  0.00     0.009 A
HETATM   31  C18 UNL     1      18.774  44.650  43.770  1.00  0.00    -0.041 A
HETATM   32  C25 UNL     1      19.122  45.969  43.574  1.00  0.00     0.009 A
HETATM   33  C26 UNL     1      20.136  46.604  44.271  1.00  0.00     0.009 A
BRANCH  31  34
HETATM   34  C19 UNL     1      17.677  44.056  42.984  1.00  0.00     0.159 C
BRANCH  34  35
HETATM   35  N7  UNL     1      17.610  44.713  41.709  1.00  0.00    -0.372 N
ATOM     36  H7  UNL     1      18.369  44.569  41.043  1.00  0.00     0.161 HD
BRANCH  35  37
HETATM   37  C20 UNL     1      16.632  45.475  41.373  1.00  0.00     0.101 A
HETATM   38  C21 UNL     1      16.819  46.624  40.665  1.00  0.00     0.050 A
HETATM   39  C22 UNL     1      15.706  47.405  40.331  1.00  0.00     0.029 A
HETATM   40  C23 UNL     1      14.474  46.967  40.739  1.00  0.00     0.049 A
HETATM   41 CL1  UNL     1      13.018  47.868  40.376  1.00  0.00    -0.083 Cl
HETATM   42  C24 UNL     1      14.325  45.789  41.461  1.00  0.00     0.113 A
HETATM   43  N8  UNL     1      15.400  45.054  41.773  1.00  0.00    -0.351 N
ATOM     44  H8  UNL     1      15.297  44.188  42.303  1.00  0.00     0.166 HD
ENDBRANCH  35  37
ENDBRANCH  34  35
ENDBRANCH  31  34
ENDBRANCH  27  28
ENDBRANCH  25  27
ENDBRANCH  22  25
ENDBRANCH  20  22
ENDBRANCH  12  20
ENDBRANCH  11  12
ENDBRANCH  10  11
ENDBRANCH   9  10
ENDBRANCH   7   9
TORSDOF 14
ENDMDL