MODEL 2
REMARK VINA RESULT: -9.167561354      1.165      1.599
REMARK  11 active torsions:
REMARK  status: ('A' for Active; 'I' for Inactive)
REMARK    1  A    between atoms: N1_2  and  C2_4
REMARK    2  A    between atoms: C2_4  and  C4_6
REMARK       I    between atoms: C4_6  and  N2_8
REMARK    3  A    between atoms: N2_8  and  C5_10
REMARK    4  A    between atoms: C5_10  and  C6_11
REMARK    5  A    between atoms: C5_10  and  C13_18
REMARK       I    between atoms: C13_18  and  N3_20
REMARK    6  A    between atoms: C19_27  and  C20_28
REMARK    7  A    between atoms: C20_28  and  N4_29
REMARK    8  A    between atoms: C20_28  and  C30_42
REMARK    9  A    between atoms: N4_29  and  C21_32
REMARK   10  A    between atoms: C21_32  and  C23_35
REMARK   11  A    between atoms: C23_35  and  C24_36
ROOT
HETATM    1  C21 UNL     1      19.360  45.147  43.110  1.00  0.00     0.296 C
HETATM    2  C22 UNL     1      18.496  44.297  43.950  1.00  0.00     0.092 C
HETATM    3  N5  UNL     1      17.855  43.642  44.623  1.00  0.00    -0.195 NA
ENDROOT
BRANCH   1   4
HETATM    4  N4  UNL     1      20.351  45.821  43.956  1.00  0.00    -0.045 N
ATOM      5  H42 UNL     1      19.905  46.453  44.621  1.00  0.00     0.279 HD
ATOM      6  H41 UNL     1      20.891  46.505  43.426  1.00  0.00     0.279 HD
BRANCH   4   7
HETATM    7  C20 UNL     1      21.229  44.850  44.639  1.00  0.00     0.285 C
BRANCH   7   8
HETATM    8  C19 UNL     1      22.582  44.920  44.184  1.00  0.00     0.071 C
HETATM    9  C14 UNL     1      23.510  45.965  44.627  1.00  0.00    -0.004 C
HETATM   10  N3  UNL     1      23.429  47.106  45.355  1.00  0.00    -0.332 N
HETATM   11  C15 UNL     1      24.667  46.121  43.558  1.00  0.00     0.053 C
HETATM   12  C13 UNL     1      22.766  47.700  46.415  1.00  0.00     0.248 C
ATOM     13  H3  UNL     1      24.106  47.773  44.985  1.00  0.00     0.168 HD
HETATM   14  O2  UNL     1      21.829  47.313  47.093  1.00  0.00    -0.271 OA
HETATM   15  C16 UNL     1      24.116  47.050  42.538  1.00  0.00     0.006 C
HETATM   16  C17 UNL     1      22.754  46.479  42.126  1.00  0.00     0.001 C
HETATM   17  C18 UNL     1      22.569  45.067  42.580  1.00  0.00     0.013 C
BRANCH  12  18
HETATM   18  C5  UNL     1      23.318  49.078  46.842  1.00  0.00     0.200 C
BRANCH  18  19
HETATM   19  N2  UNL     1      22.572  50.156  46.426  1.00  0.00    -0.339 N
HETATM   20  C4  UNL     1      22.934  51.516  46.233  1.00  0.00     0.264 C
HETATM   21  O1  UNL     1      24.158  51.812  46.526  1.00  0.00    -0.266 OA
ATOM     22  H2  UNL     1      21.596  49.942  46.223  1.00  0.00     0.164 HD
BRANCH  20  23
HETATM   23  C2  UNL     1      22.077  52.581  45.742  1.00  0.00     0.069 C
HETATM   24  C3  UNL     1      20.625  52.384  45.787  1.00  0.00     0.074 C
BRANCH  23  25
HETATM   25  N1  UNL     1      22.560  53.931  45.715  1.00  0.00    -0.393 N
HETATM   26  C1  UNL     1      21.487  54.910  45.728  1.00  0.00     0.146 C
ATOM     27  H1  UNL     1      23.550  54.178  45.689  1.00  0.00     0.159 HD
ENDBRANCH  23  25
ENDBRANCH  20  23
ENDBRANCH  18  19
BRANCH  18  28
HETATM   28  C6  UNL     1      23.726  48.789  48.217  1.00  0.00     0.010 C
HETATM   29  C7  UNL     1      23.401  49.367  49.468  1.00  0.00    -0.081 C
HETATM   30  C8  UNL     1      23.735  50.839  49.641  1.00  0.00     0.034 C
HETATM   31  C12 UNL     1      22.278  49.001  50.355  1.00  0.00     0.034 C
HETATM   32  C9  UNL     1      23.639  51.172  51.109  1.00  0.00     0.004 C
HETATM   33  C10 UNL     1      23.839  49.975  51.994  1.00  0.00     0.001 C
HETATM   34  C11 UNL     1      22.786  48.925  51.805  1.00  0.00     0.004 C
ENDBRANCH  18  28
ENDBRANCH  12  18
ENDBRANCH   7   8
BRANCH   7  35
HETATM   35  C30 UNL     1      20.697  44.909  45.985  1.00  0.00     0.262 C
HETATM   36  N6  UNL     1      19.878  45.931  46.539  1.00  0.00    -0.060 NA
HETATM   37  O3  UNL     1      20.923  43.974  46.837  1.00  0.00    -0.275 OA
ENDBRANCH   7  35
ENDBRANCH   4   7
ENDBRANCH   1   4
BRANCH   1  38
HETATM   38  C23 UNL     1      18.444  46.163  42.493  1.00  0.00     0.086 C
BRANCH  38  39
HETATM   39  C24 UNL     1      17.435  45.678  41.531  1.00  0.00    -0.055 A
HETATM   40  C25 UNL     1      17.326  44.427  41.034  1.00  0.00     0.007 A
HETATM   41  C26 UNL     1      16.369  44.141  40.045  1.00  0.00     0.001 A
HETATM   42  C27 UNL     1      15.506  45.075  39.534  1.00  0.00     0.000 A
HETATM   43  C28 UNL     1      15.622  46.345  40.041  1.00  0.00     0.001 A
HETATM   44  C29 UNL     1      16.547  46.645  41.006  1.00  0.00     0.007 A
ENDBRANCH  38  39
ENDBRANCH   1  38
TORSDOF 11
ENDMDL