MODEL 5
REMARK VINA RESULT: -6.678246243      2.389      5.340
REMARK  5 active torsions:
REMARK  status: ('A' for Active; 'I' for Inactive)
REMARK    1  A    between atoms: C2_2  and  N2_6
REMARK    2  A    between atoms: N2_6  and  C3_8
REMARK    3  A    between atoms: C3_8  and  C4_9
REMARK       I    between atoms: N3_13  and  C7_14
REMARK    4  A    between atoms: C7_14  and  O3_16
REMARK    5  A    between atoms: O3_16  and  C8_17
ROOT
HETATM    1  C4  UNL     1      -0.845  83.071  27.357  1.00  0.00     0.026 C
HETATM    2  C5  UNL     1      -2.037  82.181  27.482  1.00  0.00     0.036 C
HETATM    3  C6  UNL     1      -3.008  82.428  26.335  1.00  0.00     0.202 C
HETATM    4  O1  UNL     1      -3.445  83.703  26.375  1.00  0.00    -0.274 OA
HETATM    5  N3  UNL     1      -2.531  84.618  26.524  1.00  0.00    -0.201 N
HETATM    6  C7  UNL     1      -2.825  85.934  25.989  1.00  0.00     0.387 C
HETATM    7  O2  UNL     1      -3.919  86.098  25.415  1.00  0.00    -0.236 OA
HETATM    8  C14 UNL     1      -1.278  84.499  27.166  1.00  0.00     0.168 C
ENDROOT
BRANCH   6   9
HETATM    9  O3  UNL     1      -1.977  87.003  26.080  1.00  0.00    -0.297 OA
BRANCH   9  10
HETATM   10  C8  UNL     1      -1.439  87.736  25.025  1.00  0.00     0.133 C
HETATM   11  C9  UNL     1      -0.735  88.994  25.471  1.00  0.00     0.032 C
HETATM   12  C10 UNL     1       0.578  89.223  24.815  1.00  0.00     0.002 C
HETATM   13  C11 UNL     1       0.684  88.811  23.390  1.00  0.00     0.000 C
HETATM   14  C12 UNL     1      -0.090  87.594  23.013  1.00  0.00     0.002 C
HETATM   15  C13 UNL     1      -0.448  86.844  24.283  1.00  0.00     0.032 C
ENDBRANCH   9  10
ENDBRANCH   6   9
BRANCH   1  16
HETATM   16  C3  UNL     1       0.179  82.661  26.348  1.00  0.00     0.127 C
BRANCH  16  17
HETATM   17  N2  UNL     1       1.458  83.268  26.401  1.00  0.00    -0.380 N
ATOM     18  H2  UNL     1       1.485  84.281  26.523  1.00  0.00     0.160 HD
BRANCH  17  19
HETATM   19  C2  UNL     1       2.694  82.605  26.302  1.00  0.00     0.066 C
HETATM   20  C1  UNL     1       3.748  83.058  25.316  1.00  0.00     0.088 C
HETATM   21  N1  UNL     1       2.919  81.566  27.061  1.00  0.00    -0.389 N
ATOM     22  H12 UNL     1       3.815  81.085  26.989  1.00  0.00     0.157 HD
ATOM     23  H11 UNL     1       2.208  81.261  27.726  1.00  0.00     0.157 HD
ENDBRANCH  17  19
ENDBRANCH  16  17
ENDBRANCH   1  16
TORSDOF 5
ENDMDL