MODEL 4
REMARK VINA RESULT: -5.660785664      3.078      5.427
REMARK  6 active torsions:
REMARK  status: ('A' for Active; 'I' for Inactive)
REMARK    1  A    between atoms: C2_2  and  N1_3
REMARK    2  A    between atoms: C2_2  and  C3_7
REMARK    3  A    between atoms: C3_7  and  S1_8
REMARK    4  A    between atoms: S1_8  and  C4_9
REMARK    5  A    between atoms: C4_9  and  C6_14
REMARK    6  A    between atoms: C9_17  and  C10_18
ROOT
HETATM    1  C4  UNL     1       0.549  83.559  26.441  1.00  0.00     0.077 C
HETATM    2  N2  UNL     1       1.603  82.939  26.585  1.00  0.00    -0.290 N
ATOM      3  H2  UNL     1       1.619  82.313  27.390  1.00  0.00     0.178 HD
HETATM    4  C5  UNL     1       2.746  82.946  25.855  1.00  0.00     0.182 C
HETATM    5  N3  UNL     1       3.756  82.936  25.244  1.00  0.00    -0.172 NA
ENDROOT
BRANCH   1   6
HETATM    6  S1  UNL     1      -0.783  83.304  27.616  1.00  0.00    -0.112 SA
BRANCH   6   7
HETATM    7  C3  UNL     1      -2.086  82.257  27.034  1.00  0.00     0.113 C
BRANCH   7   8
HETATM    8  C2  UNL     1      -3.014  82.966  26.108  1.00  0.00     0.189 C
HETATM    9  C1  UNL     1      -4.189  82.015  25.834  1.00  0.00     0.040 C
BRANCH   8  10
HETATM   10  N1  UNL     1      -3.562  84.191  26.564  1.00  0.00    -0.075 N
ATOM     11  H13 UNL     1      -3.932  84.768  25.809  1.00  0.00     0.274 HD
ATOM     12  H12 UNL     1      -4.435  84.071  27.079  1.00  0.00     0.274 HD
ATOM     13  H11 UNL     1      -2.839  84.661  27.109  1.00  0.00     0.274 HD
ENDBRANCH   8  10
ENDBRANCH   7   8
ENDBRANCH   6   7
ENDBRANCH   1   6
BRANCH   1  14
HETATM   14  C6  UNL     1       0.249  84.502  25.351  1.00  0.00     0.164 C
HETATM   15  C7  UNL     1       1.510  85.276  24.994  1.00  0.00     0.033 C
HETATM   16  C8  UNL     1       1.220  86.636  24.461  1.00  0.00     0.037 C
HETATM   17  C9  UNL     1      -0.190  86.900  24.066  1.00  0.00     0.154 C
HETATM   18  O1  UNL     1      -1.147  86.090  24.617  1.00  0.00    -0.280 OA
HETATM   19  N4  UNL     1      -0.749  85.437  25.733  1.00  0.00    -0.089 NA
BRANCH  17  20
HETATM   20  C10 UNL     1      -0.611  88.340  24.268  1.00  0.00    -0.023 C
HETATM   21  C11 UNL     1      -1.812  88.462  25.169  1.00  0.00     0.017 C
HETATM   22  C12 UNL     1       0.551  89.025  24.982  1.00  0.00     0.017 C
HETATM   23  C13 UNL     1      -0.812  89.084  22.979  1.00  0.00     0.017 C
ENDBRANCH  17  20
ENDBRANCH   1  14
TORSDOF 6
ENDMDL