MODEL 1
REMARK VINA RESULT: -6.061872718      0.000      0.000
REMARK  4 active torsions:
REMARK  status: ('A' for Active; 'I' for Inactive)
REMARK    1  A    between atoms: C3_4  and  S1_5
REMARK    2  A    between atoms: S1_5  and  C4_6
REMARK    3  A    between atoms: C10_13  and  S3_14
REMARK    4  A    between atoms: S3_14  and  N2_15
ROOT
HETATM    1  N1  UNL     1       1.344  83.231  26.188  1.00  0.00    -0.100 NA
HETATM    2  C1  UNL     1       0.337  84.212  25.787  1.00  0.00     0.078 A
HETATM    3  C2  UNL     1       0.652  85.318  25.080  1.00  0.00     0.054 A
HETATM    4  C3  UNL     1      -0.367  86.166  24.760  1.00  0.00     0.044 A
HETATM    5  S2  UNL     1      -1.730  85.417  25.443  1.00  0.00    -0.068 SA
HETATM    6  C10 UNL     1      -0.982  84.045  26.120  1.00  0.00     0.145 A
ENDROOT
BRANCH   4   7
HETATM    7  S1  UNL     1      -0.346  87.712  23.845  1.00  0.00    -0.118 SA
BRANCH   7   8
HETATM    8  C4  UNL     1       1.222  88.575  24.165  1.00  0.00     0.053 C
HETATM    9  C5  UNL     1       0.924  90.067  23.959  1.00  0.00     0.015 C
HETATM   10  C6  UNL     1       0.697  90.231  22.463  1.00  0.00     0.001 C
HETATM   11  C7  UNL     1       1.971  89.965  21.714  1.00  0.00     0.000 C
HETATM   12  C8  UNL     1       2.987  89.277  22.594  1.00  0.00     0.001 C
HETATM   13  C9  UNL     1       2.280  88.080  23.223  1.00  0.00     0.015 C
ENDBRANCH   7   8
ENDBRANCH   4   7
BRANCH   6  14
HETATM   14  S3  UNL     1      -1.704  82.708  27.033  1.00  0.00     0.265 S
HETATM   15  O1  UNL     1      -1.563  81.410  26.300  1.00  0.00    -0.200 OA
HETATM   16  O2  UNL     1      -1.038  82.687  28.375  1.00  0.00    -0.200 OA
BRANCH  14  17
HETATM   17  N2  UNL     1      -3.368  83.126  27.263  1.00  0.00    -0.324 N
ATOM     18  H22 UNL     1      -3.735  83.779  27.956  1.00  0.00     0.169 HD
ATOM     19  H21 UNL     1      -3.893  82.591  26.572  1.00  0.00     0.169 HD
ENDBRANCH  14  17
ENDBRANCH   6  14
TORSDOF 4
ENDMDL