MODEL 2
REMARK VINA RESULT: -6.946804851      1.017      1.977
REMARK  4 active torsions:
REMARK  status: ('A' for Active; 'I' for Inactive)
REMARK    1  A    between atoms: C2_2  and  C3_3
REMARK    2  A    between atoms: C3_3  and  O1_4
REMARK    3  A    between atoms: O1_4  and  C4_5
REMARK       I    between atoms: C4_5  and  N1_7
REMARK       I    between atoms: N1_7  and  C5_9
REMARK       I    between atoms: C5_9  and  N2_11
REMARK    4  A    between atoms: N2_11  and  C6_13
ROOT
HETATM    1  C4  UNL     1       0.067  83.773  26.160  1.00  0.00     0.368 C
HETATM    2  O2  UNL     1      -0.342  82.752  26.839  1.00  0.00    -0.238 OA
HETATM    3  N1  UNL     1      -0.854  84.770  25.769  1.00  0.00    -0.255 N
ATOM      4  H1  UNL     1      -1.823  84.628  26.053  1.00  0.00     0.175 HD
HETATM    5  C5  UNL     1      -0.586  85.925  25.041  1.00  0.00     0.326 C
HETATM    6  O3  UNL     1      -1.584  86.705  24.794  1.00  0.00    -0.247 OA
HETATM    7  N2  UNL     1       0.680  86.313  24.550  1.00  0.00    -0.310 N
ATOM      8  H2  UNL     1       1.487  85.715  24.728  1.00  0.00     0.167 HD
ENDROOT
BRANCH   7   9
HETATM    9  C6  UNL     1       0.859  87.528  23.805  1.00  0.00     0.139 C
HETATM   10  C7  UNL     1      -0.349  88.036  23.090  1.00  0.00     0.062 C
HETATM   11  C8  UNL     1      -0.105  89.550  22.961  1.00  0.00     0.017 C
HETATM   12  C9  UNL     1       1.280  89.706  23.533  1.00  0.00    -0.009 C
HETATM   13  C10 UNL     1       1.699  91.051  23.902  1.00  0.00     0.018 C
HETATM   14  C11 UNL     1       1.155  88.728  24.724  1.00  0.00     0.073 C
HETATM   15  C12 UNL     1       2.259  88.888  22.719  1.00  0.00     0.064 C
HETATM   16  C13 UNL     1       3.664  89.082  23.290  1.00  0.00     0.046 C
HETATM   17  C14 UNL     1       2.307  89.250  21.280  1.00  0.00     0.046 C
HETATM   18  O4  UNL     1       1.936  87.550  22.957  1.00  0.00    -0.350 OA
ENDBRANCH   7   9
BRANCH   1  19
HETATM   19  O1  UNL     1       1.412  83.754  25.890  1.00  0.00    -0.304 OA
BRANCH  19  20
HETATM   20  C3  UNL     1       2.333  82.766  26.261  1.00  0.00     0.180 C
BRANCH  20  21
HETATM   21  C2  UNL     1       3.652  82.827  25.549  1.00  0.00     0.022 C
HETATM   22  C1  UNL     1       4.745  82.114  26.317  1.00  0.00     0.007 C
ENDBRANCH  20  21
ENDBRANCH  19  20
ENDBRANCH   1  19
TORSDOF 4
ENDMDL