MODEL 3
REMARK VINA RESULT: -6.987074018      3.868      4.448
REMARK  5 active torsions:
REMARK  status: ('A' for Active; 'I' for Inactive)
REMARK    1  A    between atoms: O1_1  and  C1_3
REMARK    2  A    between atoms: C3_5  and  C4_6
REMARK    3  A    between atoms: C4_6  and  O2_7
REMARK    4  A    between atoms: C4_6  and  N1_9
REMARK    5  A    between atoms: N2_16  and  C10_17
ROOT
HETATM    1  C1  UNL     1      -1.234  82.152  26.695  1.00  0.00     0.142 A
HETATM    2  C2  UNL     1      -2.309  82.917  27.143  1.00  0.00     0.069 A
HETATM    3  C3  UNL     1      -1.836  84.194  27.269  1.00  0.00     0.020 A
HETATM    4  C9  UNL     1      -0.510  84.165  26.898  1.00  0.00     0.105 A
HETATM    5  N2  UNL     1      -0.146  82.919  26.548  1.00  0.00    -0.333 N
ENDROOT
BRANCH   3   6
HETATM    6  C4  UNL     1      -2.529  85.416  27.706  1.00  0.00     0.392 C
BRANCH   6   7
HETATM    7  O2  UNL     1      -2.272  85.659  29.077  1.00  0.00    -0.364 OA
ATOM      8  H2  UNL     1      -1.572  86.294  29.171  1.00  0.00     0.212 HD
ENDBRANCH   6   7
BRANCH   6   9
HETATM    9  N1  UNL     1      -2.172  86.605  26.981  1.00  0.00     0.125 N
HETATM   10  C5  UNL     1      -2.606  87.720  27.839  1.00  0.00     0.302 C
HETATM   11  C6  UNL     1      -2.328  89.041  27.212  1.00  0.00     0.198 C
HETATM   12  O3  UNL     1      -2.979  89.131  25.995  1.00  0.00    -0.388 OA
HETATM   13  C7  UNL     1      -3.748  88.016  25.712  1.00  0.00     0.198 C
HETATM   14  C8  UNL     1      -2.880  86.762  25.742  1.00  0.00     0.302 C
ENDBRANCH   6   9
ENDBRANCH   3   6
BRANCH   1  15
HETATM   15  O1  UNL     1      -1.321  80.774  26.441  1.00  0.00    -0.346 OA
ATOM     16  H1  UNL     1      -0.719  80.309  25.873  1.00  0.00     0.219 HD
ENDBRANCH   1  15
BRANCH   5  17
HETATM   17  C10 UNL     1       1.161  82.503  26.104  1.00  0.00     0.091 C
HETATM   18  C11 UNL     1       1.834  81.839  27.284  1.00  0.00     0.026 C
HETATM   19  C12 UNL     1       3.195  81.304  26.978  1.00  0.00     0.002 C
HETATM   20  C13 UNL     1       4.057  82.507  26.571  1.00  0.00     0.000 C
HETATM   21  C14 UNL     1       3.420  83.098  25.358  1.00  0.00     0.002 C
HETATM   22  C15 UNL     1       2.021  83.623  25.625  1.00  0.00     0.026 C
ENDBRANCH   5  17
TORSDOF 5
ENDMDL