MODEL 5
REMARK VINA RESULT: -6.509646467      1.057      1.815
REMARK  3 active torsions:
REMARK  status: ('A' for Active; 'I' for Inactive)
REMARK    1  A    between atoms: C2_2  and  C3_3
REMARK    2  A    between atoms: C2_2  and  N5_18
REMARK    3  A    between atoms: C5_5  and  N1_6
ROOT
HETATM    1  C3  UNL     1      -1.624  85.152  25.638  1.00  0.00    -0.008 A
HETATM    2  C4  UNL     1      -1.131  86.180  24.862  1.00  0.00     0.066 A
HETATM    3  C5  UNL     1       0.195  86.276  24.514  1.00  0.00     0.175 A
HETATM    4  N2  UNL     1       1.096  85.341  24.924  1.00  0.00    -0.323 N
ATOM      5  H2  UNL     1       2.079  85.417  24.661  1.00  0.00     0.169 HD
HETATM    6  C6  UNL     1       0.669  84.315  25.684  1.00  0.00     0.122 A
HETATM    7  N3  UNL     1       1.577  83.453  26.024  1.00  0.00    -0.384 N
ATOM      8  H31 UNL     1       1.254  82.676  26.599  1.00  0.00     0.157 HD
ATOM      9  H32 UNL     1       2.560  83.524  25.764  1.00  0.00     0.157 HD
HETATM   10  C7  UNL     1      -0.662  84.219  26.036  1.00  0.00     0.096 A
HETATM   11  C8  UNL     1      -1.085  83.107  26.822  1.00  0.00     0.104 C
HETATM   12  N4  UNL     1      -1.433  82.202  27.438  1.00  0.00    -0.191 NA
ENDROOT
BRANCH   1  13
HETATM   13  C2  UNL     1      -3.030  85.083  26.092  1.00  0.00     0.110 C
HETATM   14  C1  UNL     1      -3.960  84.633  24.988  1.00  0.00     0.037 C
BRANCH  13  15
HETATM   15  N5  UNL     1      -3.493  86.370  26.624  1.00  0.00    -0.405 N
HETATM   16  C9  UNL     1      -2.620  86.942  27.593  1.00  0.00     0.117 C
HETATM   17  C10 UNL     1      -2.443  88.436  27.322  1.00  0.00     0.019 C
HETATM   18  C11 UNL     1      -3.565  89.108  28.116  1.00  0.00     0.002 C
HETATM   19  C12 UNL     1      -4.886  88.626  27.551  1.00  0.00     0.002 C
HETATM   20  C13 UNL     1      -4.822  88.383  26.086  1.00  0.00     0.019 C
HETATM   21  C14 UNL     1      -4.025  87.225  25.626  1.00  0.00     0.117 C
ENDBRANCH  13  15
ENDBRANCH   1  13
BRANCH   3  22
HETATM   22  N1  UNL     1       0.698  87.363  23.761  1.00  0.00    -0.098 N
HETATM   23  O1  UNL     1       1.681  87.959  24.198  1.00  0.00    -0.531 OA
HETATM   24  O2  UNL     1       0.118  87.736  22.555  1.00  0.00    -0.531 OA
ENDBRANCH   3  22
TORSDOF 3
ENDMDL