MODEL 2
REMARK VINA RESULT: -5.880136611      2.567      5.025
REMARK  3 active torsions:
REMARK  status: ('A' for Active; 'I' for Inactive)
REMARK    1  A    between atoms: C4_4  and  N1_5
REMARK       I    between atoms: N2_9  and  C8_10
REMARK       I    between atoms: C8_10  and  N4_14
REMARK    2  A    between atoms: N4_14  and  C9_16
REMARK    3  A    between atoms: C12_19  and  N5_20
ROOT
HETATM    1  N1  UNL     1      -1.364  85.041  25.731  1.00  0.00    -0.271 N
HETATM    2  C5  UNL     1      -0.268  84.087  25.955  1.00  0.00     0.152 C
HETATM    3  C6  UNL     1      -0.772  83.522  27.306  1.00  0.00     0.044 C
HETATM    4  C7  UNL     1      -2.247  83.264  26.996  1.00  0.00     0.170 C
HETATM    5  N2  UNL     1      -2.545  84.322  26.044  1.00  0.00    -0.122 N
HETATM    6  C8  UNL     1      -3.818  84.593  25.512  1.00  0.00     0.689 C
HETATM    7  N3  UNL     1      -4.628  85.402  26.089  1.00  0.00    -0.233 N
ATOM      8  H31 UNL     1      -5.552  85.599  25.704  1.00  0.00     0.174 HD
ATOM      9  H32 UNL     1      -4.334  85.857  26.954  1.00  0.00     0.174 HD
HETATM   10  N4  UNL     1      -4.227  83.962  24.312  1.00  0.00    -0.221 N
ATOM     11  H4  UNL     1      -3.568  83.950  23.534  1.00  0.00     0.178 HD
ENDROOT
BRANCH   1  12
HETATM   12  C4  UNL     1      -1.298  86.376  25.316  1.00  0.00     0.111 A
HETATM   13  C3  UNL     1      -0.604  86.842  24.191  1.00  0.00     0.068 A
HETATM   14  C2  UNL     1      -0.793  88.185  24.116  1.00  0.00     0.054 A
HETATM   15  C1  UNL     1      -0.243  89.126  23.075  1.00  0.00     0.077 C
HETATM   16  O3  UNL     1      -1.547  88.535  25.117  1.00  0.00    -0.292 OA
HETATM   17  C12 UNL     1      -1.878  87.476  25.870  1.00  0.00     0.243 A
BRANCH  17  18
HETATM   18  N5  UNL     1      -2.697  87.601  27.028  1.00  0.00    -0.088 N
HETATM   19  O1  UNL     1      -2.408  87.001  28.078  1.00  0.00    -0.530 OA
HETATM   20  O2  UNL     1      -3.821  88.367  27.050  1.00  0.00    -0.530 OA
ENDBRANCH  17  18
ENDBRANCH   1  12
BRANCH  10  21
HETATM   21  C9  UNL     1      -5.498  83.342  24.116  1.00  0.00     0.091 C
HETATM   22  C10 UNL     1      -5.488  82.328  22.993  1.00  0.00     0.032 C
HETATM   23  C11 UNL     1      -6.525  84.385  23.780  1.00  0.00     0.032 C
ENDBRANCH  10  21
TORSDOF 3
ENDMDL