MODEL 1
REMARK VINA RESULT: -7.214320829      0.000      0.000
REMARK  4 active torsions:
REMARK  status: ('A' for Active; 'I' for Inactive)
REMARK    1  A    between atoms: C2_2  and  N1_4
REMARK    2  A    between atoms: C4_7  and  C5_8
REMARK    3  A    between atoms: C5_8  and  O1_9
REMARK    4  A    between atoms: C5_8  and  C6_11
ROOT
HETATM    1  N1  UNL     1      -0.083  85.941  24.779  1.00  0.00    -0.291 N
HETATM    2  N2  UNL     1      -1.383  85.895  24.990  1.00  0.00    -0.299 N
ATOM      3  H2  UNL     1      -2.054  86.594  24.672  1.00  0.00     0.187 HD
HETATM    4  C4  UNL     1      -1.692  84.798  25.682  1.00  0.00     0.067 A
HETATM    5  C11 UNL     1      -0.519  84.125  25.915  1.00  0.00     0.016 A
HETATM    6  C12 UNL     1       0.489  84.863  25.336  1.00  0.00     0.041 A
HETATM    7  C13 UNL     1       1.916  84.438  25.383  1.00  0.00     0.085 C
HETATM    8  C14 UNL     1       1.988  83.058  26.053  1.00  0.00     0.174 C
HETATM    9  O2  UNL     1       1.103  83.017  27.146  1.00  0.00    -0.386 OA
HETATM   10  C15 UNL     1      -0.167  82.870  26.606  1.00  0.00     0.210 C
ENDROOT
BRANCH   4  11
HETATM   11  C5  UNL     1      -3.032  84.361  26.133  1.00  0.00     0.200 C
BRANCH  11  12
HETATM   12  O1  UNL     1      -3.528  85.389  26.970  1.00  0.00    -0.387 OA
ATOM     13  H1  UNL     1      -4.415  85.141  27.203  1.00  0.00     0.210 HD
ENDBRANCH  11  12
BRANCH  11  14
HETATM   14  C6  UNL     1      -4.014  84.241  24.997  1.00  0.00     0.220 C
HETATM   15  C7  UNL     1      -4.315  82.836  24.600  1.00  0.00     0.036 C
HETATM   16  C8  UNL     1      -5.294  82.907  23.422  1.00  0.00     0.004 C
HETATM   17  C9  UNL     1      -6.526  83.687  23.782  1.00  0.00     0.027 C
HETATM   18  C10 UNL     1      -6.104  85.030  24.342  1.00  0.00     0.233 C
HETATM   19  N3  UNL     1      -5.281  84.802  25.498  1.00  0.00    -0.068 N
ATOM     20  H32 UNL     1      -5.730  84.221  26.206  1.00  0.00     0.277 HD
ATOM     21  H31 UNL     1      -5.156  85.632  26.078  1.00  0.00     0.277 HD
ENDBRANCH  11  14
ENDBRANCH   4  11
BRANCH   1  22
HETATM   22  C2  UNL     1       0.637  86.998  24.051  1.00  0.00     0.100 C
HETATM   23  C1  UNL     1      -0.173  87.632  22.976  1.00  0.00     0.034 C
HETATM   24  C3  UNL     1       1.233  87.998  24.989  1.00  0.00     0.034 C
ENDBRANCH   1  22
TORSDOF 4
ENDMDL