MODEL 4
REMARK VINA RESULT: -5.653735742      4.120      7.242
REMARK  3 active torsions:
REMARK  status: ('A' for Active; 'I' for Inactive)
REMARK    1  A    between atoms: N1_2  and  C1_4
REMARK    2  A    between atoms: C3_6  and  C4_7
REMARK    3  A    between atoms: C8_14  and  N3_15
ROOT
HETATM    1  C1  UNL     1       0.832  88.780  23.164  1.00  0.00     0.148 A
HETATM    2  C2  UNL     1       0.610  87.446  23.527  1.00  0.00     0.066 A
HETATM    3  C3  UNL     1      -0.596  87.343  24.168  1.00  0.00     0.027 A
HETATM    4  N2  UNL     1      -1.144  88.587  24.220  1.00  0.00    -0.343 N
ATOM      5  H2  UNL     1      -2.042  88.826  24.640  1.00  0.00     0.167 HD
HETATM    6  C8  UNL     1      -0.307  89.441  23.630  1.00  0.00     0.137 A
ENDROOT
BRANCH   6   7
HETATM    7  N3  UNL     1      -0.555  90.835  23.493  1.00  0.00    -0.362 N
HETATM    8  C9  UNL     1      -0.329  91.706  24.608  1.00  0.00     0.152 C
HETATM    9  C10 UNL     1       0.208  93.014  24.067  1.00  0.00     0.252 C
HETATM   10  N4  UNL     1       0.784  92.884  22.754  1.00  0.00    -0.072 N
HETATM   11  C11 UNL     1      -0.148  92.456  21.749  1.00  0.00     0.252 C
ATOM     12  H42 UNL     1       1.239  93.753  22.475  1.00  0.00     0.277 HD
ATOM     13  H41 UNL     1       1.595  92.265  22.777  1.00  0.00     0.277 HD
HETATM   14  C12 UNL     1      -1.031  91.317  22.219  1.00  0.00     0.152 C
ENDBRANCH   6   7
BRANCH   1  15
HETATM   15  N1  UNL     1       1.959  89.301  22.489  1.00  0.00    -0.112 N
HETATM   16  O1  UNL     1       2.334  88.786  21.437  1.00  0.00    -0.532 OA
HETATM   17  O2  UNL     1       2.622  90.370  23.008  1.00  0.00    -0.532 OA
ENDBRANCH   1  15
BRANCH   3  18
HETATM   18  C4  UNL     1      -1.219  86.105  24.721  1.00  0.00     0.097 C
HETATM   19  C5  UNL     1      -0.257  85.135  25.272  1.00  0.00     0.022 C
HETATM   20  C6  UNL     1      -0.707  84.436  26.460  1.00  0.00     0.012 C
HETATM   21  C7  UNL     1      -2.040  84.846  26.969  1.00  0.00     0.075 C
HETATM   22  S1  UNL     1      -2.204  86.519  26.222  1.00  0.00    -0.158 SA
ENDBRANCH   3  18
TORSDOF 3
ENDMDL