MODEL 5
REMARK VINA RESULT: -6.935410242      3.159      4.568
REMARK  3 active torsions:
REMARK  status: ('A' for Active; 'I' for Inactive)
REMARK    1  A    between atoms: N1_2  and  C3_4
REMARK    2  A    between atoms: N4_11  and  N5_12
REMARK       I    between atoms: N5_12  and  C5_14
REMARK    3  A    between atoms: C5_14  and  C6_16
ROOT
HETATM    1  C3  UNL     1      -3.672  83.375  25.595  1.00  0.00     0.718 A
HETATM    2  N2  UNL     1      -4.019  82.467  26.609  1.00  0.00    -0.128 N
ATOM      3  H2  UNL     1      -4.893  81.946  26.674  1.00  0.00     0.205 HD
HETATM    4  N3  UNL     1      -3.029  82.407  27.452  1.00  0.00    -0.260 N
ATOM      5  H3  UNL     1      -2.988  81.833  28.294  1.00  0.00     0.190 HD
HETATM    6  C4  UNL     1      -2.079  83.233  27.014  1.00  0.00     0.230 A
HETATM    7  S1  UNL     1      -0.670  83.463  27.769  1.00  0.00    -0.037 SA
HETATM    8  N4  UNL     1      -2.476  83.850  25.842  1.00  0.00    -0.054 N
ENDROOT
BRANCH   8   9
HETATM    9  N5  UNL     1      -1.658  84.746  25.195  1.00  0.00    -0.246 N
HETATM   10  C5  UNL     1      -1.660  86.113  24.998  1.00  0.00     0.241 C
HETATM   11  O1  UNL     1      -2.479  86.920  25.397  1.00  0.00    -0.271 OA
ATOM     12  H5  UNL     1      -0.856  84.292  24.756  1.00  0.00     0.191 HD
BRANCH  10  13
HETATM   13  C6  UNL     1      -0.515  86.715  24.190  1.00  0.00     0.079 C
HETATM   14  C7  UNL     1      -0.827  88.190  24.054  1.00  0.00     0.014 C
HETATM   15  C8  UNL     1       0.396  89.017  23.805  1.00  0.00     0.001 C
HETATM   16  C9  UNL     1       1.385  88.376  22.876  1.00  0.00     0.000 C
HETATM   17  C10 UNL     1       2.488  87.751  23.717  1.00  0.00     0.000 C
HETATM   18  C11 UNL     1       1.978  86.400  24.161  1.00  0.00     0.001 C
HETATM   19  C12 UNL     1       0.731  86.575  25.001  1.00  0.00     0.014 C
ENDBRANCH  10  13
ENDBRANCH   8   9
BRANCH   1  20
HETATM   20  N1  UNL     1      -4.606  83.597  24.570  1.00  0.00    -0.223 N
HETATM   21  C1  UNL     1      -4.660  82.708  23.439  1.00  0.00     0.168 C
HETATM   22  C2  UNL     1      -5.462  84.752  24.611  1.00  0.00     0.168 C
ENDBRANCH   1  20
TORSDOF 3
ENDMDL