MODEL 2
REMARK VINA RESULT: -7.472311531      4.126      8.649
REMARK  12 active torsions:
REMARK  status: ('A' for Active; 'I' for Inactive)
REMARK    1  A    between atoms: C2_2  and  S1_3
REMARK    2  A    between atoms: S1_3  and  C4_5
REMARK    3  A    between atoms: C4_5  and  C5_6
REMARK    4  A    between atoms: C5_6  and  C6_7
REMARK    5  A    between atoms: C7_8  and  C8_9
REMARK    6  A    between atoms: C8_9  and  C9_11
REMARK    7  A    between atoms: C11_13  and  S2_14
REMARK    8  A    between atoms: S2_14  and  C12_15
REMARK    9  A    between atoms: C12_15  and  C13_16
REMARK   10  A    between atoms: C13_16  and  C14_17
REMARK   11  A    between atoms: C18_27  and  O2_28
REMARK   12  A    between atoms: C19_30  and  C20_31
ROOT
HETATM    1  C6  UNL     1      -4.661   3.736   7.322  1.00  0.00    -0.006 C
HETATM    2  C7  UNL     1      -4.216   3.973   8.532  1.00  0.00     0.049 C
ENDROOT
BRANCH   2   3
HETATM    3  C8  UNL     1      -3.236   3.256   9.274  1.00  0.00     0.179 C
HETATM    4  O1  UNL     1      -3.189   1.981   9.183  1.00  0.00    -0.291 OA
BRANCH   3   5
HETATM    5  C9  UNL     1      -2.208   3.840  10.191  1.00  0.00     0.260 C
HETATM    6  C10 UNL     1      -1.746   5.135   9.628  1.00  0.00     0.058 C
HETATM    7  C11 UNL     1      -0.261   5.167   9.889  1.00  0.00     0.075 C
HETATM    8  C17 UNL     1       0.108   3.742  10.058  1.00  0.00     0.248 C
HETATM    9  N2  UNL     1      -1.082   3.004  10.339  1.00  0.00    -0.063 N
ATOM     10  H22 UNL     1      -1.051   2.560  11.257  1.00  0.00     0.278 HD
ATOM     11  H21 UNL     1      -1.153   2.160   9.770  1.00  0.00     0.278 HD
BRANCH   7  12
HETATM   12  S2  UNL     1       0.086   6.292  11.203  1.00  0.00    -0.162 SA
BRANCH  12  13
HETATM   13  C12 UNL     1      -0.064   5.730  12.868  1.00  0.00     0.081 C
BRANCH  13  14
HETATM   14  C13 UNL     1       1.095   4.860  13.290  1.00  0.00     0.075 C
BRANCH  14  15
HETATM   15  C14 UNL     1       0.545   3.699  14.086  1.00  0.00     0.051 A
HETATM   16  N1  UNL     1      -0.347   2.785  13.747  1.00  0.00    -0.363 N
HETATM   17  C15 UNL     1      -0.683   1.861  14.584  1.00  0.00     0.095 A
ATOM     18  H1  UNL     1      -0.772   2.809  12.819  1.00  0.00     0.165 HD
HETATM   19  C16 UNL     1      -0.083   1.872  15.821  1.00  0.00     0.068 A
HETATM   20  S3  UNL     1       0.942   3.239  15.685  1.00  0.00    -0.087 SA
ENDBRANCH  14  15
ENDBRANCH  13  14
ENDBRANCH  12  13
ENDBRANCH   7  12
ENDBRANCH   3   5
ENDBRANCH   2   3
BRANCH   1  21
HETATM   21  C5  UNL     1      -5.743   4.656   6.699  1.00  0.00     0.033 C
HETATM   22  C18 UNL     1      -5.678   4.546   5.241  1.00  0.00     0.155 C
HETATM   23  C19 UNL     1      -5.459   6.039   5.162  1.00  0.00     0.088 A
HETATM   24  C21 UNL     1      -5.247   6.090   6.616  1.00  0.00     0.036 A
HETATM   25  C22 UNL     1      -4.170   6.513   5.734  1.00  0.00    -0.021 A
HETATM   26  C23 UNL     1      -2.933   5.728   5.431  1.00  0.00     0.016 C
HETATM   27  C24 UNL     1      -3.972   8.016   5.588  1.00  0.00     0.016 C
BRANCH  21  28
HETATM   28  C4  UNL     1      -6.939   4.437   7.504  1.00  0.00     0.024 C
BRANCH  28  29
HETATM   29  S1  UNL     1      -7.418   2.896   8.112  1.00  0.00    -0.203 SA
HETATM   30  C3  UNL     1      -8.298   2.916   9.673  1.00  0.00     0.082 C
BRANCH  29  31
HETATM   31  C2  UNL     1      -8.674   2.178   6.969  1.00  0.00     0.062 C
HETATM   32  C1  UNL     1      -9.422   3.328   6.361  1.00  0.00     0.015 C
ENDBRANCH  29  31
ENDBRANCH  28  29
ENDBRANCH  21  28
BRANCH  22  33
HETATM   33  O2  UNL     1      -6.657   3.985   4.493  1.00  0.00    -0.393 OA
ATOM     34  H2  UNL     1      -6.554   3.776   3.572  1.00  0.00     0.210 HD
ENDBRANCH  22  33
BRANCH  23  35
HETATM   35  C20 UNL     1      -6.313   6.917   4.387  1.00  0.00     0.185 C
HETATM   36  O3  UNL     1      -5.991   7.518   3.337  1.00  0.00    -0.647 OA
HETATM   37  O4  UNL     1      -7.618   7.124   4.836  1.00  0.00    -0.647 OA
ENDBRANCH  23  35
ENDBRANCH   1  21
TORSDOF 12
ENDMDL