MODEL 2
REMARK VINA RESULT: -9.774472977      0.604      1.038
REMARK  12 active torsions:
REMARK  status: ('A' for Active; 'I' for Inactive)
REMARK       I    between atoms: C2_2  and  N1_4
REMARK    1  A    between atoms: N1_4  and  C3_6
REMARK    2  A    between atoms: C3_6  and  C4_7
REMARK    3  A    between atoms: C4_7  and  C5_8
REMARK    4  A    between atoms: C5_8  and  C6_9
REMARK    5  A    between atoms: C6_9  and  N2_10
REMARK    6  A    between atoms: C7_12  and  C8_13
REMARK    7  A    between atoms: C9_14  and  O2_15
REMARK    8  A    between atoms: N3_21  and  C13_22
REMARK    9  A    between atoms: C13_22  and  C14_23
REMARK       I    between atoms: C14_23  and  N4_25
REMARK   10  A    between atoms: N4_25  and  C15_27
REMARK   11  A    between atoms: C15_27  and  C16_28
REMARK   12  A    between atoms: C16_28  and  C17_29
ROOT
HETATM    1  C8  UNL     1      -4.753   4.787   6.983  1.00  0.00     0.081 C
HETATM    2  C9  UNL     1      -6.101   4.513   7.091  1.00  0.00     0.089 C
HETATM    3  C10 UNL     1      -6.696   3.522   7.881  1.00  0.00    -0.012 C
HETATM    4  C11 UNL     1      -6.139   2.961   9.001  1.00  0.00     0.019 C
HETATM    5  C12 UNL     1      -4.824   2.951   9.449  1.00  0.00     0.257 C
HETATM    6  O3  UNL     1      -4.632   2.201  10.440  1.00  0.00    -0.267 OA
HETATM    7  N3  UNL     1      -3.804   3.647   8.923  1.00  0.00    -0.271 N
HETATM    8  C23 UNL     1      -3.775   4.597   7.938  1.00  0.00     0.265 C
HETATM    9  O5  UNL     1      -2.783   5.369   7.883  1.00  0.00    -0.267 OA
HETATM   10  C24 UNL     1      -6.817   2.178  10.092  1.00  0.00     0.045 C
HETATM   11  C25 UNL     1      -8.322   2.291   9.937  1.00  0.00     0.005 C
HETATM   12  C26 UNL     1      -8.871   1.466   8.815  1.00  0.00     0.001 C
HETATM   13  C27 UNL     1      -8.314   1.777   7.465  1.00  0.00     0.005 C
HETATM   14  C28 UNL     1      -7.999   3.242   7.247  1.00  0.00     0.042 C
ENDROOT
BRANCH   7  15
HETATM   15  C13 UNL     1      -2.511   3.315   9.477  1.00  0.00     0.238 C
BRANCH  15  16
HETATM   16  C14 UNL     1      -2.373   3.732  10.890  1.00  0.00     0.236 C
HETATM   17  O4  UNL     1      -2.554   4.925  11.246  1.00  0.00    -0.272 OA
HETATM   18  N4  UNL     1      -2.026   2.818  11.926  1.00  0.00    -0.359 N
ATOM     19  H4  UNL     1      -1.873   1.848  11.650  1.00  0.00     0.162 HD
BRANCH  18  20
HETATM   20  C15 UNL     1      -1.870   3.122  13.308  1.00  0.00     0.127 C
BRANCH  20  21
HETATM   21  C16 UNL     1      -1.512   1.903  14.092  1.00  0.00     0.053 C
BRANCH  21  22
HETATM   22  C17 UNL     1      -2.602   1.574  15.090  1.00  0.00    -0.082 C
HETATM   23  C18 UNL     1      -3.816   1.209  14.714  1.00  0.00    -0.024 C
HETATM   24  C19 UNL     1      -4.837   0.900  15.770  1.00  0.00     0.027 C
HETATM   25  C20 UNL     1      -4.195   0.005  16.822  1.00  0.00     0.004 C
HETATM   26  C21 UNL     1      -2.845   0.472  17.246  1.00  0.00     0.005 C
HETATM   27  C22 UNL     1      -2.310   1.666  16.539  1.00  0.00     0.034 C
ENDBRANCH  21  22
ENDBRANCH  20  21
ENDBRANCH  18  20
ENDBRANCH  15  16
ENDBRANCH   7  15
BRANCH   1  28
HETATM   28  C7  UNL     1      -4.326   5.330   5.711  1.00  0.00     0.103 C
HETATM   29  N2  UNL     1      -4.422   6.555   5.366  1.00  0.00    -0.398 N
ATOM     30  H2  UNL     1      -4.832   7.195   6.047  1.00  0.00     0.158 HD
BRANCH  29  31
HETATM   31  C6  UNL     1      -4.011   7.120   4.115  1.00  0.00     0.119 C
BRANCH  31  32
HETATM   32  C5  UNL     1      -5.015   7.015   3.010  1.00  0.00     0.021 C
BRANCH  32  33
HETATM   33  C4  UNL     1      -6.348   7.530   3.469  1.00  0.00     0.021 C
BRANCH  33  34
HETATM   34  C3  UNL     1      -7.522   6.982   2.727  1.00  0.00     0.122 C
BRANCH  34  35
HETATM   35  N1  UNL     1      -8.210   5.960   3.503  1.00  0.00    -0.361 N
HETATM   36  C2  UNL     1      -9.499   6.153   4.065  1.00  0.00     0.213 C
HETATM   37  C1  UNL     1     -10.162   5.083   4.845  1.00  0.00     0.117 C
HETATM   38  O1  UNL     1     -10.061   7.264   3.877  1.00  0.00    -0.274 OA
ATOM     39  H1  UNL     1      -7.744   5.065   3.650  1.00  0.00     0.162 HD
ENDBRANCH  34  35
ENDBRANCH  33  34
ENDBRANCH  32  33
ENDBRANCH  31  32
ENDBRANCH  29  31
ENDBRANCH   1  28
BRANCH   2  40
HETATM   40  O2  UNL     1      -6.987   5.257   6.375  1.00  0.00    -0.359 OA
ATOM     41  H2  UNL     1      -7.192   6.138   6.666  1.00  0.00     0.217 HD
ENDBRANCH   2  40
TORSDOF 12
ENDMDL