MODEL 2
REMARK VINA RESULT: -8.143074704      3.145      7.256
REMARK  17 active torsions:
REMARK  status: ('A' for Active; 'I' for Inactive)
REMARK    1  A    between atoms: C2_2  and  C3_3
REMARK       I    between atoms: N2_6  and  C4_7
REMARK    2  A    between atoms: C4_7  and  C5_9
REMARK    3  A    between atoms: C5_9  and  N3_10
REMARK    4  A    between atoms: N3_10  and  C6_12
REMARK    5  A    between atoms: C6_12  and  O2_13
REMARK    6  A    between atoms: C6_12  and  C7_15
REMARK    7  A    between atoms: C7_15  and  C8_16
REMARK    8  A    between atoms: C7_15  and  C15_25
REMARK    9  A    between atoms: C8_16  and  C9_17
REMARK   10  A    between atoms: C9_17  and  C11_19
REMARK   11  A    between atoms: C11_19  and  C12_20
REMARK   12  A    between atoms: C11_19  and  C14_22
REMARK   13  A    between atoms: C14_22  and  O3_23
REMARK   14  A    between atoms: C15_25  and  O4_28
REMARK   15  A    between atoms: O4_28  and  C18_29
REMARK   16  A    between atoms: C18_29  and  C19_31
REMARK   17  A    between atoms: C20_32  and  C21_33
ROOT
HETATM    1  C7  UNL     1      -4.819   3.425   8.207  1.00  0.00     0.023 C
ENDROOT
BRANCH   1   2
HETATM    2  C6  UNL     1      -3.624   2.694   8.519  1.00  0.00     0.145 C
BRANCH   2   3
HETATM    3  N3  UNL     1      -2.446   3.011   9.170  1.00  0.00    -0.362 N
ATOM      4  H3  UNL     1      -1.570   2.610   8.833  1.00  0.00     0.162 HD
BRANCH   3   5
HETATM    5  C5  UNL     1      -2.417   3.915  10.343  1.00  0.00     0.226 C
BRANCH   5   6
HETATM    6  C4  UNL     1      -2.083   3.194  11.567  1.00  0.00     0.257 C
HETATM    7  N2  UNL     1      -0.878   3.464  12.346  1.00  0.00    -0.239 N
HETATM    8  N1  UNL     1      -0.581   2.772  13.480  1.00  0.00    -0.292 N
HETATM    9  C22 UNL     1       0.044   4.492  11.946  1.00  0.00     0.103 A
HETATM   10  C3  UNL     1       0.463   2.992  14.113  1.00  0.00     0.064 A
ATOM     11  H1  UNL     1      -1.229   2.058  13.816  1.00  0.00     0.187 HD
HETATM   12  S1  UNL     1       1.325   4.274  13.243  1.00  0.00    -0.082 SA
HETATM   13  C23 UNL     1       0.739   4.236  10.638  1.00  0.00     0.053 C
HETATM   14  C24 UNL     1      -0.532   5.888  12.023  1.00  0.00     0.053 C
HETATM   15  O1  UNL     1      -2.885   2.283  11.975  1.00  0.00    -0.270 OA
BRANCH  10  16
HETATM   16  C2  UNL     1       0.939   2.346  15.346  1.00  0.00     0.061 C
HETATM   17  C1  UNL     1      -0.270   2.107  16.260  1.00  0.00     0.012 C
ENDBRANCH  10  16
ENDBRANCH   5   6
ENDBRANCH   3   5
ENDBRANCH   2   3
BRANCH   2  18
HETATM   18  O2  UNL     1      -3.657   1.449   8.095  1.00  0.00    -0.346 OA
ATOM     19  H2  UNL     1      -4.541   1.122   7.974  1.00  0.00     0.219 HD
ENDBRANCH   2  18
ENDBRANCH   1   2
BRANCH   1  20
HETATM   20  C8  UNL     1      -4.958   4.405   7.414  1.00  0.00    -0.008 C
BRANCH  20  21
HETATM   21  C9  UNL     1      -5.170   4.564   5.962  1.00  0.00     0.011 C
HETATM   22  C10 UNL     1      -6.519   5.280   5.818  1.00  0.00     0.015 C
BRANCH  21  23
HETATM   23  C11 UNL     1      -4.092   5.530   5.482  1.00  0.00     0.016 C
BRANCH  23  24
HETATM   24  C12 UNL     1      -3.489   6.360   6.561  1.00  0.00     0.003 C
HETATM   25  C13 UNL     1      -3.160   7.728   5.943  1.00  0.00     0.005 C
ENDBRANCH  23  24
BRANCH  23  26
HETATM   26  C14 UNL     1      -4.487   6.364   4.311  1.00  0.00     0.169 C
BRANCH  26  27
HETATM   27  O3  UNL     1      -4.383   5.749   3.083  1.00  0.00    -0.400 OA
ATOM     28  H3  UNL     1      -3.546   5.849   2.646  1.00  0.00     0.209 HD
ENDBRANCH  26  27
ENDBRANCH  23  26
ENDBRANCH  21  23
ENDBRANCH  20  21
ENDBRANCH   1  20
BRANCH   1  29
HETATM   29  C15 UNL     1      -6.104   2.932   8.946  1.00  0.00     0.094 C
HETATM   30  C16 UNL     1      -5.742   2.302  10.246  1.00  0.00     0.052 C
HETATM   31  C17 UNL     1      -6.878   4.181   9.221  1.00  0.00     0.052 C
BRANCH  29  32
HETATM   32  O4  UNL     1      -6.723   2.011   8.127  1.00  0.00    -0.302 OA
BRANCH  32  33
HETATM   33  C18 UNL     1      -8.035   1.835   7.794  1.00  0.00     0.284 C
HETATM   34  O5  UNL     1      -8.748   1.251   8.672  1.00  0.00    -0.260 OA
BRANCH  33  35
HETATM   35  C19 UNL     1      -8.614   2.274   6.528  1.00  0.00     0.089 C
HETATM   36  C20 UNL     1      -9.406   3.316   6.459  1.00  0.00     0.090 C
BRANCH  36  37
HETATM   37  C21 UNL     1      -9.999   3.780   5.222  1.00  0.00     0.198 C
HETATM   38  O6  UNL     1     -10.598   4.875   5.128  1.00  0.00    -0.645 OA
HETATM   39  O7  UNL     1      -9.907   2.987   4.089  1.00  0.00    -0.645 OA
ENDBRANCH  36  37
ENDBRANCH  33  35
ENDBRANCH  32  33
ENDBRANCH  29  32
ENDBRANCH   1  29
TORSDOF 17
ENDMDL