MODEL 4
REMARK VINA RESULT: -8.759505814      2.452     10.015
REMARK  12 active torsions:
REMARK  status: ('A' for Active; 'I' for Inactive)
REMARK    1  A    between atoms: C2_2  and  C3_3
REMARK    2  A    between atoms: C3_3  and  N1_4
REMARK    3  A    between atoms: N3_11  and  C7_13
REMARK    4  A    between atoms: C7_13  and  C8_14
REMARK    5  A    between atoms: C8_14  and  C9_15
REMARK    6  A    between atoms: C9_15  and  C10_16
REMARK    7  A    between atoms: C16_22  and  N4_23
REMARK    8  A    between atoms: N4_23  and  S1_25
REMARK    9  A    between atoms: S1_25  and  C17_28
REMARK   10  A    between atoms: C17_28  and  C18_29
REMARK   11  A    between atoms: N6_34  and  C21_35
REMARK   12  A    between atoms: C21_35  and  C22_36
ROOT
HETATM    1  N1  UNL     1      -6.759   4.570   5.799  1.00  0.00    -0.264 N
HETATM    2  C4  UNL     1      -6.715   3.828   6.914  1.00  0.00     0.282 A
HETATM    3  O1  UNL     1      -7.702   3.211   7.340  1.00  0.00    -0.265 OA
HETATM    4  C5  UNL     1      -5.508   3.756   7.603  1.00  0.00     0.148 A
HETATM    5  N2  UNL     1      -5.391   3.020   8.707  1.00  0.00    -0.332 N
ATOM      6  H2  UNL     1      -6.216   2.523   9.041  1.00  0.00     0.168 HD
HETATM    7  C6  UNL     1      -4.230   2.891   9.423  1.00  0.00     0.147 A
HETATM    8  N3  UNL     1      -4.274   2.168  10.437  1.00  0.00    -0.373 N
ATOM      9  H3  UNL     1      -5.205   1.773  10.576  1.00  0.00     0.161 HD
HETATM   10  C16 UNL     1      -3.137   3.595   8.919  1.00  0.00     0.161 A
HETATM   11  N5  UNL     1      -3.225   4.353   7.799  1.00  0.00    -0.323 N
ATOM     12  H5  UNL     1      -2.408   4.856   7.453  1.00  0.00     0.169 HD
HETATM   13  C20 UNL     1      -4.390   4.433   7.152  1.00  0.00     0.146 A
HETATM   14  N6  UNL     1      -4.459   5.174   6.032  1.00  0.00    -0.283 N
HETATM   15  C24 UNL     1      -5.670   5.201   5.402  1.00  0.00     0.333 A
HETATM   16  O4  UNL     1      -5.779   5.893   4.331  1.00  0.00    -0.246 OA
ENDROOT
BRANCH   8  17
HETATM   17  C7  UNL     1      -3.386   1.755  11.435  1.00  0.00     0.121 C
BRANCH  17  18
HETATM   18  C8  UNL     1      -3.655   2.429  12.793  1.00  0.00     0.020 C
BRANCH  18  19
HETATM   19  C9  UNL     1      -4.318   1.435  13.722  1.00  0.00     0.006 C
BRANCH  19  20
HETATM   20  C10 UNL     1      -3.837   1.556  15.129  1.00  0.00    -0.014 C
HETATM   21  C11 UNL     1      -2.334   1.372  15.247  1.00  0.00     0.004 C
HETATM   22  C12 UNL     1      -1.946   1.683  16.677  1.00  0.00     0.000 C
HETATM   23  C13 UNL     1      -2.602   0.737  17.632  1.00  0.00     0.000 C
HETATM   24  C14 UNL     1      -3.721  -0.063  17.038  1.00  0.00     0.000 C
HETATM   25  C15 UNL     1      -4.593   0.692  16.088  1.00  0.00     0.004 C
ENDBRANCH  19  20
ENDBRANCH  18  19
ENDBRANCH  17  18
ENDBRANCH   8  17
BRANCH  10  26
HETATM   26  N4  UNL     1      -2.057   3.486   9.549  1.00  0.00    -0.267 N
ATOM     27  H4  UNL     1      -1.674   2.541   9.563  1.00  0.00     0.180 HD
BRANCH  26  28
HETATM   28  S1  UNL     1      -1.123   4.633  10.383  1.00  0.00     0.232 S
HETATM   29  O2  UNL     1      -0.928   5.823   9.466  1.00  0.00    -0.206 OA
HETATM   30  O3  UNL     1      -1.826   5.060  11.635  1.00  0.00    -0.206 OA
BRANCH  28  31
HETATM   31  C17 UNL     1       0.444   3.908  10.799  1.00  0.00     0.163 C
BRANCH  31  32
HETATM   32  C18 UNL     1       1.305   4.804  11.632  1.00  0.00     0.012 C
HETATM   33  C19 UNL     1       1.397   4.369  13.069  1.00  0.00     0.006 C
ENDBRANCH  31  32
ENDBRANCH  28  31
ENDBRANCH  26  28
ENDBRANCH  10  26
BRANCH   1  34
HETATM   34  C3  UNL     1      -8.014   4.676   5.032  1.00  0.00     0.137 C
BRANCH  34  35
HETATM   35  C2  UNL     1      -8.040   3.422   4.149  1.00  0.00     0.016 C
HETATM   36  C1  UNL     1      -9.464   3.076   3.761  1.00  0.00     0.006 C
ENDBRANCH  34  35
ENDBRANCH   1  34
BRANCH  14  37
HETATM   37  C21 UNL     1      -3.426   5.967   5.461  1.00  0.00     0.135 C
BRANCH  37  38
HETATM   38  C22 UNL     1      -3.270   7.349   6.025  1.00  0.00     0.016 C
HETATM   39  C23 UNL     1      -3.414   8.489   5.101  1.00  0.00     0.006 C
ENDBRANCH  37  38
ENDBRANCH  14  37
TORSDOF 12
ENDMDL