MODEL 2
REMARK VINA RESULT: -7.202178960      6.827     11.224
REMARK  11 active torsions:
REMARK  status: ('A' for Active; 'I' for Inactive)
REMARK    1  A    between atoms: C2_2  and  C3_3
REMARK    2  A    between atoms: C3_3  and  C4_4
REMARK    3  A    between atoms: C4_4  and  C5_5
REMARK    4  A    between atoms: C5_5  and  N1_6
REMARK       I    between atoms: N1_6  and  C6_8
REMARK    5  A    between atoms: C6_8  and  C7_10
REMARK    6  A    between atoms: C7_10  and  N2_11
REMARK    7  A    between atoms: C9_13  and  C10_14
REMARK    8  A    between atoms: C13_19  and  C14_20
REMARK    9  A    between atoms: N4_27  and  C19_28
REMARK   10  A    between atoms: C19_28  and  C20_29
REMARK   11  A    between atoms: C23_32  and  C24_33
ROOT
HETATM    1  N2  UNL     1      -8.683   3.718   5.771  1.00  0.00    -0.288 N
HETATM    2  C8  UNL     1      -8.084   4.770   5.073  1.00  0.00     0.067 A
HETATM    3  C9  UNL     1      -6.815   4.820   5.042  1.00  0.00     0.046 C
HETATM    4  C15 UNL     1      -9.109   5.507   4.466  1.00  0.00     0.068 A
HETATM    5  C16 UNL     1      -9.070   6.653   3.836  1.00  0.00    -0.058 C
HETATM    6  C17 UNL     1      -7.939   7.563   3.587  1.00  0.00     0.045 C
HETATM    7  C18 UNL     1     -10.313   7.072   3.038  1.00  0.00     0.045 C
HETATM    8  N4  UNL     1     -10.281   4.891   4.805  1.00  0.00    -0.292 N
HETATM    9  C26 UNL     1      -9.971   3.817   5.590  1.00  0.00     0.330 A
HETATM   10  O5  UNL     1     -10.804   3.003   6.092  1.00  0.00    -0.246 OA
ENDROOT
BRANCH   1  11
HETATM   11  C7  UNL     1      -7.996   2.706   6.583  1.00  0.00     0.236 C
BRANCH  11  12
HETATM   12  C6  UNL     1      -7.690   3.167   7.940  1.00  0.00     0.235 C
HETATM   13  N1  UNL     1      -6.360   3.376   8.384  1.00  0.00    -0.360 N
ATOM     14  H1  UNL     1      -5.588   3.204   7.740  1.00  0.00     0.162 HD
HETATM   15  O1  UNL     1      -8.618   3.390   8.765  1.00  0.00    -0.272 OA
BRANCH  13  16
HETATM   16  C5  UNL     1      -6.068   3.833   9.745  1.00  0.00     0.122 C
BRANCH  16  17
HETATM   17  C4  UNL     1      -5.707   2.654  10.566  1.00  0.00     0.020 C
BRANCH  17  18
HETATM   18  C3  UNL     1      -4.527   2.722  11.446  1.00  0.00     0.001 C
BRANCH  18  19
HETATM   19  C2  UNL     1      -3.384   1.814  11.171  1.00  0.00    -0.004 C
HETATM   20  C1  UNL     1      -2.800   1.848   9.808  1.00  0.00     0.005 C
ENDBRANCH  18  19
ENDBRANCH  17  18
ENDBRANCH  16  17
ENDBRANCH  13  16
ENDBRANCH  11  12
ENDBRANCH   1  11
BRANCH   3  21
HETATM   21  C10 UNL     1      -5.661   5.507   4.587  1.00  0.00    -0.000 A
HETATM   22  C11 UNL     1      -5.359   5.818   3.257  1.00  0.00     0.100 A
HETATM   23  N3  UNL     1      -4.233   6.540   3.252  1.00  0.00    -0.373 N
HETATM   24  C12 UNL     1      -3.783   6.718   4.494  1.00  0.00     0.106 A
ATOM     25  H3  UNL     1      -3.780   6.903   2.413  1.00  0.00     0.164 HD
HETATM   26  C13 UNL     1      -4.650   6.087   5.352  1.00  0.00     0.067 A
BRANCH  26  27
HETATM   27  C14 UNL     1      -4.565   6.005   6.799  1.00  0.00     0.211 C
HETATM   28  O2  UNL     1      -3.562   5.509   7.336  1.00  0.00    -0.644 OA
HETATM   29  O3  UNL     1      -5.606   6.484   7.560  1.00  0.00    -0.644 OA
ENDBRANCH  26  27
ENDBRANCH   3  21
BRANCH   8  30
HETATM   30  C19 UNL     1     -11.666   5.182   4.639  1.00  0.00     0.180 C
BRANCH  30  31
HETATM   31  C20 UNL     1     -12.296   4.005   3.885  1.00  0.00     0.002 A
HETATM   32  C21 UNL     1     -13.525   3.438   4.102  1.00  0.00     0.018 A
HETATM   33  C22 UNL     1     -13.888   2.411   3.298  1.00  0.00     0.024 A
HETATM   34  C23 UNL     1     -13.001   2.024   2.335  1.00  0.00     0.050 A
HETATM   35  S1  UNL     1     -11.698   3.091   2.577  1.00  0.00    -0.089 SA
BRANCH  34  36
HETATM   36  C24 UNL     1     -13.148   0.946   1.340  1.00  0.00     0.162 C
HETATM   37  C25 UNL     1     -14.141  -0.089   1.543  1.00  0.00     0.097 C
HETATM   38  O4  UNL     1     -12.400   0.970   0.349  1.00  0.00    -0.292 OA
ENDBRANCH  34  36
ENDBRANCH  30  31
ENDBRANCH   8  30
TORSDOF 11
ENDMDL