MODEL 5
REMARK VINA RESULT: -8.749876130      3.086     10.179
REMARK  11 active torsions:
REMARK  status: ('A' for Active; 'I' for Inactive)
REMARK    1  A    between atoms: C2_2  and  C3_3
REMARK    2  A    between atoms: C3_3  and  C4_4
REMARK    3  A    between atoms: C4_4  and  N1_5
REMARK       I    between atoms: N1_5  and  C5_7
REMARK       I    between atoms: C5_7  and  N2_9
REMARK    4  A    between atoms: N2_9  and  C6_11
REMARK    5  A    between atoms: C6_11  and  C7_12
REMARK    6  A    between atoms: N3_14  and  C9_15
REMARK    7  A    between atoms: C9_15  and  C10_16
REMARK    8  A    between atoms: C10_16  and  C11_17
REMARK    9  A    between atoms: C11_17  and  C12_18
REMARK   10  A    between atoms: C12_18  and  C13_19
REMARK   11  A    between atoms: C17_25  and  N5_26
ROOT
HETATM    1  C10 UNL     1       0.068   4.487  10.273  1.00  0.00     0.031 C
ENDROOT
BRANCH   1   2
HETATM    2  C9  UNL     1      -0.628   3.325   9.629  1.00  0.00     0.274 C
BRANCH   2   3
HETATM    3  N3  UNL     1      -1.935   3.135  10.171  1.00  0.00     0.106 N
HETATM    4  C8  UNL     1      -2.634   4.372  10.286  1.00  0.00     0.293 C
HETATM    5  C7  UNL     1      -3.910   4.195  11.147  1.00  0.00     0.144 C
HETATM    6  C25 UNL     1      -4.116   2.798  11.455  1.00  0.00     0.229 C
HETATM    7  N7  UNL     1      -3.804   1.785  10.491  1.00  0.00    -0.335 N
HETATM    8  O3  UNL     1      -4.572   2.420  12.579  1.00  0.00    -0.273 OA
HETATM    9  C24 UNL     1      -2.689   2.066   9.592  1.00  0.00     0.397 C
ATOM     10  H7  UNL     1      -4.332   0.914  10.435  1.00  0.00     0.164 HD
BRANCH   5  11
HETATM   11  C6  UNL     1      -4.949   5.026  10.500  1.00  0.00     0.081 C
BRANCH  11  12
HETATM   12  N2  UNL     1      -5.576   4.623   9.307  1.00  0.00    -0.322 N
HETATM   13  C5  UNL     1      -6.774   3.883   9.196  1.00  0.00     0.319 C
HETATM   14  N1  UNL     1      -7.326   3.608   7.882  1.00  0.00    -0.343 N
HETATM   15  O1  UNL     1      -7.362   3.465  10.204  1.00  0.00    -0.247 OA
ATOM     16  H1  UNL     1      -6.834   3.964   7.062  1.00  0.00     0.164 HD
ATOM     17  H2  UNL     1      -5.121   4.893   8.435  1.00  0.00     0.169 HD
BRANCH  14  18
HETATM   18  C4  UNL     1      -8.530   2.859   7.686  1.00  0.00     0.124 C
BRANCH  18  19
HETATM   19  C3  UNL     1      -8.771   2.507   6.245  1.00  0.00     0.019 C
BRANCH  19  20
HETATM   20  C2  UNL     1      -9.110   3.820   5.533  1.00  0.00    -0.003 C
HETATM   21  C1  UNL     1     -10.563   4.167   5.710  1.00  0.00     0.005 C
ENDBRANCH  19  20
ENDBRANCH  18  19
ENDBRANCH  14  18
ENDBRANCH  11  12
ENDBRANCH   5  11
ENDBRANCH   2   3
ENDBRANCH   1   2
BRANCH   1  22
HETATM   22  C11 UNL     1       1.018   4.040  11.368  1.00  0.00     0.008 C
BRANCH  22  23
HETATM   23  C12 UNL     1       0.861   4.849  12.619  1.00  0.00     0.057 C
BRANCH  23  24
HETATM   24  C13 UNL     1       0.654   3.923  13.760  1.00  0.00     0.012 C
HETATM   25  C14 UNL     1       1.403   4.054  14.904  1.00  0.00     0.027 C
HETATM   26  C15 UNL     1       1.121   3.633  16.183  1.00  0.00     0.033 C
HETATM   27  C16 UNL     1       0.240   2.622  16.619  1.00  0.00     0.057 A
HETATM   28  N4  UNL     1       0.273   2.234  17.853  1.00  0.00    -0.335 N
HETATM   29  C22 UNL     1      -0.661   2.027  15.779  1.00  0.00     0.103 A
HETATM   30  C17 UNL     1      -0.549   1.287  18.272  1.00  0.00     0.148 A
ATOM     31  H4  UNL     1       0.934   2.660  18.503  1.00  0.00     0.168 HD
HETATM   32  S1  UNL     1      -1.425   0.914  16.854  1.00  0.00    -0.046 SA
HETATM   33  C23 UNL     1      -0.940   2.217  14.426  1.00  0.00     0.265 C
HETATM   34  O2  UNL     1      -1.928   1.537  14.055  1.00  0.00    -0.267 OA
HETATM   35  N6  UNL     1      -0.312   2.994  13.528  1.00  0.00    -0.326 N
ATOM     36  H6  UNL     1      -0.594   2.873  12.555  1.00  0.00     0.169 HD
BRANCH  30  37
HETATM   37  N5  UNL     1      -0.699   0.696  19.573  1.00  0.00    -0.361 N
HETATM   38  C18 UNL     1      -0.801   1.438  20.819  1.00  0.00     0.125 C
HETATM   39  C19 UNL     1      -1.897   0.672  21.532  1.00  0.00     0.021 C
HETATM   40  C20 UNL     1      -1.521  -0.770  21.214  1.00  0.00     0.021 C
HETATM   41  C21 UNL     1      -0.776  -0.689  19.897  1.00  0.00     0.125 C
ENDBRANCH  30  37
ENDBRANCH  23  24
ENDBRANCH  22  23
ENDBRANCH   1  22
TORSDOF 11
ENDMDL