MODEL 5
REMARK VINA RESULT: -9.241333195      2.609     11.004
REMARK  12 active torsions:
REMARK  status: ('A' for Active; 'I' for Inactive)
REMARK    1  A    between atoms: C6_8  and  N2_9
REMARK    2  A    between atoms: N2_9  and  C7_11
REMARK    3  A    between atoms: C7_11  and  C8_12
REMARK    4  A    between atoms: C8_12  and  C9_13
REMARK    5  A    between atoms: C9_13  and  C10_14
REMARK    6  A    between atoms: C10_14  and  C11_15
REMARK    7  A    between atoms: C11_15  and  C12_16
REMARK    8  A    between atoms: C12_16  and  C13_17
REMARK       I    between atoms: C13_17  and  N3_19
REMARK    9  A    between atoms: N3_19  and  C14_20
REMARK   10  A    between atoms: N3_19  and  C16_24
REMARK   11  A    between atoms: C14_20  and  C15_21
REMARK   12  A    between atoms: C16_24  and  C17_25
ROOT
HETATM    1  C13 UNL     1      -6.098   3.498   9.577  1.00  0.00     0.224 C
HETATM    2  O1  UNL     1      -6.831   4.497   9.296  1.00  0.00    -0.273 OA
HETATM    3  N3  UNL     1      -4.696   3.671   9.461  1.00  0.00    -0.317 N
ENDROOT
BRANCH   3   4
HETATM    4  C14 UNL     1      -4.239   4.980   8.976  1.00  0.00     0.244 C
BRANCH   4   5
HETATM    5  C15 UNL     1      -4.022   4.939   7.504  1.00  0.00     0.191 C
HETATM    6  O2  UNL     1      -3.442   5.889   6.935  1.00  0.00    -0.647 OA
HETATM    7  O3  UNL     1      -4.447   3.878   6.734  1.00  0.00    -0.647 OA
ENDBRANCH   4   5
ENDBRANCH   3   4
BRANCH   3   8
HETATM    8  C16 UNL     1      -3.807   2.618   9.755  1.00  0.00     0.111 C
BRANCH   8   9
HETATM    9  C17 UNL     1      -3.159   2.558  11.062  1.00  0.00     0.048 A
HETATM   10  C18 UNL     1      -3.841   1.928  12.102  1.00  0.00     0.032 A
HETATM   11  C19 UNL     1      -3.360   1.741  13.372  1.00  0.00    -0.005 A
HETATM   12  C20 UNL     1      -4.088   1.109  14.366  1.00  0.00     0.053 A
HETATM   13  C24 UNL     1      -2.076   2.240  13.594  1.00  0.00     0.048 A
HETATM   14  C21 UNL     1      -3.561   0.957  15.614  1.00  0.00     0.105 A
HETATM   15  C22 UNL     1      -2.287   1.446  15.866  1.00  0.00     0.107 A
HETATM   16  O6  UNL     1      -4.019   0.379  16.819  1.00  0.00    -0.323 OA
HETATM   17  C23 UNL     1      -1.568   2.069  14.877  1.00  0.00     0.070 A
HETATM   18  O5  UNL     1      -2.016   1.153  17.198  1.00  0.00    -0.323 OA
HETATM   19  C26 UNL     1      -2.855   0.043  17.578  1.00  0.00     0.352 C
HETATM   20  N4  UNL     1      -1.411   2.841  12.621  1.00  0.00    -0.322 N
HETATM   21  C25 UNL     1      -1.909   3.013  11.371  1.00  0.00     0.257 A
ATOM     22  H4  UNL     1      -0.475   3.193  12.820  1.00  0.00     0.169 HD
HETATM   23  O4  UNL     1      -1.173   3.600  10.543  1.00  0.00    -0.267 OA
ENDBRANCH   8   9
ENDBRANCH   3   8
BRANCH   1  24
HETATM   24  C12 UNL     1      -6.770   2.254   9.985  1.00  0.00     0.103 C
BRANCH  24  25
HETATM   25  C11 UNL     1      -7.234   1.375   8.896  1.00  0.00     0.009 C
BRANCH  25  26
HETATM   26  C10 UNL     1      -8.616   1.586   8.354  1.00  0.00     0.001 C
BRANCH  26  27
HETATM   27  C9  UNL     1      -8.651   1.804   6.868  1.00  0.00     0.002 C
BRANCH  27  28
HETATM   28  C8  UNL     1      -8.755   3.262   6.545  1.00  0.00     0.020 C
BRANCH  28  29
HETATM   29  C7  UNL     1      -8.292   3.480   5.115  1.00  0.00     0.138 C
BRANCH  29  30
HETATM   30  N2  UNL     1      -7.020   4.145   5.115  1.00  0.00    -0.226 N
ATOM     31  H2  UNL     1      -6.247   3.763   5.661  1.00  0.00     0.177 HD
BRANCH  30  32
HETATM   32  C6  UNL     1      -6.853   5.220   4.431  1.00  0.00     0.678 A
HETATM   33  N1  UNL     1      -5.635   5.801   4.527  1.00  0.00    -0.196 N
HETATM   34  C4  UNL     1      -5.392   6.932   3.853  1.00  0.00     0.024 A
ATOM     35  H1  UNL     1      -4.908   5.381   5.107  1.00  0.00     0.184 HD
HETATM   36  C3  UNL     1      -6.360   7.499   3.070  1.00  0.00     0.050 A
HETATM   37  C5  UNL     1      -4.077   7.622   3.914  1.00  0.00     0.068 C
HETATM   38  C2  UNL     1      -7.582   6.895   2.987  1.00  0.00     0.024 A
HETATM   39  C1  UNL     1      -8.670   7.467   2.165  1.00  0.00     0.068 C
HETATM   40  N5  UNL     1      -7.799   5.761   3.675  1.00  0.00    -0.196 N
ATOM     41  H5  UNL     1      -8.711   5.308   3.614  1.00  0.00     0.184 HD
ENDBRANCH  30  32
ENDBRANCH  29  30
ENDBRANCH  28  29
ENDBRANCH  27  28
ENDBRANCH  26  27
ENDBRANCH  25  26
ENDBRANCH  24  25
ENDBRANCH   1  24
TORSDOF 12
ENDMDL