MODEL 4
REMARK VINA RESULT: -8.649286631      2.289      4.662
REMARK  12 active torsions:
REMARK  status: ('A' for Active; 'I' for Inactive)
REMARK    1  A    between atoms: C2_2  and  C3_3
REMARK    2  A    between atoms: C3_3  and  C4_4
REMARK    3  A    between atoms: C4_4  and  C5_5
REMARK    4  A    between atoms: C5_5  and  N1_6
REMARK    5  A    between atoms: N1_6  and  C6_8
REMARK    6  A    between atoms: C12_14  and  N2_15
REMARK    7  A    between atoms: C16_23  and  N4_24
REMARK    8  A    between atoms: N4_24  and  C17_26
REMARK    9  A    between atoms: C17_26  and  C18_27
REMARK   10  A    between atoms: C18_27  and  N5_28
REMARK   11  A    between atoms: N7_36  and  C23_37
REMARK   12  A    between atoms: C23_37  and  C24_38
ROOT
HETATM    1  C6  UNL     1      -4.331   4.443   8.037  1.00  0.00     0.119 A
HETATM    2  C7  UNL     1      -3.736   4.032   9.239  1.00  0.00     0.079 A
HETATM    3  C8  UNL     1      -4.447   3.532  10.296  1.00  0.00     0.063 A
HETATM    4  C9  UNL     1      -3.886   3.020  11.517  1.00  0.00    -0.003 A
HETATM    5  C10 UNL     1      -4.624   2.048  12.225  1.00  0.00     0.017 A
HETATM    6  C11 UNL     1      -4.227   1.518  13.425  1.00  0.00     0.037 A
HETATM    7  C12 UNL     1      -3.049   1.947  13.985  1.00  0.00     0.103 A
HETATM    8  C13 UNL     1      -2.331   2.891  13.302  1.00  0.00     0.043 A
HETATM    9  C14 UNL     1      -2.717   3.448  12.074  1.00  0.00    -0.047 A
HETATM   10  C15 UNL     1      -1.841   4.528  11.494  1.00  0.00     0.049 C
HETATM   11  N3  UNL     1      -5.795   3.460  10.087  1.00  0.00    -0.191 N
ATOM     12  H3  UNL     1      -6.374   3.092  10.842  1.00  0.00     0.184 HD
HETATM   13  C16 UNL     1      -6.409   3.842   8.952  1.00  0.00     0.680 A
HETATM   14  N8  UNL     1      -5.660   4.328   7.943  1.00  0.00    -0.177 N
ATOM     15  H8  UNL     1      -6.121   4.619   7.081  1.00  0.00     0.185 HD
ENDROOT
BRANCH  13  16
HETATM   16  N4  UNL     1      -7.699   3.741   8.833  1.00  0.00    -0.224 N
ATOM     17  H4  UNL     1      -8.265   4.571   9.011  1.00  0.00     0.177 HD
BRANCH  16  18
HETATM   18  C17 UNL     1      -8.367   2.541   8.468  1.00  0.00     0.157 C
BRANCH  18  19
HETATM   19  C18 UNL     1      -8.388   2.287   6.960  1.00  0.00     0.141 C
BRANCH  19  20
HETATM   20  N5  UNL     1      -9.665   2.590   6.423  1.00  0.00    -0.370 N
HETATM   21  C19 UNL     1      -9.978   3.593   5.718  1.00  0.00     0.171 A
HETATM   22  N6  UNL     1     -11.263   3.721   5.287  1.00  0.00    -0.346 N
HETATM   23  C26 UNL     1      -9.111   4.570   5.351  1.00  0.00     0.291 A
HETATM   24  C20 UNL     1     -11.648   4.755   4.541  1.00  0.00     0.114 A
ATOM     25  H6  UNL     1     -11.947   3.009   5.541  1.00  0.00     0.167 HD
HETATM   26  C21 UNL     1     -10.743   5.722   4.191  1.00  0.00     0.026 A
HETATM   27  C22 UNL     1     -11.211   6.876   3.347  1.00  0.00     0.070 C
HETATM   28  N7  UNL     1      -9.461   5.646   4.589  1.00  0.00    -0.314 N
HETATM   29  O3  UNL     1      -7.901   4.536   5.699  1.00  0.00    -0.264 OA
ATOM     30  H5  UNL     1     -10.413   1.928   6.627  1.00  0.00     0.161 HD
BRANCH  28  31
HETATM   31  C23 UNL     1      -8.486   6.632   4.227  1.00  0.00     0.132 C
BRANCH  31  32
HETATM   32  C24 UNL     1      -8.114   6.671   2.788  1.00  0.00     0.016 C
HETATM   33  C25 UNL     1      -7.904   8.016   2.188  1.00  0.00     0.006 C
ENDBRANCH  31  32
ENDBRANCH  28  31
ENDBRANCH  19  20
ENDBRANCH  18  19
ENDBRANCH  16  18
ENDBRANCH  13  16
BRANCH   1  34
HETATM   34  N1  UNL     1      -3.676   4.906   7.066  1.00  0.00    -0.376 N
ATOM     35  H1  UNL     1      -3.233   4.214   6.461  1.00  0.00     0.161 HD
BRANCH  34  36
HETATM   36  C5  UNL     1      -3.472   6.264   6.700  1.00  0.00     0.121 C
BRANCH  36  37
HETATM   37  C4  UNL     1      -3.246   6.306   5.189  1.00  0.00     0.020 C
BRANCH  37  38
HETATM   38  C3  UNL     1      -4.519   5.851   4.471  1.00  0.00     0.001 C
BRANCH  38  39
HETATM   39  C2  UNL     1      -4.655   6.632   3.197  1.00  0.00    -0.004 C
HETATM   40  C1  UNL     1      -4.424   8.097   3.498  1.00  0.00     0.005 C
ENDBRANCH  38  39
ENDBRANCH  37  38
ENDBRANCH  36  37
ENDBRANCH  34  36
ENDBRANCH   1  34
BRANCH   7  41
HETATM   41  N2  UNL     1      -2.634   1.407  15.216  1.00  0.00    -0.116 N
HETATM   42  O1  UNL     1      -2.582   0.185  15.374  1.00  0.00    -0.532 OA
HETATM   43  O2  UNL     1      -2.288   2.234  16.244  1.00  0.00    -0.532 OA
ENDBRANCH   7  41
TORSDOF 12
ENDMDL