MODEL 5
REMARK VINA RESULT: -8.538023261      1.993      3.244
REMARK  14 active torsions:
REMARK  status: ('A' for Active; 'I' for Inactive)
REMARK    1  A    between atoms: C2_2  and  C3_3
REMARK    2  A    between atoms: C3_3  and  C5_5
REMARK    3  A    between atoms: C5_5  and  C6_6
REMARK    4  A    between atoms: C8_8  and  N1_9
REMARK       I    between atoms: N2_14  and  C10_15
REMARK    5  A    between atoms: C10_15  and  C11_17
REMARK    6  A    between atoms: C11_17  and  C12_18
REMARK    7  A    between atoms: C11_17  and  C14_26
REMARK    8  A    between atoms: C11_17  and  O5_41
REMARK    9  A    between atoms: C12_18  and  C13_19
REMARK   10  A    between atoms: C13_19  and  O2_20
REMARK   11  A    between atoms: N3_22  and  O3_24
REMARK   12  A    between atoms: C14_26  and  N4_27
REMARK   13  A    between atoms: C17_30  and  C18_31
REMARK   14  A    between atoms: C18_31  and  N5_32
ROOT
HETATM    1  C11 UNL     1      -5.628   3.807   9.198  1.00  0.00     0.174 C
ENDROOT
BRANCH   1   2
HETATM    2  C10 UNL     1      -6.234   4.064   7.828  1.00  0.00     0.257 C
HETATM    3  N2  UNL     1      -5.968   5.127   6.996  1.00  0.00    -0.343 N
HETATM    4  C6  UNL     1      -6.493   5.303   5.631  1.00  0.00     0.089 C
HETATM    5  C9  UNL     1      -5.241   6.358   7.179  1.00  0.00     0.159 C
HETATM    6  C7  UNL     1      -5.187   5.596   4.906  1.00  0.00     0.059 C
HETATM    7  C8  UNL     1      -4.558   6.615   5.849  1.00  0.00     0.203 C
HETATM    8  O1  UNL     1      -7.075   3.147   7.502  1.00  0.00    -0.270 OA
BRANCH   4   9
HETATM    9  C5  UNL     1      -7.176   4.121   5.072  1.00  0.00     0.029 C
BRANCH   9  10
HETATM   10  C3  UNL     1      -8.268   4.644   4.123  1.00  0.00    -0.017 C
HETATM   11  C4  UNL     1      -8.715   6.007   4.547  1.00  0.00     0.010 C
BRANCH  10  12
HETATM   12  C2  UNL     1      -9.462   3.701   4.321  1.00  0.00    -0.000 C
HETATM   13  C1  UNL     1     -10.204   4.068   5.591  1.00  0.00     0.005 C
ENDBRANCH  10  12
ENDBRANCH   9  10
ENDBRANCH   4   9
BRANCH   7  14
HETATM   14  N1  UNL     1      -3.125   6.449   5.927  1.00  0.00    -0.073 N
ATOM     15  H13 UNL     1      -2.818   6.298   6.888  1.00  0.00     0.274 HD
ATOM     16  H12 UNL     1      -2.830   5.558   5.526  1.00  0.00     0.274 HD
ATOM     17  H11 UNL     1      -2.635   7.232   5.497  1.00  0.00     0.274 HD
ENDBRANCH   7  14
ENDBRANCH   1   2
BRANCH   1  18
HETATM   18  C12 UNL     1      -5.145   2.359   9.024  1.00  0.00     0.135 C
BRANCH  18  19
HETATM   19  C13 UNL     1      -3.872   2.136   8.389  1.00  0.00     0.138 C
HETATM   20  N3  UNL     1      -2.878   1.505   8.917  1.00  0.00    -0.251 N
ATOM     21  H3  UNL     1      -2.002   1.387   8.408  1.00  0.00     0.196 HD
BRANCH  19  22
HETATM   22  O2  UNL     1      -3.608   2.613   7.084  1.00  0.00    -0.348 OA
ATOM     23  H2  UNL     1      -3.538   3.543   6.903  1.00  0.00     0.219 HD
ENDBRANCH  19  22
BRANCH  20  24
HETATM   24  O3  UNL     1      -3.033   1.001  10.180  1.00  0.00    -0.288 OA
ATOM     25  H3  UNL     1      -2.612   0.175  10.385  1.00  0.00     0.244 HD
ENDBRANCH  20  24
ENDBRANCH  18  19
ENDBRANCH   1  18
BRANCH   1  26
HETATM   26  C14 UNL     1      -4.450   4.691   9.369  1.00  0.00     0.320 C
BRANCH  26  27
HETATM   27  N4  UNL     1      -3.388   4.305  10.215  1.00  0.00     0.091 N
HETATM   28  C15 UNL     1      -3.482   4.455  11.615  1.00  0.00     0.273 C
HETATM   29  C16 UNL     1      -2.280   3.797  12.277  1.00  0.00     0.036 C
HETATM   30  C17 UNL     1      -0.975   4.373  11.845  1.00  0.00     0.007 C
HETATM   31  C24 UNL     1      -0.918   4.480  10.333  1.00  0.00     0.036 C
HETATM   32  C25 UNL     1      -2.179   5.028   9.761  1.00  0.00     0.273 C
BRANCH  30  33
HETATM   33  C18 UNL     1       0.149   3.480  12.299  1.00  0.00     0.130 C
BRANCH  33  34
HETATM   34  N5  UNL     1       0.541   3.680  13.665  1.00  0.00    -0.352 N
HETATM   35  C19 UNL     1       1.160   4.906  14.142  1.00  0.00     0.125 C
HETATM   36  C20 UNL     1       2.050   4.503  15.309  1.00  0.00     0.020 C
HETATM   37  C21 UNL     1       1.206   4.068  16.488  1.00  0.00     0.011 C
HETATM   38  C22 UNL     1       0.149   3.063  16.079  1.00  0.00     0.103 C
HETATM   39  C23 UNL     1       0.337   2.665  14.639  1.00  0.00     0.219 C
HETATM   40  O4  UNL     1       0.312   1.455  14.320  1.00  0.00    -0.273 OA
ENDBRANCH  33  34
ENDBRANCH  30  33
ENDBRANCH  26  27
ENDBRANCH   1  26
BRANCH   1  41
HETATM   41  O5  UNL     1      -6.554   3.882  10.206  1.00  0.00    -0.373 OA
HETATM   42  C26 UNL     1      -6.684   2.604  10.797  1.00  0.00     0.203 C
ENDBRANCH   1  41
TORSDOF 14
ENDMDL