MODEL 3
REMARK VINA RESULT: -9.058983449      0.845      1.283
REMARK  12 active torsions:
REMARK  status: ('A' for Active; 'I' for Inactive)
REMARK    1  A    between atoms: C4_4  and  O1_5
REMARK    2  A    between atoms: O1_5  and  C5_6
REMARK    3  A    between atoms: C5_6  and  C6_7
REMARK    4  A    between atoms: C6_7  and  C7_8
REMARK    5  A    between atoms: C7_8  and  C8_9
REMARK    6  A    between atoms: C8_9  and  C9_10
REMARK    7  A    between atoms: C9_10  and  C10_11
REMARK    8  A    between atoms: C10_11  and  N1_12
REMARK    9  A    between atoms: C16_21  and  C17_22
REMARK       I    between atoms: C17_22  and  N3_24
REMARK   10  A    between atoms: N3_24  and  C18_26
REMARK   11  A    between atoms: C22_33  and  N5_34
REMARK   12  A    between atoms: N5_34  and  C23_36
ROOT
HETATM    1  C6  UNL     1      -5.880   2.621   8.863  1.00  0.00     0.116 C
HETATM    2  C15 UNL     1      -5.828   3.654   7.798  1.00  0.00     0.108 C
HETATM    3  C16 UNL     1      -4.341   3.781   7.598  1.00  0.00     0.102 C
HETATM    4  N4  UNL     1      -3.795   2.726   8.094  1.00  0.00    -0.264 N
ATOM      5  H4  UNL     1      -2.789   2.554   8.093  1.00  0.00     0.194 HD
HETATM    6  O3  UNL     1      -4.713   1.859   8.624  1.00  0.00    -0.266 OA
ENDROOT
BRANCH   1   7
HETATM    7  C5  UNL     1      -5.756   3.193  10.244  1.00  0.00     0.216 C
BRANCH   7   8
HETATM    8  O1  UNL     1      -5.471   2.252  11.230  1.00  0.00    -0.348 OA
BRANCH   8   9
HETATM    9  C4  UNL     1      -4.324   2.482  12.020  1.00  0.00     0.074 A
HETATM   10  C3  UNL     1      -4.070   1.761  13.163  1.00  0.00     0.061 A
HETATM   11  C2  UNL     1      -2.950   1.988  13.931  1.00  0.00     0.009 A
HETATM   12  C1  UNL     1      -2.698   1.186  15.175  1.00  0.00     0.068 C
HETATM   13  N6  UNL     1      -2.101   2.941  13.533  1.00  0.00    -0.346 N
HETATM   14  C22 UNL     1      -2.303   3.692  12.402  1.00  0.00     0.104 A
ATOM     15  H6  UNL     1      -1.267   3.118  14.094  1.00  0.00     0.167 HD
HETATM   16  C21 UNL     1      -3.422   3.468  11.632  1.00  0.00     0.085 A
BRANCH  14  17
HETATM   17  N5  UNL     1      -1.420   4.580  12.101  1.00  0.00    -0.372 N
ATOM     18  H5  UNL     1      -0.897   5.055  12.836  1.00  0.00     0.161 HD
BRANCH  17  19
HETATM   19  C23 UNL     1      -1.176   4.897  10.718  1.00  0.00     0.083 C
HETATM   20  C24 UNL     1      -0.275   6.099  10.539  1.00  0.00     0.025 C
HETATM   21  C25 UNL     1       1.153   5.568  10.627  1.00  0.00     0.002 C
HETATM   22  C26 UNL     1       1.003   4.065  10.825  1.00  0.00     0.002 C
HETATM   23  C27 UNL     1      -0.301   3.809  10.071  1.00  0.00     0.025 C
ENDBRANCH  17  19
ENDBRANCH  14  17
ENDBRANCH   8   9
ENDBRANCH   7   8
ENDBRANCH   1   7
BRANCH   1  24
HETATM   24  C7  UNL     1      -7.050   1.694   8.787  1.00  0.00     0.043 C
BRANCH  24  25
HETATM   25  C8  UNL     1      -8.352   2.341   8.487  1.00  0.00     0.005 C
BRANCH  25  26
HETATM   26  C9  UNL     1      -8.737   1.973   7.048  1.00  0.00     0.030 C
BRANCH  26  27
HETATM   27  C10 UNL     1      -9.313   3.161   6.325  1.00  0.00     0.272 C
BRANCH  27  28
HETATM   28  N1  UNL     1      -9.005   3.242   4.952  1.00  0.00     0.091 N
HETATM   29  C11 UNL     1      -7.734   3.745   4.592  1.00  0.00     0.300 C
HETATM   30  C12 UNL     1      -7.664   5.208   4.334  1.00  0.00     0.262 C
HETATM   31  N2  UNL     1      -8.764   5.971   4.859  1.00  0.00    -0.072 N
HETATM   32  C13 UNL     1     -10.051   5.423   4.594  1.00  0.00     0.262 C
ATOM     33  H22 UNL     1      -8.644   6.121   5.861  1.00  0.00     0.277 HD
ATOM     34  H21 UNL     1      -8.715   6.935   4.530  1.00  0.00     0.277 HD
HETATM   35  C14 UNL     1     -10.035   3.962   4.251  1.00  0.00     0.300 C
ENDBRANCH  27  28
ENDBRANCH  26  27
ENDBRANCH  25  26
ENDBRANCH  24  25
ENDBRANCH   1  24
BRANCH   3  36
HETATM   36  C17 UNL     1      -3.663   4.895   6.958  1.00  0.00     0.266 C
HETATM   37  O2  UNL     1      -2.745   5.501   7.566  1.00  0.00    -0.266 OA
HETATM   38  N3  UNL     1      -4.026   5.305   5.659  1.00  0.00    -0.351 N
ATOM     39  H3  UNL     1      -4.769   4.811   5.164  1.00  0.00     0.163 HD
BRANCH  38  40
HETATM   40  C18 UNL     1      -3.364   6.406   5.022  1.00  0.00     0.084 A
HETATM   41  C19 UNL     1      -4.039   7.301   4.061  1.00  0.00     0.027 A
HETATM   42  C20 UNL     1      -3.785   7.747   5.509  1.00  0.00     0.027 A
ENDBRANCH  38  40
ENDBRANCH   3  36
TORSDOF 12
ENDMDL