MODEL 3
REMARK VINA RESULT: -7.470358305      1.616      2.444
REMARK  11 active torsions:
REMARK  status: ('A' for Active; 'I' for Inactive)
REMARK    1  A    between atoms: C2_2  and  C4_4
REMARK    2  A    between atoms: C4_4  and  C5_5
REMARK    3  A    between atoms: C5_5  and  C6_6
REMARK    4  A    between atoms: C6_6  and  N1_7
REMARK    5  A    between atoms: C6_6  and  C15_26
REMARK       I    between atoms: N1_7  and  C7_9
REMARK    6  A    between atoms: C7_9  and  C8_11
REMARK    7  A    between atoms: C8_11  and  C9_12
REMARK    8  A    between atoms: C8_11  and  N5_24
REMARK    9  A    between atoms: C9_12  and  C10_13
REMARK   10  A    between atoms: C12_15  and  C13_16
REMARK       I    between atoms: C15_26  and  N6_28
REMARK   11  A    between atoms: C21_34  and  C22_35
ROOT
HETATM    1  N1  UNL     1      26.587   9.445 -19.960  1.00  0.00    -0.346 N
ATOM      2  H1  UNL     1      27.516   9.024 -19.968  1.00  0.00     0.163 HD
HETATM    3  C7  UNL     1      25.532   8.536 -19.923  1.00  0.00     0.238 C
HETATM    4  O1  UNL     1      24.343   8.902 -19.891  1.00  0.00    -0.272 OA
ENDROOT
BRANCH   1   5
HETATM    5  C6  UNL     1      26.575  10.886 -19.988  1.00  0.00     0.176 C
BRANCH   5   6
HETATM    6  C5  UNL     1      27.376  11.527 -18.866  1.00  0.00     0.035 C
BRANCH   6   7
HETATM    7  C4  UNL     1      27.198  13.011 -18.793  1.00  0.00     0.006 C
BRANCH   7   8
HETATM    8  C2  UNL     1      28.214  13.563 -17.815  1.00  0.00    -0.023 C
HETATM    9  C1  UNL     1      27.575  14.531 -16.866  1.00  0.00     0.009 C
HETATM   10  C3  UNL     1      29.325  14.283 -18.543  1.00  0.00     0.009 C
ENDBRANCH   7   8
ENDBRANCH   6   7
ENDBRANCH   5   6
BRANCH   5  11
HETATM   11  C15 UNL     1      26.936  11.457 -21.268  1.00  0.00     0.243 C
HETATM   12  O2  UNL     1      25.991  11.952 -21.990  1.00  0.00    -0.271 OA
HETATM   13  N6  UNL     1      28.228  11.519 -21.775  1.00  0.00    -0.333 N
HETATM   14  C16 UNL     1      29.358  10.963 -21.095  1.00  0.00     0.084 C
HETATM   15  C21 UNL     1      28.476  12.192 -23.048  1.00  0.00     0.176 C
HETATM   16  C17 UNL     1      29.925   9.737 -21.810  1.00  0.00     0.032 C
HETATM   17  C18 UNL     1      30.433  12.052 -21.055  1.00  0.00     0.025 C
HETATM   18  C19 UNL     1      30.905  12.384 -22.448  1.00  0.00     0.004 C
HETATM   19  C20 UNL     1      29.909  12.071 -23.505  1.00  0.00     0.035 C
BRANCH  15  20
HETATM   20  C22 UNL     1      28.126  13.622 -23.044  1.00  0.00     0.254 C
HETATM   21  N7  UNL     1      27.688  14.308 -24.196  1.00  0.00    -0.060 NA
HETATM   22  O3  UNL     1      28.204  14.320 -21.974  1.00  0.00    -0.275 OA
ENDBRANCH  15  20
ENDBRANCH   5  11
ENDBRANCH   1   5
BRANCH   3  23
HETATM   23  C8  UNL     1      25.835   7.056 -19.922  1.00  0.00     0.185 C
BRANCH  23  24
HETATM   24  C9  UNL     1      24.502   6.350 -19.856  1.00  0.00     0.088 C
BRANCH  24  25
HETATM   25  C10 UNL     1      24.140   5.962 -18.479  1.00  0.00     0.011 A
HETATM   26  C11 UNL     1      24.449   4.848 -17.741  1.00  0.00     0.041 A
HETATM   27  C12 UNL     1      23.874   4.947 -16.499  1.00  0.00     0.022 A
HETATM   28  C14 UNL     1      23.199   6.170 -16.503  1.00  0.00     0.102 A
HETATM   29  N4  UNL     1      23.379   6.735 -17.684  1.00  0.00    -0.368 N
ATOM     30  H4  UNL     1      22.992   7.639 -17.956  1.00  0.00     0.165 HD
BRANCH  27  31
HETATM   31  C13 UNL     1      23.942   3.995 -15.400  1.00  0.00     0.121 C
HETATM   32  N2  UNL     1      23.168   4.095 -14.374  1.00  0.00    -0.387 N
ATOM     33  H22 UNL     1      22.490   4.855 -14.320  1.00  0.00     0.157 HD
ATOM     34  H21 UNL     1      23.215   3.428 -13.605  1.00  0.00     0.157 HD
HETATM   35  N3  UNL     1      24.886   2.937 -15.475  1.00  0.00    -0.082 NA
ENDBRANCH  27  31
ENDBRANCH  24  25
ENDBRANCH  23  24
BRANCH  23  36
HETATM   36  N5  UNL     1      26.562   6.755 -21.116  1.00  0.00    -0.155 NA
HETATM   37 BR1  UNL     1      27.796   5.362 -20.901  1.00  0.00     0.030 Br
ENDBRANCH  23  36
ENDBRANCH   3  23
TORSDOF 11
ENDMDL