MODEL 5
REMARK VINA RESULT: -7.544802375      2.764      4.183
REMARK  12 active torsions:
REMARK  status: ('A' for Active; 'I' for Inactive)
REMARK    1  A    between atoms: C2_2  and  C3_3
REMARK       I    between atoms: N1_6  and  C6_7
REMARK       I    between atoms: C6_7  and  N2_9
REMARK    2  A    between atoms: N2_9  and  C7_11
REMARK    3  A    between atoms: C7_11  and  C8_12
REMARK    4  A    between atoms: C8_12  and  C9_13
REMARK    5  A    between atoms: C15_22  and  N4_23
REMARK    6  A    between atoms: C15_22  and  C23_35
REMARK       I    between atoms: N4_23  and  C16_24
REMARK    7  A    between atoms: C16_24  and  C17_26
REMARK    8  A    between atoms: C17_26  and  C18_27
REMARK    9  A    between atoms: C18_27  and  C19_28
REMARK   10  A    between atoms: C19_28  and  O4_29
REMARK   11  A    between atoms: C19_28  and  C20_31
REMARK   12  A    between atoms: C20_31  and  C21_32
ROOT
HETATM    1  C3  UNL     1      26.096  10.549 -20.421  1.00  0.00     0.008 C
HETATM    2  C4  UNL     1      26.548  10.497 -21.792  1.00  0.00    -0.004 C
HETATM    3  C5  UNL     1      27.132  11.672 -22.471  1.00  0.00     0.175 C
HETATM    4  N1  UNL     1      27.674  11.110 -23.712  1.00  0.00    -0.262 N
HETATM    5  C6  UNL     1      28.455  11.774 -24.675  1.00  0.00     0.325 C
HETATM    6  O1  UNL     1      28.867  11.207 -25.732  1.00  0.00    -0.247 OA
HETATM    7  N2  UNL     1      28.823  13.141 -24.477  1.00  0.00    -0.342 N
ATOM      8  H2  UNL     1      28.509  13.639 -23.645  1.00  0.00     0.164 HD
HETATM    9  C14 UNL     1      27.314   9.736 -23.741  1.00  0.00     0.282 C
HETATM   10  O2  UNL     1      27.006   9.067 -24.724  1.00  0.00    -0.268 OA
HETATM   11  C15 UNL     1      27.406   9.325 -22.245  1.00  0.00     0.257 C
ENDROOT
BRANCH  11  12
HETATM   12  N4  UNL     1      28.648   9.171 -21.954  1.00  0.00    -0.377 NA
HETATM   13  C16 UNL     1      30.027   8.995 -21.631  1.00  0.00     0.312 C
HETATM   14  O3  UNL     1      30.638   7.877 -21.674  1.00  0.00    -0.252 OA
BRANCH  13  15
HETATM   15  C17 UNL     1      30.860  10.102 -21.217  1.00  0.00     0.092 C
BRANCH  15  16
HETATM   16  C18 UNL     1      30.708  11.154 -20.508  1.00  0.00     0.039 C
BRANCH  16  17
HETATM   17  C19 UNL     1      30.293  12.487 -20.648  1.00  0.00     0.046 C
BRANCH  17  18
HETATM   18  O4  UNL     1      30.356  12.984 -21.856  1.00  0.00    -0.365 OA
ATOM     19  H4  UNL     1      29.703  12.669 -22.471  1.00  0.00     0.217 HD
ENDBRANCH  17  18
BRANCH  17  20
HETATM   20  C20 UNL     1      29.790  13.445 -19.670  1.00  0.00     0.091 C
BRANCH  20  21
HETATM   21  C21 UNL     1      28.477  14.059 -20.153  1.00  0.00    -0.013 C
HETATM   22  C22 UNL     1      27.552  14.495 -19.336  1.00  0.00     0.052 C
HETATM   23 BR1  UNL     1      27.807  14.384 -17.459  1.00  0.00    -0.064 Br
ENDBRANCH  20  21
ENDBRANCH  17  20
ENDBRANCH  16  17
ENDBRANCH  15  16
ENDBRANCH  13  15
ENDBRANCH  11  12
BRANCH  11  24
HETATM   24  C23 UNL     1      26.503   8.104 -22.194  1.00  0.00     0.143 C
HETATM   25  N5  UNL     1      25.335   8.106 -22.688  1.00  0.00    -0.387 N
ATOM     26  H52 UNL     1      24.970   8.956 -23.118  1.00  0.00     0.157 HD
ATOM     27  H51 UNL     1      24.729   7.287 -22.653  1.00  0.00     0.157 HD
HETATM   28  N6  UNL     1      27.006   6.935 -21.602  1.00  0.00    -0.083 NA
ENDBRANCH  11  24
BRANCH   1  29
HETATM   29  C2  UNL     1      26.983  10.939 -19.347  1.00  0.00    -0.010 C
HETATM   30  C1  UNL     1      27.710  10.146 -18.648  1.00  0.00     0.011 C
ENDBRANCH   1  29
BRANCH   7  31
HETATM   31  C7  UNL     1      29.645  13.820 -25.465  1.00  0.00     0.129 C
BRANCH  31  32
HETATM   32  C8  UNL     1      30.362  14.984 -24.842  1.00  0.00     0.060 C
BRANCH  32  33
HETATM   33  C9  UNL     1      31.817  14.758 -25.024  1.00  0.00    -0.039 A
HETATM   34  C10 UNL     1      32.562  13.734 -24.428  1.00  0.00     0.095 A
HETATM   35  N3  UNL     1      33.841  13.863 -24.817  1.00  0.00    -0.369 N
HETATM   36  C11 UNL     1      33.965  14.938 -25.648  1.00  0.00     0.005 A
ATOM     37  H3  UNL     1      34.605  13.249 -24.534  1.00  0.00     0.165 HD
HETATM   38  C12 UNL     1      35.233  15.398 -26.280  1.00  0.00     0.068 C
HETATM   39  C13 UNL     1      32.717  15.482 -25.770  1.00  0.00     0.033 A
ENDBRANCH  32  33
ENDBRANCH  31  32
ENDBRANCH   7  31
TORSDOF 12
ENDMDL