MODEL 5
REMARK VINA RESULT: -7.093292136      4.559      8.650
REMARK  11 active torsions:
REMARK  status: ('A' for Active; 'I' for Inactive)
REMARK    1  A    between atoms: C2_2  and  C4_4
REMARK    2  A    between atoms: C4_4  and  C5_5
REMARK    3  A    between atoms: C5_5  and  N1_6
REMARK    4  A    between atoms: C5_5  and  C17_29
REMARK       I    between atoms: N1_6  and  C6_8
REMARK    5  A    between atoms: C6_8  and  C7_10
REMARK    6  A    between atoms: C7_10  and  N2_11
REMARK       I    between atoms: N2_11  and  C8_13
REMARK    7  A    between atoms: C8_13  and  C9_15
REMARK    8  A    between atoms: C9_15  and  C10_16
REMARK       I    between atoms: C17_29  and  N5_31
REMARK    9  A    between atoms: N5_31  and  C18_33
REMARK   10  A    between atoms: C18_33  and  C19_34
REMARK   11  A    between atoms: C18_33  and  C20_37
ROOT
HETATM    1  N1  UNL     1      25.904  11.661 -20.248  1.00  0.00    -0.344 N
ATOM      2  H1  UNL     1      25.260  12.365 -20.607  1.00  0.00     0.163 HD
HETATM    3  C6  UNL     1      27.120  12.077 -19.647  1.00  0.00     0.275 C
HETATM    4  O1  UNL     1      27.937  11.271 -19.177  1.00  0.00    -0.269 OA
ENDROOT
BRANCH   3   5
HETATM    5  C7  UNL     1      27.435  13.540 -19.585  1.00  0.00     0.280 C
HETATM    6  C14 UNL     1      26.542  14.200 -18.601  1.00  0.00     0.074 C
HETATM    7  C15 UNL     1      27.402  14.567 -17.436  1.00  0.00     0.032 C
HETATM    8  C16 UNL     1      28.787  14.141 -17.814  1.00  0.00     0.236 C
HETATM    9  N4  UNL     1      28.764  13.709 -19.157  1.00  0.00    -0.039 N
ATOM     10  H42 UNL     1      29.321  12.865 -19.296  1.00  0.00     0.280 HD
ATOM     11  H41 UNL     1      29.287  14.335 -19.770  1.00  0.00     0.280 HD
BRANCH   5  12
HETATM   12  N2  UNL     1      27.241  14.082 -20.936  1.00  0.00    -0.320 N
HETATM   13  C8  UNL     1      28.181  14.024 -21.970  1.00  0.00     0.224 C
HETATM   14  O2  UNL     1      29.286  13.464 -21.752  1.00  0.00    -0.273 OA
ATOM     15  H2  UNL     1      26.350  14.537 -21.136  1.00  0.00     0.165 HD
BRANCH  13  16
HETATM   16  C9  UNL     1      27.954  14.588 -23.323  1.00  0.00     0.142 C
BRANCH  16  17
HETATM   17  C10 UNL     1      29.094  14.196 -24.201  1.00  0.00    -0.031 A
HETATM   18  C11 UNL     1      29.319  12.960 -24.782  1.00  0.00     0.096 A
HETATM   19  N3  UNL     1      30.458  13.005 -25.500  1.00  0.00    -0.360 N
HETATM   20  C12 UNL     1      30.992  14.235 -25.412  1.00  0.00     0.080 A
ATOM     21  H3  UNL     1      30.854  12.227 -26.029  1.00  0.00     0.166 HD
HETATM   22 BR1  UNL     1      32.626  14.808 -26.259  1.00  0.00    -0.031 Br
HETATM   23  C13 UNL     1      30.157  14.984 -24.609  1.00  0.00     0.046 A
ENDBRANCH  16  17
ENDBRANCH  13  16
ENDBRANCH   5  12
ENDBRANCH   3   5
BRANCH   1  24
HETATM   24  C5  UNL     1      25.561  10.276 -20.362  1.00  0.00     0.177 C
BRANCH  24  25
HETATM   25  C4  UNL     1      24.146   9.918 -20.579  1.00  0.00     0.038 C
BRANCH  25  26
HETATM   26  C2  UNL     1      23.551   8.895 -19.669  1.00  0.00    -0.020 C
HETATM   27  C1  UNL     1      22.193   8.403 -20.039  1.00  0.00     0.009 C
HETATM   28  C3  UNL     1      24.513   7.718 -19.473  1.00  0.00     0.009 C
ENDBRANCH  25  26
ENDBRANCH  24  25
BRANCH  24  29
HETATM   29  C17 UNL     1      26.443   9.689 -21.456  1.00  0.00     0.241 C
HETATM   30  O3  UNL     1      26.144   9.909 -22.644  1.00  0.00    -0.271 OA
HETATM   31  N5  UNL     1      27.572   8.917 -21.136  1.00  0.00    -0.346 N
ATOM     32  H5  UNL     1      27.810   8.741 -20.159  1.00  0.00     0.163 HD
BRANCH  31  33
HETATM   33  C18 UNL     1      28.398   8.368 -22.194  1.00  0.00     0.177 C
BRANCH  33  34
HETATM   34  C19 UNL     1      29.792   8.766 -21.873  1.00  0.00     0.254 C
HETATM   35  N6  UNL     1      30.146  10.063 -21.484  1.00  0.00    -0.060 NA
HETATM   36  O4  UNL     1      30.728   7.889 -21.956  1.00  0.00    -0.275 OA
ENDBRANCH  33  34
BRANCH  33  37
HETATM   37  C20 UNL     1      28.290   6.882 -22.302  1.00  0.00     0.009 C
HETATM   38  C21 UNL     1      27.366   6.486 -23.409  1.00  0.00     0.012 C
HETATM   39  C22 UNL     1      27.812   6.253 -21.001  1.00  0.00     0.012 C
ENDBRANCH  33  37
ENDBRANCH  31  33
ENDBRANCH  24  29
ENDBRANCH   1  24
TORSDOF 11
ENDMDL