MODEL 1
REMARK VINA RESULT: -7.448610337      0.000      0.000
REMARK  13 active torsions:
REMARK  status: ('A' for Active; 'I' for Inactive)
REMARK    1  A    between atoms: C2_2  and  C3_3
REMARK    2  A    between atoms: C3_3  and  N1_6
REMARK       I    between atoms: N1_6  and  C7_8
REMARK    3  A    between atoms: C7_8  and  C8_10
REMARK    4  A    between atoms: C8_10  and  C9_11
REMARK    5  A    between atoms: C9_11  and  C10_12
REMARK    6  A    between atoms: C10_12  and  N2_13
REMARK    7  A    between atoms: C10_12  and  C12_18
REMARK    8  A    between atoms: C12_18  and  C13_19
REMARK    9  A    between atoms: C13_19  and  C14_20
REMARK   10  A    between atoms: C14_20  and  C15_21
REMARK       I    between atoms: C15_21  and  N5_23
REMARK   11  A    between atoms: N5_23  and  N6_25
REMARK       I    between atoms: N6_25  and  C16_27
REMARK       I    between atoms: N7_30  and  C18_32
REMARK   12  A    between atoms: N9_34  and  C19_36
REMARK       I    between atoms: N10_37  and  C20_39
REMARK   13  A    between atoms: C20_39  and  C21_41
ROOT
HETATM    1  C12 UNL     1      32.195  13.118 -24.989  1.00  0.00     0.012 C
HETATM    2  N7  UNL     1      32.716  12.011 -25.258  1.00  0.00    -0.336 N
ATOM      3  H7  UNL     1      33.727  11.956 -25.126  1.00  0.00     0.168 HD
HETATM    4  C18 UNL     1      32.109  10.855 -25.709  1.00  0.00     0.193 C
HETATM    5  N8  UNL     1      31.186  10.103 -24.892  1.00  0.00    -0.063 NA
HETATM    6  N9  UNL     1      32.317  10.354 -26.893  1.00  0.00    -0.327 N
ATOM      7  H9  UNL     1      31.837   9.494 -27.157  1.00  0.00     0.169 HD
ENDROOT
BRANCH   1   8
HETATM    8  C10 UNL     1      30.734  13.422 -25.115  1.00  0.00     0.130 C
BRANCH   8   9
HETATM    9  C9  UNL     1      30.313  14.005 -23.790  1.00  0.00     0.040 C
BRANCH   9  10
HETATM   10  C8  UNL     1      30.162  12.920 -22.733  1.00  0.00     0.105 C
BRANCH  10  11
HETATM   11  C7  UNL     1      29.095  13.280 -21.771  1.00  0.00     0.220 C
HETATM   12  N1  UNL     1      29.234  13.324 -20.372  1.00  0.00    -0.344 N
HETATM   13  C6  UNL     1      30.457  12.910 -19.748  1.00  0.00     0.154 C
HETATM   14  O1  UNL     1      27.951  13.579 -22.301  1.00  0.00    -0.273 OA
BRANCH  12  15
HETATM   15  C3  UNL     1      28.082  13.787 -19.599  1.00  0.00     0.045 C
HETATM   16  C4  UNL     1      27.371  14.947 -20.284  1.00  0.00     0.043 C
HETATM   17  C5  UNL     1      27.087  12.722 -19.318  1.00  0.00     0.043 C
BRANCH  15  18
HETATM   18  C2  UNL     1      28.574  14.352 -18.288  1.00  0.00    -0.007 C
HETATM   19  C1  UNL     1      27.746  14.442 -17.261  1.00  0.00     0.009 C
ENDBRANCH  15  18
ENDBRANCH  12  15
ENDBRANCH  10  11
ENDBRANCH   9  10
ENDBRANCH   8   9
BRANCH   8  20
HETATM   20  N2  UNL     1      30.633  14.379 -26.178  1.00  0.00    -0.357 N
HETATM   21  C11 UNL     1      30.349  14.125 -27.382  1.00  0.00     0.197 C
HETATM   22  N3  UNL     1      30.288  15.215 -28.338  1.00  0.00    -0.067 NA
HETATM   23  N4  UNL     1      30.089  12.815 -27.848  1.00  0.00    -0.067 NA
ATOM     24  H2  UNL     1      30.807  15.355 -25.940  1.00  0.00     0.162 HD
ENDBRANCH   8  20
ENDBRANCH   1   8
BRANCH   1  25
HETATM   25  C13 UNL     1      33.056  14.199 -24.469  1.00  0.00     0.064 C
BRANCH  25  26
HETATM   26  C14 UNL     1      34.109  14.766 -25.330  1.00  0.00     0.110 C
BRANCH  26  27
HETATM   27  C15 UNL     1      33.720  16.175 -25.619  1.00  0.00     0.236 C
HETATM   28  O2  UNL     1      32.840  16.420 -26.445  1.00  0.00    -0.272 OA
HETATM   29  N5  UNL     1      34.381  17.195 -24.923  1.00  0.00    -0.268 N
ATOM     30  H5  UNL     1      35.109  16.963 -24.247  1.00  0.00     0.190 HD
BRANCH  29  31
HETATM   31  N6  UNL     1      34.046  18.527 -25.155  1.00  0.00    -0.268 N
HETATM   32  C16 UNL     1      34.544  19.514 -24.265  1.00  0.00     0.232 C
HETATM   33  C17 UNL     1      34.185  20.928 -24.508  1.00  0.00     0.119 C
HETATM   34  O3  UNL     1      35.272  19.211 -23.287  1.00  0.00    -0.272 OA
ATOM     35  H6  UNL     1      33.457  18.787 -25.946  1.00  0.00     0.190 HD
ENDBRANCH  29  31
ENDBRANCH  26  27
ENDBRANCH  25  26
ENDBRANCH   1  25
BRANCH   6  36
HETATM   36  C19 UNL     1      33.180  10.964 -27.814  1.00  0.00     0.185 C
HETATM   37  N10 UNL     1      33.998  10.269 -28.517  1.00  0.00    -0.323 N
HETATM   38  C20 UNL     1      33.981   8.849 -28.315  1.00  0.00     0.222 C
ATOM     39  H10 UNL     1      34.630  10.706 -29.187  1.00  0.00     0.169 HD
HETATM   40  O4  UNL     1      32.997   8.213 -28.792  1.00  0.00    -0.273 OA
BRANCH  38  41
HETATM   41  C21 UNL     1      35.034   8.125 -27.591  1.00  0.00     0.098 C
HETATM   42  C22 UNL     1      34.489   6.789 -27.146  1.00  0.00     0.014 C
ENDBRANCH  38  41
ENDBRANCH   6  36
TORSDOF 13
ENDMDL