MODEL 2
REMARK VINA RESULT: -6.717918071      1.956      2.634
REMARK  13 active torsions:
REMARK  status: ('A' for Active; 'I' for Inactive)
REMARK    1  A    between atoms: C2_2  and  C4_4
REMARK    2  A    between atoms: C4_4  and  C5_5
REMARK    3  A    between atoms: C5_5  and  N1_6
REMARK    4  A    between atoms: C5_5  and  C14_24
REMARK       I    between atoms: N1_6  and  C6_8
REMARK    5  A    between atoms: C6_8  and  C7_10
REMARK    6  A    between atoms: C7_10  and  N2_11
REMARK       I    between atoms: N2_11  and  C8_13
REMARK    7  A    between atoms: C8_13  and  C9_15
REMARK    8  A    between atoms: C9_15  and  N3_16
REMARK    9  A    between atoms: C9_15  and  C11_21
REMARK       I    between atoms: N3_16  and  C10_18
REMARK   10  A    between atoms: C14_24  and  N7_30
REMARK   11  A    between atoms: N5_25  and  N6_27
REMARK   12  A    between atoms: N7_30  and  C15_32
REMARK   13  A    between atoms: C15_32  and  C16_33
ROOT
HETATM    1  C5  UNL     1      26.736   9.583 -21.615  1.00  0.00     0.153 C
ENDROOT
BRANCH   1   2
HETATM    2  C4  UNL     1      27.753   8.763 -20.955  1.00  0.00     0.037 C
BRANCH   2   3
HETATM    3  C2  UNL     1      28.572   7.783 -21.646  1.00  0.00    -0.020 C
HETATM    4  C1  UNL     1      30.033   8.114 -21.682  1.00  0.00     0.009 C
HETATM    5  C3  UNL     1      28.383   6.352 -21.185  1.00  0.00     0.009 C
ENDBRANCH   2   3
ENDBRANCH   1   2
BRANCH   1   6
HETATM    6  N1  UNL     1      27.307   9.882 -22.967  1.00  0.00    -0.348 N
HETATM    7  C6  UNL     1      26.509   9.801 -24.134  1.00  0.00     0.235 C
HETATM    8  O1  UNL     1      25.304   9.473 -24.022  1.00  0.00    -0.272 OA
ATOM      9  H1  UNL     1      28.289  10.148 -23.049  1.00  0.00     0.163 HD
BRANCH   7  10
HETATM   10  C7  UNL     1      27.058  10.091 -25.467  1.00  0.00     0.225 C
BRANCH  10  11
HETATM   11  N2  UNL     1      27.886  11.254 -25.537  1.00  0.00    -0.351 N
HETATM   12  C8  UNL     1      29.267  11.300 -25.261  1.00  0.00     0.241 C
HETATM   13  O2  UNL     1      29.861  10.227 -24.916  1.00  0.00    -0.271 OA
ATOM     14  H2  UNL     1      27.437  12.128 -25.812  1.00  0.00     0.163 HD
BRANCH  12  15
HETATM   15  C9  UNL     1      30.077  12.533 -25.348  1.00  0.00     0.181 C
BRANCH  15  16
HETATM   16  N3  UNL     1      31.487  12.232 -25.222  1.00  0.00    -0.332 N
HETATM   17  C10 UNL     1      32.428  12.591 -26.217  1.00  0.00     0.329 C
HETATM   18  N4  UNL     1      33.802  12.276 -26.053  1.00  0.00    -0.040 NA
HETATM   19  O3  UNL     1      32.016  13.187 -27.235  1.00  0.00    -0.251 OA
ATOM     20  H3  UNL     1      31.815  11.744 -24.389  1.00  0.00     0.164 HD
ENDBRANCH  15  16
BRANCH  15  21
HETATM   21  C11 UNL     1      29.725  13.473 -24.191  1.00  0.00     0.009 C
HETATM   22  C12 UNL     1      29.951  14.900 -24.625  1.00  0.00     0.012 C
HETATM   23  C13 UNL     1      30.585  13.178 -22.996  1.00  0.00     0.012 C
ENDBRANCH  15  21
ENDBRANCH  12  15
ENDBRANCH  10  11
ENDBRANCH   7  10
ENDBRANCH   1   6
BRANCH   1  24
HETATM   24  C14 UNL     1      26.474  10.943 -21.078  1.00  0.00     0.121 C
HETATM   25  N5  UNL     1      25.324  11.207 -20.620  1.00  0.00    -0.228 N
ATOM     26  H5  UNL     1      25.218  12.158 -20.267  1.00  0.00     0.194 HD
BRANCH  25  27
HETATM   27  N6  UNL     1      24.204  10.439 -20.517  1.00  0.00    -0.037 N
HETATM   28  O4  UNL     1      23.972   9.535 -19.693  1.00  0.00    -0.516 OA
HETATM   29  O5  UNL     1      23.170  10.658 -21.428  1.00  0.00    -0.516 OA
ENDBRANCH  25  27
BRANCH  24  30
HETATM   30  N7  UNL     1      27.497  11.914 -21.094  1.00  0.00    -0.366 N
ATOM     31  H7  UNL     1      27.635  12.415 -21.971  1.00  0.00     0.161 HD
BRANCH  30  32
HETATM   32  C15 UNL     1      28.377  12.279 -19.994  1.00  0.00     0.048 A
HETATM   33  C18 UNL     1      28.480  11.471 -18.765  1.00  0.00     0.039 A
HETATM   34  C19 UNL     1      29.560  11.410 -19.787  1.00  0.00     0.013 A
HETATM   35  C20 UNL     1      30.932  11.938 -19.489  1.00  0.00     0.012 C
BRANCH  32  36
HETATM   36  C16 UNL     1      28.503  13.778 -19.842  1.00  0.00     0.082 C
HETATM   37  C17 UNL     1      27.727  14.622 -20.778  1.00  0.00     0.024 C
HETATM   38 BR1  UNL     1      28.150  14.330 -18.018  1.00  0.00    -0.089 Br
ENDBRANCH  32  36
ENDBRANCH  30  32
ENDBRANCH  24  30
ENDBRANCH   1  24
TORSDOF 13
ENDMDL