MODEL 4
REMARK VINA RESULT: -7.219688423      0.905      1.913
REMARK  12 active torsions:
REMARK  status: ('A' for Active; 'I' for Inactive)
REMARK    1  A    between atoms: C2_2  and  N1_3
REMARK       I    between atoms: C3_5  and  N2_6
REMARK       I    between atoms: C3_5  and  N9_36
REMARK    2  A    between atoms: C4_8  and  C5_9
REMARK    3  A    between atoms: C4_8  and  N8_29
REMARK    4  A    between atoms: C5_9  and  C6_10
REMARK    5  A    between atoms: C5_9  and  N6_16
REMARK    6  A    between atoms: C6_10  and  N3_11
REMARK       I    between atoms: N6_16  and  C8_18
REMARK    7  A    between atoms: C8_18  and  C9_20
REMARK    8  A    between atoms: C9_20  and  C10_21
REMARK    9  A    between atoms: C9_20  and  N7_25
REMARK   10  A    between atoms: C10_21  and  C11_22
REMARK   11  A    between atoms: N8_29  and  C16_31
REMARK   12  A    between atoms: N9_36  and  C21_38
ROOT
HETATM    1  N1  UNL     1      24.208  10.719 -22.311  1.00  0.00    -0.226 N
ATOM      2  H1  UNL     1      23.433  10.085 -22.118  1.00  0.00     0.177 HD
HETATM    3  C3  UNL     1      24.987  11.076 -21.303  1.00  0.00     0.679 C
HETATM    4  N2  UNL     1      26.014  11.925 -21.600  1.00  0.00    -0.179 N
ATOM      5  H2  UNL     1      25.658  12.774 -22.040  1.00  0.00     0.185 HD
HETATM    6  C4  UNL     1      27.267  11.977 -21.496  1.00  0.00     0.120 C
HETATM    7  N9  UNL     1      24.599  10.511 -20.069  1.00  0.00    -0.192 N
ATOM      8  H9  UNL     1      24.447  11.150 -19.288  1.00  0.00     0.184 HD
ENDROOT
BRANCH   6   9
HETATM    9  C5  UNL     1      28.026  13.177 -21.984  1.00  0.00     0.170 C
BRANCH   9  10
HETATM   10  C6  UNL     1      27.900  14.403 -21.178  1.00  0.00     0.154 C
BRANCH  10  11
HETATM   11  N3  UNL     1      28.512  14.328 -19.866  1.00  0.00    -0.365 N
HETATM   12  C7  UNL     1      27.704  14.271 -18.857  1.00  0.00     0.197 C
HETATM   13  N4  UNL     1      28.176  14.193 -17.501  1.00  0.00    -0.067 NA
HETATM   14  N5  UNL     1      26.288  14.283 -19.004  1.00  0.00    -0.067 NA
ATOM     15  H3  UNL     1      29.525  14.321 -19.745  1.00  0.00     0.161 HD
ENDBRANCH  10  11
ENDBRANCH   9  10
BRANCH   9  16
HETATM   16  N6  UNL     1      29.398  12.864 -22.324  1.00  0.00    -0.346 N
HETATM   17  C8  UNL     1      29.870  12.802 -23.651  1.00  0.00     0.249 C
HETATM   18  O1  UNL     1      29.080  13.023 -24.624  1.00  0.00    -0.271 OA
ATOM     19  H6  UNL     1      30.055  12.679 -21.566  1.00  0.00     0.163 HD
BRANCH  17  20
HETATM   20  C9  UNL     1      31.306  12.471 -23.912  1.00  0.00     0.276 C
BRANCH  20  21
HETATM   21  C10 UNL     1      31.414  11.587 -25.096  1.00  0.00     0.046 C
BRANCH  21  22
HETATM   22  C11 UNL     1      31.375  10.137 -24.757  1.00  0.00    -0.020 C
HETATM   23  C12 UNL     1      32.552   9.410 -25.319  1.00  0.00     0.009 C
HETATM   24  C13 UNL     1      30.057   9.526 -25.256  1.00  0.00     0.009 C
ENDBRANCH  21  22
ENDBRANCH  20  21
BRANCH  20  25
HETATM   25  N7  UNL     1      32.056  13.701 -23.974  1.00  0.00    -0.066 N
HETATM   26  C14 UNL     1      33.269  13.541 -24.748  1.00  0.00     0.267 C
ATOM     27  H72 UNL     1      31.486  14.470 -24.328  1.00  0.00     0.277 HD
ATOM     28  H71 UNL     1      32.252  14.067 -23.042  1.00  0.00     0.277 HD
ENDBRANCH  20  25
ENDBRANCH  17  20
ENDBRANCH   9  16
ENDBRANCH   6   9
BRANCH   6  29
HETATM   29  N8  UNL     1      27.974  10.890 -20.920  1.00  0.00    -0.368 N
HETATM   30  C15 UNL     1      28.044  10.852 -19.467  1.00  0.00     0.151 C
BRANCH  29  31
HETATM   31  C16 UNL     1      28.623   9.899 -21.705  1.00  0.00     0.085 C
HETATM   32  C17 UNL     1      27.971   8.575 -21.798  1.00  0.00     0.025 C
HETATM   33  C18 UNL     1      29.039   7.555 -21.619  1.00  0.00     0.002 C
HETATM   34  C19 UNL     1      30.325   8.278 -21.837  1.00  0.00     0.002 C
HETATM   35  C20 UNL     1      30.057   9.645 -21.232  1.00  0.00     0.025 C
ENDBRANCH  29  31
ENDBRANCH   6  29
BRANCH   1  36
HETATM   36  C2  UNL     1      24.390  11.173 -23.654  1.00  0.00     0.133 C
HETATM   37  C1  UNL     1      23.040  11.648 -24.189  1.00  0.00     0.027 C
ENDBRANCH   1  36
BRANCH   7  38
HETATM   38  C21 UNL     1      24.404   9.118 -19.825  1.00  0.00     0.054 A
HETATM   39  C22 UNL     1      23.148   8.616 -19.509  1.00  0.00     0.047 A
HETATM   40  C23 UNL     1      22.933   7.278 -19.261  1.00  0.00     0.095 A
HETATM   41  N10 UNL     1      23.939   6.390 -19.312  1.00  0.00    -0.338 N
HETATM   42  C24 UNL     1      23.730   4.969 -19.053  1.00  0.00     0.158 C
HETATM   43  C25 UNL     1      25.165   6.837 -19.612  1.00  0.00     0.192 A
HETATM   44  F1  UNL     1      26.178   5.921 -19.659  1.00  0.00    -0.186 F
HETATM   45  C26 UNL     1      25.420   8.189 -19.871  1.00  0.00     0.091 A
ENDBRANCH   7  38
TORSDOF 12
ENDMDL