MODEL 5
REMARK VINA RESULT: -6.863151184      1.701      2.511
REMARK  15 active torsions:
REMARK  status: ('A' for Active; 'I' for Inactive)
REMARK    1  A    between atoms: C2_2  and  C5_5
REMARK    2  A    between atoms: C6_6  and  C7_7
REMARK    3  A    between atoms: C8_8  and  C9_9
REMARK    4  A    between atoms: C10_10  and  C11_11
REMARK    5  A    between atoms: C11_11  and  C12_12
REMARK    6  A    between atoms: C12_12  and  N1_13
REMARK    7  A    between atoms: C12_12  and  C18_23
REMARK       I    between atoms: N1_13  and  C13_15
REMARK    8  A    between atoms: C13_15  and  C14_17
REMARK    9  A    between atoms: C14_17  and  C15_18
REMARK   10  A    between atoms: C15_18  and  C16_19
REMARK   11  A    between atoms: C16_19  and  C17_20
REMARK       I    between atoms: C18_23  and  N2_25
REMARK   12  A    between atoms: N2_25  and  C19_27
REMARK   13  A    between atoms: C19_27  and  C20_28
REMARK   14  A    between atoms: C19_27  and  C21_30
REMARK       I    between atoms: C21_30  and  N3_32
REMARK   15  A    between atoms: C25_36  and  C26_37
ROOT
HETATM    1  C12 UNL     1      28.802  11.122 -21.726  1.00  0.00     0.187 C
ENDROOT
BRANCH   1   2
HETATM    2  C11 UNL     1      30.303  11.204 -21.675  1.00  0.00     0.129 C
BRANCH   2   3
HETATM    3  C10 UNL     1      30.808  12.186 -22.602  1.00  0.00    -0.099 C
HETATM    4  C9  UNL     1      31.264  13.036 -23.364  1.00  0.00    -0.078 C
BRANCH   4   5
HETATM    5  C8  UNL     1      31.784  14.012 -24.272  1.00  0.00     0.073 C
HETATM    6  C7  UNL     1      33.074  14.255 -24.406  1.00  0.00     0.073 C
BRANCH   6   7
HETATM    7  C6  UNL     1      33.599  15.228 -25.312  1.00  0.00    -0.077 C
HETATM    8  C5  UNL     1      34.028  16.052 -26.097  1.00  0.00    -0.093 C
BRANCH   8   9
HETATM    9  C2  UNL     1      34.526  17.045 -27.062  1.00  0.00     0.013 C
HETATM   10  C1  UNL     1      35.979  16.773 -27.283  1.00  0.00     0.028 C
HETATM   11  C3  UNL     1      34.305  18.409 -26.422  1.00  0.00     0.028 C
HETATM   12  C4  UNL     1      33.759  16.943 -28.344  1.00  0.00     0.028 C
ENDBRANCH   8   9
ENDBRANCH   6   7
ENDBRANCH   4   5
ENDBRANCH   2   3
ENDBRANCH   1   2
BRANCH   1  13
HETATM   13  N1  UNL     1      28.365  12.261 -20.882  1.00  0.00    -0.347 N
HETATM   14  C13 UNL     1      27.753  13.417 -21.410  1.00  0.00     0.218 C
HETATM   15  O1  UNL     1      27.584  13.459 -22.644  1.00  0.00    -0.274 OA
ATOM     16  H1  UNL     1      28.512  12.205 -19.874  1.00  0.00     0.163 HD
BRANCH  14  17
HETATM   17  C14 UNL     1      27.318  14.548 -20.579  1.00  0.00     0.103 C
BRANCH  17  18
HETATM   18  C15 UNL     1      26.551  14.112 -19.373  1.00  0.00     0.020 C
BRANCH  18  19
HETATM   19  C16 UNL     1      27.149  14.502 -18.058  1.00  0.00     0.113 C
BRANCH  19  20
HETATM   20  C17 UNL     1      28.613  14.135 -18.020  1.00  0.00     0.172 C
HETATM   21  O2  UNL     1      29.505  14.998 -17.843  1.00  0.00    -0.648 OA
HETATM   22  O3  UNL     1      28.997  12.811 -18.183  1.00  0.00    -0.648 OA
ENDBRANCH  19  20
ENDBRANCH  18  19
ENDBRANCH  17  18
ENDBRANCH  14  17
ENDBRANCH   1  13
BRANCH   1  23
HETATM   23  C18 UNL     1      28.216   9.921 -21.129  1.00  0.00     0.242 C
HETATM   24  O4  UNL     1      27.544  10.072 -20.038  1.00  0.00    -0.271 OA
HETATM   25  N2  UNL     1      28.284   8.602 -21.595  1.00  0.00    -0.345 N
ATOM     26  H2  UNL     1      28.796   8.421 -22.458  1.00  0.00     0.163 HD
BRANCH  25  27
HETATM   27  C19 UNL     1      27.653   7.457 -20.901  1.00  0.00     0.190 C
BRANCH  27  28
HETATM   28  C20 UNL     1      28.494   6.224 -21.219  1.00  0.00     0.149 C
HETATM   29 CL1  UNL     1      27.868   4.778 -20.480  1.00  0.00    -0.128 Cl
ENDBRANCH  27  28
BRANCH  27  30
HETATM   30  C21 UNL     1      26.301   7.232 -21.455  1.00  0.00     0.244 C
HETATM   31  O5  UNL     1      26.292   6.912 -22.710  1.00  0.00    -0.271 OA
HETATM   32  N3  UNL     1      25.076   7.323 -20.839  1.00  0.00    -0.337 N
HETATM   33  C22 UNL     1      23.766   7.082 -21.467  1.00  0.00     0.127 C
HETATM   34  C25 UNL     1      24.773   7.728 -19.470  1.00  0.00     0.176 C
HETATM   35  C23 UNL     1      22.773   7.923 -20.725  1.00  0.00     0.022 C
HETATM   36  C24 UNL     1      23.581   8.689 -19.705  1.00  0.00     0.036 C
BRANCH  34  37
HETATM   37  C26 UNL     1      24.199   6.652 -18.641  1.00  0.00     0.254 C
HETATM   38  N4  UNL     1      24.704   5.343 -18.757  1.00  0.00    -0.060 NA
HETATM   39  O6  UNL     1      23.277   6.900 -17.847  1.00  0.00    -0.275 OA
ENDBRANCH  34  37
ENDBRANCH  27  30
ENDBRANCH  25  27
ENDBRANCH   1  23
TORSDOF 15
ENDMDL