MODEL 2
REMARK VINA RESULT: -7.036080867      1.483      3.026
REMARK  12 active torsions:
REMARK  status: ('A' for Active; 'I' for Inactive)
REMARK    1  A    between atoms: C3_3  and  C4_4
REMARK    2  A    between atoms: C4_4  and  N1_5
REMARK       I    between atoms: N1_5  and  C5_7
REMARK    3  A    between atoms: C5_7  and  C6_9
REMARK    4  A    between atoms: C6_9  and  C7_10
REMARK    5  A    between atoms: C6_9  and  N5_23
REMARK    6  A    between atoms: C7_10  and  C8_11
REMARK    7  A    between atoms: C10_15  and  N3_16
REMARK       I    between atoms: N3_16  and  C11_18
REMARK       I    between atoms: N5_23  and  C13_25
REMARK    8  A    between atoms: C13_25  and  C14_27
REMARK    9  A    between atoms: C14_27  and  C15_28
REMARK   10  A    between atoms: C14_27  and  N6_32
REMARK   11  A    between atoms: C15_28  and  C16_29
REMARK       I    between atoms: N6_32  and  C19_34
REMARK   12  A    between atoms: C19_34  and  C20_36
ROOT
HETATM    1  C1  UNL     1      27.695  14.506 -17.108  1.00  0.00     0.112 C
HETATM    2  C2  UNL     1      28.630  14.041 -18.150  1.00  0.00    -0.109 C
HETATM    3  C3  UNL     1      29.418  13.648 -18.989  1.00  0.00    -0.087 C
ENDROOT
BRANCH   3   4
HETATM    4  C4  UNL     1      30.391  13.188 -19.983  1.00  0.00     0.217 C
BRANCH   4   5
HETATM    5  N1  UNL     1      30.146  11.845 -20.411  1.00  0.00    -0.349 N
HETATM    6  C5  UNL     1      30.401  11.455 -21.790  1.00  0.00     0.241 C
HETATM    7  O1  UNL     1      30.846  12.327 -22.603  1.00  0.00    -0.271 OA
ATOM      8  H1  UNL     1      29.789  11.158 -19.746  1.00  0.00     0.163 HD
BRANCH   6   9
HETATM    9  C6  UNL     1      30.147  10.106 -22.210  1.00  0.00     0.182 C
BRANCH   9  10
HETATM   10  C7  UNL     1      30.079   9.884 -23.681  1.00  0.00     0.094 C
BRANCH  10  11
HETATM   11  C8  UNL     1      31.214   9.338 -24.421  1.00  0.00     0.045 A
HETATM   12  C9  UNL     1      31.201   7.999 -24.924  1.00  0.00     0.131 A
HETATM   13  N2  UNL     1      32.307   7.783 -25.649  1.00  0.00    -0.200 N
HETATM   14  C10 UNL     1      33.027   8.923 -25.625  1.00  0.00     0.684 A
ATOM     15  H2  UNL     1      32.558   6.919 -26.128  1.00  0.00     0.183 HD
HETATM   16  N4  UNL     1      32.357   9.834 -24.887  1.00  0.00    -0.194 N
ATOM     17  H4  UNL     1      32.686  10.783 -24.709  1.00  0.00     0.184 HD
BRANCH  14  18
HETATM   18  N3  UNL     1      34.121   9.121 -26.244  1.00  0.00    -0.160 N
HETATM   19  C11 UNL     1      34.577   8.231 -27.247  1.00  0.00     0.231 C
HETATM   20  C12 UNL     1      34.191   8.447 -28.697  1.00  0.00     0.118 C
HETATM   21  O2  UNL     1      35.306   7.254 -26.966  1.00  0.00    -0.273 OA
ATOM     22  H3  UNL     1      34.683   9.940 -26.011  1.00  0.00     0.187 HD
ENDBRANCH  14  18
ENDBRANCH  10  11
ENDBRANCH   9  10
BRANCH   9  23
HETATM   23  N5  UNL     1      28.884   9.522 -21.691  1.00  0.00    -0.346 N
HETATM   24  C13 UNL     1      28.920   8.158 -21.373  1.00  0.00     0.241 C
HETATM   25  O3  UNL     1      30.040   7.529 -21.506  1.00  0.00    -0.271 OA
ATOM     26  H5  UNL     1      28.040  10.082 -21.573  1.00  0.00     0.163 HD
BRANCH  24  27
HETATM   27  C14 UNL     1      27.748   7.357 -20.918  1.00  0.00     0.177 C
BRANCH  27  28
HETATM   28  C15 UNL     1      27.740   6.233 -21.939  1.00  0.00     0.038 C
BRANCH  28  29
HETATM   29  C16 UNL     1      27.222   4.919 -21.698  1.00  0.00    -0.020 C
HETATM   30  C17 UNL     1      25.822   4.569 -21.455  1.00  0.00     0.009 C
HETATM   31  C18 UNL     1      28.023   4.390 -20.450  1.00  0.00     0.009 C
ENDBRANCH  28  29
ENDBRANCH  27  28
BRANCH  27  32
HETATM   32  N6  UNL     1      26.592   8.225 -21.226  1.00  0.00    -0.346 N
HETATM   33  C19 UNL     1      25.483   8.169 -20.362  1.00  0.00     0.237 C
HETATM   34  O4  UNL     1      25.494   7.386 -19.344  1.00  0.00    -0.272 OA
ATOM     35  H6  UNL     1      26.597   8.843 -22.037  1.00  0.00     0.163 HD
BRANCH  33  36
HETATM   36  C20 UNL     1      24.253   8.964 -20.529  1.00  0.00     0.091 C
HETATM   37  C21 UNL     1      23.236   8.503 -19.529  1.00  0.00     0.037 C
HETATM   38  C22 UNL     1      24.514  10.463 -20.336  1.00  0.00     0.037 C
HETATM   39 BR1  UNL     1      23.550   8.778 -22.333  1.00  0.00    -0.076 Br
ENDBRANCH  33  36
ENDBRANCH  27  32
ENDBRANCH  24  27
ENDBRANCH   9  23
ENDBRANCH   6   9
ENDBRANCH   4   5
ENDBRANCH   3   4
TORSDOF 12
ENDMDL