MODEL 5
REMARK VINA RESULT: -7.055486635      1.312      1.587
REMARK  11 active torsions:
REMARK  status: ('A' for Active; 'I' for Inactive)
REMARK    1  A    between atoms: C2_2  and  C4_4
REMARK       I    between atoms: C4_4  and  N1_6
REMARK    2  A    between atoms: N1_6  and  C5_8
REMARK    3  A    between atoms: C5_8  and  C6_9
REMARK       I    between atoms: C6_9  and  N2_11
REMARK    4  A    between atoms: N2_11  and  C7_13
REMARK    5  A    between atoms: C7_13  and  C8_14
REMARK    6  A    between atoms: C7_13  and  C12_18
REMARK       I    between atoms: C12_18  and  N3_20
REMARK    7  A    between atoms: N3_20  and  C13_22
REMARK    8  A    between atoms: C13_22  and  C14_23
REMARK    9  A    between atoms: C13_22  and  C20_33
REMARK   10  A    between atoms: C14_23  and  C15_24
REMARK       I    between atoms: C20_33  and  N5_35
REMARK   11  A    between atoms: N5_35  and  C21_37
ROOT
HETATM    1  C12 UNL     1      27.647  12.115 -21.991  1.00  0.00     0.244 C
HETATM    2  O3  UNL     1      26.518  11.974 -22.536  1.00  0.00    -0.271 OA
HETATM    3  N3  UNL     1      28.430  11.022 -21.553  1.00  0.00    -0.345 N
ATOM      4  H3  UNL     1      29.339  11.191 -21.124  1.00  0.00     0.163 HD
ENDROOT
BRANCH   3   5
HETATM    5  C13 UNL     1      27.953   9.667 -21.709  1.00  0.00     0.181 C
BRANCH   5   6
HETATM    6  C14 UNL     1      27.525   9.083 -20.369  1.00  0.00     0.076 C
BRANCH   6   7
HETATM    7  C15 UNL     1      26.061   8.909 -20.291  1.00  0.00    -0.021 A
HETATM    8  C16 UNL     1      25.273  10.035 -20.096  1.00  0.00     0.015 A
HETATM    9  C17 UNL     1      23.914   9.873 -20.054  1.00  0.00     0.075 A
HETATM   10  C18 UNL     1      23.376   8.603 -20.206  1.00  0.00     0.246 A
HETATM   11  O4  UNL     1      22.114   8.493 -20.160  1.00  0.00    -0.268 OA
HETATM   12  N4  UNL     1      24.153   7.530 -20.393  1.00  0.00    -0.317 N
HETATM   13  C19 UNL     1      25.495   7.655 -20.440  1.00  0.00     0.088 A
ATOM     14  H4  UNL     1      23.726   6.609 -20.501  1.00  0.00     0.169 HD
HETATM   15 BR1  UNL     1      26.611   6.109 -20.681  1.00  0.00    -0.031 Br
ENDBRANCH   6   7
ENDBRANCH   5   6
BRANCH   5  16
HETATM   16  C20 UNL     1      28.942   8.799 -22.390  1.00  0.00     0.241 C
HETATM   17  O5  UNL     1      29.522   7.902 -21.745  1.00  0.00    -0.271 OA
HETATM   18  N5  UNL     1      29.261   8.952 -23.763  1.00  0.00    -0.355 N
ATOM     19  H5  UNL     1      28.786   9.683 -24.292  1.00  0.00     0.162 HD
BRANCH  18  20
HETATM   20  C21 UNL     1      30.227   8.122 -24.448  1.00  0.00     0.076 C
HETATM   21  C22 UNL     1      29.694   7.606 -25.767  1.00  0.00     0.032 C
HETATM   22  C23 UNL     1      31.582   8.765 -24.590  1.00  0.00     0.032 C
ENDBRANCH  18  20
ENDBRANCH   5  16
ENDBRANCH   3   5
BRANCH   1  23
HETATM   23  C7  UNL     1      28.159  13.515 -21.810  1.00  0.00     0.200 C
BRANCH  23  24
HETATM   24  N2  UNL     1      29.144  13.802 -22.838  1.00  0.00    -0.343 N
HETATM   25  C6  UNL     1      28.755  14.335 -24.080  1.00  0.00     0.236 C
HETATM   26  O2  UNL     1      27.506  14.560 -24.317  1.00  0.00    -0.272 OA
ATOM     27  H2  UNL     1      30.131  13.614 -22.657  1.00  0.00     0.163 HD
BRANCH  25  28
HETATM   28  C5  UNL     1      29.644  14.682 -25.202  1.00  0.00     0.225 C
BRANCH  28  29
HETATM   29  N1  UNL     1      30.997  14.879 -24.787  1.00  0.00    -0.348 N
HETATM   30  C4  UNL     1      32.025  15.275 -25.667  1.00  0.00     0.246 C
HETATM   31  O1  UNL     1      31.760  15.463 -26.892  1.00  0.00    -0.268 OA
ATOM     32  H1  UNL     1      31.231  14.726 -23.805  1.00  0.00     0.163 HD
BRANCH  30  33
HETATM   33  C2  UNL     1      33.397  15.482 -25.234  1.00  0.00    -0.004 C
HETATM   34  C1  UNL     1      33.975  16.659 -25.303  1.00  0.00     0.024 C
HETATM   35  C3  UNL     1      34.190  14.335 -24.682  1.00  0.00     0.053 C
ENDBRANCH  30  33
ENDBRANCH  28  29
ENDBRANCH  25  28
ENDBRANCH  23  24
BRANCH  23  36
HETATM   36  C8  UNL     1      28.771  13.733 -20.489  1.00  0.00     0.010 C
HETATM   37  C9  UNL     1      28.075  14.109 -19.412  1.00  0.00    -0.089 C
HETATM   38  C10 UNL     1      28.789  14.302 -18.119  1.00  0.00     0.042 C
HETATM   39  C11 UNL     1      26.619  14.350 -19.437  1.00  0.00     0.042 C
ENDBRANCH  23  36
ENDBRANCH   1  23
TORSDOF 11
ENDMDL