MODEL 5
REMARK VINA RESULT: -6.607587082      3.803      8.111
REMARK  12 active torsions:
REMARK  status: ('A' for Active; 'I' for Inactive)
REMARK    1  A    between atoms: N1_2  and  C2_4
REMARK    2  A    between atoms: C2_4  and  C3_5
REMARK    3  A    between atoms: C2_4  and  C16_31
REMARK       I    between atoms: N2_6  and  C4_8
REMARK    4  A    between atoms: C4_8  and  C5_10
REMARK    5  A    between atoms: C5_10  and  C6_11
REMARK    6  A    between atoms: C5_10  and  N6_18
REMARK    7  A    between atoms: C6_11  and  C7_12
REMARK    8  A    between atoms: C7_12  and  N3_13
REMARK       I    between atoms: N6_18  and  C9_20
REMARK    9  A    between atoms: C9_20  and  C10_22
REMARK   10  A    between atoms: C10_22  and  N7_23
REMARK   11  A    between atoms: C10_22  and  C13_28
REMARK       I    between atoms: N7_23  and  C11_25
REMARK   12  A    between atoms: C16_31  and  C17_32
ROOT
HETATM    1  C5  UNL     1      24.487   9.710 -20.280  1.00  0.00     0.178 C
ENDROOT
BRANCH   1   2
HETATM    2  C4  UNL     1      24.630  10.923 -21.076  1.00  0.00     0.244 C
HETATM    3  N2  UNL     1      25.603  11.888 -20.892  1.00  0.00    -0.337 N
HETATM    4  C3  UNL     1      26.441  12.039 -19.956  1.00  0.00     0.089 C
ATOM      5  H2  UNL     1      25.653  12.591 -21.628  1.00  0.00     0.168 HD
HETATM    6  O1  UNL     1      23.800  11.127 -22.032  1.00  0.00    -0.271 OA
BRANCH   4   7
HETATM    7  C2  UNL     1      27.362  13.219 -20.079  1.00  0.00     0.119 C
BRANCH   7   8
HETATM    8  N1  UNL     1      26.995  14.231 -19.146  1.00  0.00    -0.416 N
HETATM    9  C1  UNL     1      27.817  14.332 -17.977  1.00  0.00     0.140 C
ATOM     10  H1  UNL     1      26.197  14.845 -19.300  1.00  0.00     0.153 HD
ENDBRANCH   7   8
BRANCH   7  11
HETATM   11  C16 UNL     1      27.374  13.617 -21.513  1.00  0.00     0.069 C
BRANCH  11  12
HETATM   12  C17 UNL     1      28.669  13.546 -22.189  1.00  0.00    -0.050 A
HETATM   13  C18 UNL     1      29.777  12.977 -21.615  1.00  0.00     0.009 A
HETATM   14  C19 UNL     1      30.984  12.917 -22.324  1.00  0.00     0.019 A
HETATM   15  C20 UNL     1      31.076  13.427 -23.601  1.00  0.00     0.011 A
HETATM   16 BR1  UNL     1      32.737  13.329 -24.542  1.00  0.00    -0.051 Br
HETATM   17  C21 UNL     1      29.945  13.998 -24.161  1.00  0.00     0.026 A
HETATM   18  C22 UNL     1      28.744  14.067 -23.481  1.00  0.00    -0.054 A
HETATM   19  C23 UNL     1      27.534  14.684 -24.086  1.00  0.00     0.049 C
ENDBRANCH  11  12
ENDBRANCH   7  11
ENDBRANCH   4   7
ENDBRANCH   1   2
BRANCH   1  20
HETATM   20  C6  UNL     1      23.014   9.325 -20.242  1.00  0.00     0.054 C
BRANCH  20  21
HETATM   21  C7  UNL     1      22.797   7.913 -19.790  1.00  0.00     0.124 C
BRANCH  21  22
HETATM   22  N3  UNL     1      22.622   7.809 -18.359  1.00  0.00    -0.367 N
HETATM   23  C8  UNL     1      23.279   6.911 -17.712  1.00  0.00     0.196 C
HETATM   24  N4  UNL     1      24.180   6.004 -18.323  1.00  0.00    -0.067 NA
HETATM   25  N5  UNL     1      23.091   6.822 -16.307  1.00  0.00    -0.067 NA
ATOM     26  H3  UNL     1      21.986   8.438 -17.869  1.00  0.00     0.161 HD
ENDBRANCH  21  22
ENDBRANCH  20  21
ENDBRANCH   1  20
BRANCH   1  27
HETATM   27  N6  UNL     1      25.193   8.638 -21.022  1.00  0.00    -0.346 N
HETATM   28  C9  UNL     1      26.381   8.115 -20.475  1.00  0.00     0.241 C
HETATM   29  O2  UNL     1      26.816   8.549 -19.384  1.00  0.00    -0.271 OA
ATOM     30  H6  UNL     1      24.827   8.289 -21.908  1.00  0.00     0.163 HD
BRANCH  28  31
HETATM   31  C10 UNL     1      27.143   7.054 -21.163  1.00  0.00     0.179 C
BRANCH  31  32
HETATM   32  N7  UNL     1      28.569   7.352 -21.127  1.00  0.00    -0.348 N
HETATM   33  C11 UNL     1      29.182   8.199 -22.083  1.00  0.00     0.214 C
HETATM   34  C12 UNL     1      30.629   8.470 -22.005  1.00  0.00     0.117 C
HETATM   35  O3  UNL     1      28.537   8.746 -23.022  1.00  0.00    -0.274 OA
ATOM     36  H7  UNL     1      29.143   6.939 -20.392  1.00  0.00     0.163 HD
ENDBRANCH  31  32
BRANCH  31  37
HETATM   37  C13 UNL     1      26.845   5.665 -20.685  1.00  0.00     0.009 C
HETATM   38  C14 UNL     1      28.011   4.741 -20.641  1.00  0.00     0.012 C
HETATM   39  C15 UNL     1      25.748   5.087 -21.534  1.00  0.00     0.012 C
ENDBRANCH  31  37
ENDBRANCH  28  31
ENDBRANCH   1  27
TORSDOF 12
ENDMDL