MODEL 2
REMARK VINA RESULT: -8.652556872      5.756     10.314
REMARK  10 active torsions:
REMARK  status: ('A' for Active; 'I' for Inactive)
REMARK    1  A    between atoms: C4_5  and  C5_6
REMARK    2  A    between atoms: C5_6  and  C6_8
REMARK    3  A    between atoms: C6_8  and  O3_9
REMARK    4  A    between atoms: O3_9  and  C7_10
REMARK    5  A    between atoms: C7_10  and  N1_11
REMARK    6  A    between atoms: C7_10  and  C8_15
REMARK    7  A    between atoms: C8_15  and  C9_19
REMARK    8  A    between atoms: C10_20  and  O4_21
REMARK    9  A    between atoms: C14_32  and  O7_33
REMARK   10  A    between atoms: C16_35  and  O8_36
ROOT
HETATM    1  C1  UNL     1      42.445  44.673   7.421  1.00  0.00     0.210 C
HETATM    2  O1  UNL     1      43.289  45.426   8.029  1.00  0.00    -0.353 OA
HETATM    3  C2  UNL     1      44.080  46.266   8.639  1.00  0.00     0.105 A
HETATM    4  C3  UNL     1      43.770  47.605   8.902  1.00  0.00     0.055 A
HETATM    5  C4  UNL     1      44.630  48.440   9.542  1.00  0.00     0.017 A
HETATM    6  C13 UNL     1      45.849  47.955   9.946  1.00  0.00     0.055 A
HETATM    7  C14 UNL     1      46.188  46.646   9.704  1.00  0.00     0.105 A
HETATM    8  C16 UNL     1      45.335  45.788   9.061  1.00  0.00     0.135 A
ENDROOT
BRANCH   8   9
HETATM    9  O8  UNL     1      45.688  44.454   8.818  1.00  0.00    -0.351 OA
HETATM   10  C17 UNL     1      45.259  43.415   9.706  1.00  0.00     0.210 C
ENDBRANCH   8   9
BRANCH   5  11
HETATM   11  C5  UNL     1      44.298  49.850   9.815  1.00  0.00     0.183 C
HETATM   12  O2  UNL     1      43.896  50.136  10.965  1.00  0.00    -0.290 OA
BRANCH  11  13
HETATM   13  C6  UNL     1      44.422  50.894   8.803  1.00  0.00     0.254 C
BRANCH  13  14
HETATM   14  O3  UNL     1      45.375  50.762   7.851  1.00  0.00    -0.347 OA
BRANCH  14  15
HETATM   15  C7  UNL     1      44.906  50.342   6.585  1.00  0.00     0.370 C
BRANCH  15  16
HETATM   16  N1  UNL     1      43.469  50.488   6.556  1.00  0.00    -0.047 N
ATOM     17  H13 UNL     1      43.001  49.887   7.234  1.00  0.00     0.277 HD
ATOM     18  H12 UNL     1      43.160  51.386   6.927  1.00  0.00     0.277 HD
ATOM     19  H11 UNL     1      43.146  50.328   5.601  1.00  0.00     0.277 HD
ENDBRANCH  15  16
BRANCH  15  20
HETATM   20  C8  UNL     1      45.413  51.302   5.545  1.00  0.00     0.079 C
HETATM   21  N2  UNL     1      46.556  51.887   5.751  1.00  0.00    -0.398 N
ATOM     22  H22 UNL     1      47.089  51.674   6.593  1.00  0.00     0.156 HD
ATOM     23  H21 UNL     1      46.900  52.538   5.045  1.00  0.00     0.156 HD
BRANCH  20  24
HETATM   24  C9  UNL     1      44.670  51.600   4.370  1.00  0.00     0.109 A
HETATM   25  C10 UNL     1      44.579  50.885   3.221  1.00  0.00     0.162 A
HETATM   26  N3  UNL     1      43.804  51.278   2.150  1.00  0.00    -0.288 N
HETATM   27  C11 UNL     1      43.098  52.418   2.225  1.00  0.00     0.329 A
ATOM     28  H3  UNL     1      43.768  50.706   1.306  1.00  0.00     0.172 HD
HETATM   29  O5  UNL     1      42.399  52.764   1.249  1.00  0.00    -0.247 OA
HETATM   30  N4  UNL     1      43.167  53.154   3.355  1.00  0.00    -0.275 N
HETATM   31  C12 UNL     1      43.911  52.790   4.403  1.00  0.00     0.266 A
ATOM     32  H4  UNL     1      42.631  54.020   3.410  1.00  0.00     0.173 HD
HETATM   33  O6  UNL     1      43.910  53.541   5.411  1.00  0.00    -0.267 OA
BRANCH  25  34
HETATM   34  O4  UNL     1      45.281  49.709   3.083  1.00  0.00    -0.345 OA
ATOM     35  H4  UNL     1      45.170  49.012   3.718  1.00  0.00     0.219 HD
ENDBRANCH  25  34
ENDBRANCH  20  24
ENDBRANCH  15  20
ENDBRANCH  14  15
ENDBRANCH  13  14
ENDBRANCH  11  13
ENDBRANCH   5  11
BRANCH   7  36
HETATM   36  O7  UNL     1      47.441  46.149  10.120  1.00  0.00    -0.353 OA
HETATM   37  C15 UNL     1      47.599  45.817  11.483  1.00  0.00     0.210 C
ENDBRANCH   7  36
TORSDOF 10
ENDMDL