MODEL 4
REMARK VINA RESULT: -7.600496450      4.363      8.999
REMARK  11 active torsions:
REMARK  status: ('A' for Active; 'I' for Inactive)
REMARK    1  A    between atoms: O1_2  and  C2_3
REMARK    2  A    between atoms: C2_3  and  C3_5
REMARK    3  A    between atoms: C4_6  and  O3_7
REMARK    4  A    between atoms: O3_7  and  C5_8
REMARK    5  A    between atoms: C5_8  and  C6_9
REMARK    6  A    between atoms: C6_9  and  C7_10
REMARK    7  A    between atoms: C7_10  and  C8_11
REMARK    8  A    between atoms: C8_11  and  N1_12
REMARK    9  A    between atoms: C11_18  and  C12_19
REMARK   10  A    between atoms: N2_20  and  N3_22
REMARK   11  A    between atoms: C13_23  and  N4_24
ROOT
HETATM    1  C3  UNL     1      44.528  49.865   8.799  1.00  0.00     0.097 A
HETATM    2  C4  UNL     1      43.846  50.558   9.813  1.00  0.00     0.086 A
HETATM    3  C9  UNL     1      43.767  50.045  11.091  1.00  0.00     0.039 A
HETATM    4  C10 UNL     1      44.372  48.833  11.355  1.00  0.00     0.017 A
HETATM    5  C11 UNL     1      45.044  48.136  10.376  1.00  0.00     0.006 A
HETATM    6  C16 UNL     1      45.115  48.674   9.083  1.00  0.00     0.077 A
HETATM    7  N7  UNL     1      45.807  47.972   8.050  1.00  0.00    -0.100 NA
ENDROOT
BRANCH   5   8
HETATM    8  C12 UNL     1      45.685  46.857  10.647  1.00  0.00     0.121 C
HETATM    9  N2  UNL     1      46.920  46.761  10.917  1.00  0.00    -0.286 N
ATOM     10  H2  UNL     1      47.454  47.631  10.936  1.00  0.00     0.187 HD
BRANCH   9  11
HETATM   11  N3  UNL     1      47.613  45.606  11.185  1.00  0.00    -0.032 N
HETATM   12  C13 UNL     1      47.909  45.247  12.449  1.00  0.00     0.705 A
HETATM   13  N5  UNL     1      48.587  44.118  12.718  1.00  0.00    -0.139 N
HETATM   14  C14 UNL     1      48.970  43.340  11.692  1.00  0.00     0.342 A
ATOM     15  H5  UNL     1      48.806  43.858  13.680  1.00  0.00     0.189 HD
HETATM   16  O4  UNL     1      49.618  42.258  11.917  1.00  0.00    -0.246 OA
HETATM   17  N6  UNL     1      48.672  43.705  10.433  1.00  0.00    -0.258 N
HETATM   18  C15 UNL     1      47.997  44.829  10.157  1.00  0.00     0.364 A
ATOM     19  H6  UNL     1      48.969  43.107   9.662  1.00  0.00     0.175 HD
HETATM   20  O5  UNL     1      47.748  45.115   8.976  1.00  0.00    -0.244 OA
BRANCH  12  21
HETATM   21  N4  UNL     1      47.532  46.004  13.401  1.00  0.00    -0.233 N
ATOM     22  H42 UNL     1      46.934  46.806  13.205  1.00  0.00     0.174 HD
ATOM     23  H41 UNL     1      47.842  45.787  14.348  1.00  0.00     0.174 HD
ENDBRANCH  12  21
ENDBRANCH   9  11
ENDBRANCH   5   8
BRANCH   1  24
HETATM   24  C2  UNL     1      44.610  50.414   7.445  1.00  0.00     0.297 C
HETATM   25  O2  UNL     1      43.670  50.231   6.632  1.00  0.00    -0.259 OA
BRANCH  24  26
HETATM   26  O1  UNL     1      45.696  51.148   6.989  1.00  0.00    -0.322 OA
HETATM   27  C1  UNL     1      45.798  51.542   5.623  1.00  0.00     0.213 C
ENDBRANCH  24  26
ENDBRANCH   1  24
BRANCH   2  28
HETATM   28  O3  UNL     1      43.294  51.748   9.417  1.00  0.00    -0.350 OA
BRANCH  28  29
HETATM   29  C5  UNL     1      42.385  52.584  10.045  1.00  0.00     0.175 C
BRANCH  29  30
HETATM   30  C6  UNL     1      42.878  53.351  11.226  1.00  0.00     0.028 C
BRANCH  30  31
HETATM   31  C7  UNL     1      41.822  54.370  11.681  1.00  0.00     0.029 C
BRANCH  31  32
HETATM   32  C8  UNL     1      41.725  54.353  13.206  1.00  0.00     0.230 C
BRANCH  32  33
HETATM   33  N1  UNL     1      41.334  55.641  13.687  1.00  0.00    -0.079 N
ATOM     34  H13 UNL     1      41.952  55.975  14.427  1.00  0.00     0.274 HD
ATOM     35  H12 UNL     1      41.511  56.375  13.002  1.00  0.00     0.274 HD
ATOM     36  H11 UNL     1      40.358  55.623  13.983  1.00  0.00     0.274 HD
ENDBRANCH  32  33
ENDBRANCH  31  32
ENDBRANCH  30  31
ENDBRANCH  29  30
ENDBRANCH  28  29
ENDBRANCH   2  28
TORSDOF 11
ENDMDL