MODEL 4
REMARK VINA RESULT: -9.410999439      2.748      3.203
REMARK  12 active torsions:
REMARK  status: ('A' for Active; 'I' for Inactive)
REMARK    1  A    between atoms: N3_6  and  C3_8
REMARK    2  A    between atoms: C6_11  and  C7_12
REMARK    3  A    between atoms: C7_12  and  O1_13
REMARK    4  A    between atoms: C10_17  and  C11_18
REMARK    5  A    between atoms: C11_18  and  N4_19
REMARK    6  A    between atoms: N4_19  and  O2_21
REMARK    7  A    between atoms: O2_21  and  C12_22
REMARK    8  A    between atoms: C12_22  and  C13_23
REMARK    9  A    between atoms: C13_23  and  O3_24
REMARK   10  A    between atoms: O3_24  and  S1_25
REMARK   11  A    between atoms: S1_25  and  N5_26
REMARK   12  A    between atoms: C14_31  and  O6_32
ROOT
HETATM    1  N1  UNL     1      44.006  48.469  12.447  1.00  0.00    -0.063 NA
HETATM    2  C1  UNL     1      44.264  48.869  11.104  1.00  0.00     0.195 A
HETATM    3  N2  UNL     1      44.886  48.103  10.212  1.00  0.00    -0.316 N
ATOM      4  H2  UNL     1      45.194  47.178  10.511  1.00  0.00     0.170 HD
HETATM    5  C2  UNL     1      45.137  48.468   8.938  1.00  0.00     0.119 A
HETATM    6  N3  UNL     1      45.731  47.743   8.080  1.00  0.00    -0.371 N
ATOM      7  H3  UNL     1      45.855  48.142   7.150  1.00  0.00     0.161 HD
HETATM    8  C10 UNL     1      44.710  49.724   8.562  1.00  0.00     0.076 A
HETATM    9  C14 UNL     1      44.061  50.547   9.456  1.00  0.00     0.158 A
HETATM   10  N6  UNL     1      43.847  50.102  10.725  1.00  0.00    -0.310 N
ATOM     11  H6  UNL     1      43.369  50.702  11.397  1.00  0.00     0.170 HD
ENDROOT
BRANCH   8  12
HETATM   12  C11 UNL     1      44.940  50.208   7.191  1.00  0.00     0.133 C
BRANCH  12  13
HETATM   13  N4  UNL     1      45.406  51.394   6.993  1.00  0.00    -0.277 N
ATOM     14  H4  UNL     1      46.328  51.638   7.355  1.00  0.00     0.193 HD
BRANCH  13  15
HETATM   15  O2  UNL     1      44.684  52.331   6.308  1.00  0.00    -0.279 OA
BRANCH  15  16
HETATM   16  C12 UNL     1      44.604  52.316   4.887  1.00  0.00     0.229 C
BRANCH  16  17
HETATM   17  C13 UNL     1      45.819  52.993   4.308  1.00  0.00     0.220 C
BRANCH  17  18
HETATM   18  O3  UNL     1      46.159  54.087   5.088  1.00  0.00    -0.258 OA
BRANCH  18  19
HETATM   19  S1  UNL     1      47.632  54.666   4.509  1.00  0.00     0.355 S
HETATM   20  O4  UNL     1      47.311  55.556   3.320  1.00  0.00    -0.176 OA
HETATM   21  O5  UNL     1      48.342  55.491   5.547  1.00  0.00    -0.176 OA
BRANCH  19  22
HETATM   22  N5  UNL     1      48.674  53.415   3.999  1.00  0.00    -0.306 N
ATOM     23  H52 UNL     1      49.451  53.570   3.357  1.00  0.00     0.171 HD
ATOM     24  H51 UNL     1      48.431  52.512   4.406  1.00  0.00     0.171 HD
ENDBRANCH  19  22
ENDBRANCH  18  19
ENDBRANCH  17  18
ENDBRANCH  16  17
ENDBRANCH  15  16
ENDBRANCH  13  15
ENDBRANCH  12  13
ENDBRANCH   8  12
BRANCH   9  25
HETATM   25  O6  UNL     1      43.609  51.814   9.144  1.00  0.00    -0.345 OA
ATOM     26  H6  UNL     1      44.179  52.564   9.027  1.00  0.00     0.219 HD
ENDBRANCH   9  25
BRANCH   6  27
HETATM   27  C3  UNL     1      46.240  46.427   8.287  1.00  0.00     0.083 C
HETATM   28  C4  UNL     1      47.535  46.376   9.038  1.00  0.00     0.025 C
HETATM   29  C5  UNL     1      48.030  44.960   9.043  1.00  0.00     0.009 C
HETATM   30  C6  UNL     1      47.045  43.946   9.482  1.00  0.00     0.009 C
HETATM   31  C8  UNL     1      45.622  44.238   9.232  1.00  0.00     0.009 C
HETATM   32  C9  UNL     1      45.238  45.666   9.153  1.00  0.00     0.025 C
BRANCH  30  33
HETATM   33  C7  UNL     1      47.307  43.596  10.954  1.00  0.00     0.168 C
BRANCH  33  34
HETATM   34  O1  UNL     1      47.513  42.198  10.961  1.00  0.00    -0.400 OA
ATOM     35  H1  UNL     1      48.393  42.084  11.302  1.00  0.00     0.209 HD
ENDBRANCH  33  34
ENDBRANCH  30  33
ENDBRANCH   6  27
TORSDOF 12
ENDMDL