MODEL 1
REMARK VINA RESULT: -8.560800600      0.000      0.000
REMARK  11 active torsions:
REMARK  status: ('A' for Active; 'I' for Inactive)
REMARK    1  A    between atoms: C2_2  and  N1_3
REMARK    2  A    between atoms: N1_3  and  C3_4
REMARK    3  A    between atoms: N1_3  and  C5_6
REMARK    4  A    between atoms: C5_6  and  C6_7
REMARK    5  A    between atoms: C6_7  and  O1_8
REMARK    6  A    between atoms: O1_8  and  C7_9
REMARK    7  A    between atoms: C7_9  and  C8_11
REMARK    8  A    between atoms: C8_11  and  N2_12
REMARK    9  A    between atoms: C12_24  and  N7_25
REMARK   10  A    between atoms: N7_25  and  C13_27
REMARK   11  A    between atoms: C13_27  and  O4_30
ROOT
HETATM    1  N2  UNL     1      44.560  48.599   8.646  1.00  0.00    -0.153 N
HETATM    2  C9  UNL     1      44.494  48.545   9.987  1.00  0.00     0.172 A
HETATM    3  N3  UNL     1      44.662  47.894  11.152  1.00  0.00    -0.282 N
ATOM      4  H3  UNL     1      44.989  46.967  11.424  1.00  0.00     0.188 HD
HETATM    5  N4  UNL     1      44.225  48.961  11.794  1.00  0.00    -0.291 N
ATOM      6  H4  UNL     1      44.084  49.173  12.781  1.00  0.00     0.187 HD
HETATM    7  C10 UNL     1      44.036  49.664  10.666  1.00  0.00     0.165 A
HETATM    8  C11 UNL     1      43.673  50.764   9.933  1.00  0.00     0.314 A
HETATM    9  O3  UNL     1      43.256  51.787  10.532  1.00  0.00    -0.263 OA
HETATM   10  N5  UNL     1      43.755  50.780   8.567  1.00  0.00    -0.030 N
HETATM   11  N6  UNL     1      43.481  51.674   7.654  1.00  0.00    -0.107 N
ATOM     12  H6  UNL     1      43.121  52.608   7.849  1.00  0.00     0.207 HD
HETATM   13  C12 UNL     1      43.736  51.199   6.434  1.00  0.00     0.710 A
HETATM   14  N8  UNL     1      44.196  49.931   6.609  1.00  0.00    -0.019 N
ATOM     15  H8  UNL     1      44.485  49.283   5.875  1.00  0.00     0.203 HD
HETATM   16  C16 UNL     1      44.199  49.696   7.919  1.00  0.00     0.726 A
ENDROOT
BRANCH   1  17
HETATM   17  C8  UNL     1      45.039  47.447   7.883  1.00  0.00     0.260 C
BRANCH  17  18
HETATM   18  C7  UNL     1      44.285  46.237   8.377  1.00  0.00     0.277 C
HETATM   19  O2  UNL     1      43.110  46.022   7.983  1.00  0.00    -0.263 OA
BRANCH  18  20
HETATM   20  O1  UNL     1      44.859  45.348   9.258  1.00  0.00    -0.318 OA
BRANCH  20  21
HETATM   21  C6  UNL     1      45.049  43.981   9.062  1.00  0.00     0.209 C
BRANCH  21  22
HETATM   22  C5  UNL     1      46.399  43.543   9.507  1.00  0.00     0.299 C
BRANCH  22  23
HETATM   23  N1  UNL     1      47.228  44.654   9.954  1.00  0.00     0.089 N
BRANCH  23  24
HETATM   24  C2  UNL     1      47.574  44.519  11.353  1.00  0.00     0.268 C
HETATM   25  C1  UNL     1      47.611  45.890  11.976  1.00  0.00     0.037 C
ENDBRANCH  23  24
BRANCH  23  26
HETATM   26  C3  UNL     1      48.389  44.813   9.103  1.00  0.00     0.268 C
HETATM   27  C4  UNL     1      48.251  46.062   8.280  1.00  0.00     0.037 C
ENDBRANCH  23  26
ENDBRANCH  22  23
ENDBRANCH  21  22
ENDBRANCH  20  21
ENDBRANCH  18  20
ENDBRANCH  17  18
ENDBRANCH   1  17
BRANCH  13  28
HETATM   28  N7  UNL     1      43.596  51.778   5.310  1.00  0.00    -0.193 N
ATOM     29  H7  UNL     1      42.655  52.113   5.105  1.00  0.00     0.181 HD
BRANCH  28  30
HETATM   30  C13 UNL     1      44.563  52.023   4.299  1.00  0.00     0.140 C
HETATM   31  C14 UNL     1      45.627  53.015   4.631  1.00  0.00     0.071 C
HETATM   32  C15 UNL     1      43.831  52.537   3.054  1.00  0.00     0.071 C
BRANCH  30  33
HETATM   33  O4  UNL     1      45.171  50.805   3.914  1.00  0.00    -0.371 OA
ATOM     34  H4  UNL     1      45.118  50.704   2.971  1.00  0.00     0.212 HD
ENDBRANCH  30  33
ENDBRANCH  28  30
ENDBRANCH  13  28
TORSDOF 11
ENDMDL