MODEL 1
REMARK VINA RESULT: -8.751941580      0.000      0.000
REMARK  11 active torsions:
REMARK  status: ('A' for Active; 'I' for Inactive)
REMARK    1  A    between atoms: C3_4  and  O1_5
REMARK    2  A    between atoms: O1_5  and  C4_6
REMARK    3  A    between atoms: C4_6  and  C5_7
REMARK    4  A    between atoms: C5_7  and  N2_8
REMARK    5  A    between atoms: C5_7  and  C6_12
REMARK    6  A    between atoms: C6_12  and  O2_13
REMARK    7  A    between atoms: O2_13  and  C7_14
REMARK    8  A    between atoms: C10_17  and  S1_18
REMARK    9  A    between atoms: S1_18  and  N3_21
REMARK   10  A    between atoms: N3_21  and  C11_23
REMARK   11  A    between atoms: C13_30  and  N6_31
ROOT
HETATM    1  N1  UNL     1      43.047  46.189   7.900  1.00  0.00    -0.191 NA
HETATM    2  C1  UNL     1      44.028  45.960   8.493  1.00  0.00     0.107 C
HETATM    3  C2  UNL     1      45.244  45.679   9.196  1.00  0.00     0.137 A
HETATM    4  C3  UNL     1      45.972  46.760   9.699  1.00  0.00     0.181 A
HETATM    5  N5  UNL     1      47.092  46.474  10.345  1.00  0.00    -0.169 N
ATOM      6  H5  UNL     1      47.650  47.237  10.728  1.00  0.00     0.186 HD
HETATM    7  C13 UNL     1      47.511  45.223  10.511  1.00  0.00     0.679 A
HETATM    8  N7  UNL     1      46.803  44.178  10.022  1.00  0.00    -0.177 N
ATOM      9  H7  UNL     1      47.144  43.227  10.163  1.00  0.00     0.185 HD
HETATM   10  C14 UNL     1      45.648  44.384   9.351  1.00  0.00     0.157 A
HETATM   11  N8  UNL     1      44.934  43.257   8.857  1.00  0.00    -0.080 NA
ENDROOT
BRANCH   4  12
HETATM   12  O1  UNL     1      45.512  47.977   9.511  1.00  0.00    -0.332 OA
BRANCH  12  13
HETATM   13  C4  UNL     1      44.917  49.076   9.922  1.00  0.00     0.212 C
BRANCH  13  14
HETATM   14  C5  UNL     1      44.181  49.878   8.878  1.00  0.00     0.231 C
BRANCH  14  15
HETATM   15  N2  UNL     1      44.189  51.264   9.263  1.00  0.00    -0.071 N
ATOM     16  H23 UNL     1      44.958  51.781   8.838  1.00  0.00     0.274 HD
ATOM     17  H22 UNL     1      43.419  51.787   8.847  1.00  0.00     0.274 HD
ATOM     18  H21 UNL     1      44.196  51.325  10.281  1.00  0.00     0.274 HD
ENDBRANCH  14  15
BRANCH  14  19
HETATM   19  C6  UNL     1      44.916  49.712   7.547  1.00  0.00     0.212 C
BRANCH  19  20
HETATM   20  O2  UNL     1      45.113  51.005   7.041  1.00  0.00    -0.334 OA
BRANCH  20  21
HETATM   21  C7  UNL     1      44.552  51.470   5.894  1.00  0.00     0.141 A
HETATM   22  C8  UNL     1      43.341  52.153   6.021  1.00  0.00     0.057 A
HETATM   23  C9  UNL     1      42.722  52.651   4.912  1.00  0.00     0.031 A
HETATM   24  C10 UNL     1      43.292  52.479   3.681  1.00  0.00     0.095 A
HETATM   25  C12 UNL     1      44.503  51.791   3.603  1.00  0.00     0.115 A
HETATM   26  N4  UNL     1      45.113  51.302   4.683  1.00  0.00    -0.345 N
ATOM     27  H4  UNL     1      45.998  50.804   4.591  1.00  0.00     0.167 HD
BRANCH  24  28
HETATM   28  S1  UNL     1      42.556  53.041   2.182  1.00  0.00     0.266 S
HETATM   29  O3  UNL     1      43.636  53.654   1.333  1.00  0.00    -0.200 OA
HETATM   30  O4  UNL     1      41.945  51.857   1.504  1.00  0.00    -0.200 OA
BRANCH  28  31
HETATM   31  N3  UNL     1      41.369  54.236   2.614  1.00  0.00    -0.258 N
ATOM     32  H3  UNL     1      41.565  55.228   2.484  1.00  0.00     0.181 HD
BRANCH  31  33
HETATM   33  C11 UNL     1      40.131  53.819   3.144  1.00  0.00     0.363 C
HETATM   34  O5  UNL     1      39.462  54.581   3.878  1.00  0.00    -0.283 OA
ENDBRANCH  31  33
ENDBRANCH  28  31
ENDBRANCH  24  28
ENDBRANCH  20  21
ENDBRANCH  19  20
ENDBRANCH  14  19
ENDBRANCH  13  14
ENDBRANCH  12  13
ENDBRANCH   4  12
BRANCH   7  35
HETATM   35  N6  UNL     1      48.627  44.977  11.159  1.00  0.00    -0.234 N
ATOM     36  H62 UNL     1      49.314  44.360  10.728  1.00  0.00     0.174 HD
ATOM     37  H61 UNL     1      48.795  45.397  12.073  1.00  0.00     0.174 HD
ENDBRANCH   7  35
TORSDOF 11
ENDMDL