MODEL 3
REMARK VINA RESULT: -8.558778827      1.659      2.985
REMARK  12 active torsions:
REMARK  status: ('A' for Active; 'I' for Inactive)
REMARK    1  A    between atoms: N1_2  and  C2_4
REMARK    2  A    between atoms: C3_7  and  C4_8
REMARK    3  A    between atoms: C7_13  and  C8_14
REMARK    4  A    between atoms: C8_14  and  N3_16
REMARK    5  A    between atoms: N3_16  and  O3_17
REMARK    6  A    between atoms: N3_16  and  C11_19
REMARK    7  A    between atoms: C11_19  and  O4_20
REMARK    8  A    between atoms: C11_19  and  C12_22
REMARK    9  A    between atoms: C12_22  and  C14_24
REMARK   10  A    between atoms: C14_24  and  O5_25
REMARK   11  A    between atoms: C14_24  and  N4_27
REMARK   12  A    between atoms: N4_27  and  O6_29
ROOT
HETATM    1  C4  UNL     1      44.363  50.526   8.493  1.00  0.00     0.086 A
HETATM    2  C5  UNL     1      43.687  51.551   9.124  1.00  0.00     0.116 A
HETATM    3  C6  UNL     1      43.348  51.392  10.433  1.00  0.00     0.291 A
HETATM    4  O1  UNL     1      42.736  52.291  11.042  1.00  0.00    -0.260 OA
HETATM    5  O2  UNL     1      43.668  50.290  11.053  1.00  0.00    -0.260 OA
HETATM    6  C7  UNL     1      44.302  49.301  10.506  1.00  0.00     0.153 A
HETATM    7  N5  UNL     1      44.647  49.430   9.214  1.00  0.00    -0.335 N
ATOM      8  H5  UNL     1      45.145  48.663   8.762  1.00  0.00     0.168 HD
ENDROOT
BRANCH   6   9
HETATM    9  C8  UNL     1      44.658  48.044  11.295  1.00  0.00     0.182 C
HETATM   10  C9  UNL     1      44.397  48.424  12.737  1.00  0.00     0.043 C
BRANCH   9  11
HETATM   11  N3  UNL     1      45.963  47.710  10.986  1.00  0.00    -0.253 N
BRANCH  11  12
HETATM   12  O3  UNL     1      46.836  47.832  12.025  1.00  0.00    -0.284 OA
HETATM   13  C10 UNL     1      46.948  46.679  12.786  1.00  0.00     0.237 C
ENDBRANCH  11  12
BRANCH  11  14
HETATM   14  C11 UNL     1      46.396  46.862   9.973  1.00  0.00     0.254 C
BRANCH  14  15
HETATM   15  O4  UNL     1      47.664  46.282  10.262  1.00  0.00    -0.374 OA
ATOM     16  H4  UNL     1      48.147  46.063   9.474  1.00  0.00     0.212 HD
ENDBRANCH  14  15
BRANCH  14  17
HETATM   17  C12 UNL     1      45.539  45.766   9.454  1.00  0.00     0.108 C
HETATM   18  C13 UNL     1      46.174  44.423   9.256  1.00  0.00     0.023 C
BRANCH  17  19
HETATM   19  C14 UNL     1      44.770  46.076   8.188  1.00  0.00     0.145 C
BRANCH  19  20
HETATM   20  O5  UNL     1      45.322  47.176   7.508  1.00  0.00    -0.348 OA
ATOM     21  H5  UNL     1      45.116  47.150   6.581  1.00  0.00     0.219 HD
ENDBRANCH  19  20
BRANCH  19  22
HETATM   22  N4  UNL     1      43.387  45.979   8.213  1.00  0.00    -0.246 N
HETATM   23  C15 UNL     1      42.666  44.915   7.662  1.00  0.00     0.187 C
BRANCH  22  24
HETATM   24  O6  UNL     1      42.739  47.174   8.155  1.00  0.00    -0.286 OA
ATOM     25  H6  UNL     1      42.994  47.792   8.831  1.00  0.00     0.244 HD
ENDBRANCH  22  24
ENDBRANCH  19  22
ENDBRANCH  17  19
ENDBRANCH  14  17
ENDBRANCH  11  14
ENDBRANCH   9  11
ENDBRANCH   6   9
BRANCH   1  26
HETATM   26  C3  UNL     1      44.761  50.681   7.098  1.00  0.00     0.163 A
HETATM   27  N2  UNL     1      45.599  51.618   6.641  1.00  0.00    -0.172 N
HETATM   28  C2  UNL     1      45.831  51.490   5.324  1.00  0.00     0.694 A
ATOM     29  H2  UNL     1      46.014  52.345   7.224  1.00  0.00     0.186 HD
HETATM   30  N7  UNL     1      45.089  50.415   4.966  1.00  0.00    -0.131 N
HETATM   31  N6  UNL     1      44.445  49.930   6.040  1.00  0.00    -0.269 N
ATOM     32  H7  UNL     1      45.029  50.032   4.023  1.00  0.00     0.205 HD
ATOM     33  H6  UNL     1      43.819  49.124   6.046  1.00  0.00     0.189 HD
BRANCH  28  34
HETATM   34  N1  UNL     1      46.598  52.210   4.573  1.00  0.00    -0.229 N
HETATM   35  C1  UNL     1      46.258  53.626   4.428  1.00  0.00     0.165 C
ATOM     36  H1  UNL     1      47.407  51.807   4.100  1.00  0.00     0.177 HD
ENDBRANCH  28  34
ENDBRANCH   1  26
TORSDOF 12
ENDMDL