MODEL 5
REMARK VINA RESULT: -7.655181659      3.143      4.035
REMARK  11 active torsions:
REMARK  status: ('A' for Active; 'I' for Inactive)
REMARK    1  A    between atoms: C2_2  and  O1_3
REMARK    2  A    between atoms: O1_3  and  C3_4
REMARK       I    between atoms: C3_4  and  N1_6
REMARK    3  A    between atoms: N1_6  and  C4_8
REMARK    4  A    between atoms: C5_11  and  N3_12
REMARK    5  A    between atoms: N3_12  and  C6_14
REMARK    6  A    between atoms: C6_14  and  C7_15
REMARK    7  A    between atoms: C7_15  and  N4_16
REMARK    8  A    between atoms: N4_16  and  N5_17
REMARK    9  A    between atoms: N5_17  and  S1_19
REMARK   10  A    between atoms: S1_19  and  C8_22
REMARK   11  A    between atoms: C10_25  and  N6_26
ROOT
HETATM    1  C4  UNL     1      44.935  49.496   8.740  1.00  0.00     0.691 A
HETATM    2  N2  UNL     1      45.173  49.507   7.404  1.00  0.00    -0.174 N
ATOM      3  H2  UNL     1      45.807  48.800   7.031  1.00  0.00     0.186 HD
HETATM    4  C5  UNL     1      44.641  50.372   6.543  1.00  0.00     0.156 A
HETATM    5  C10 UNL     1      43.773  51.343   7.048  1.00  0.00     0.214 A
HETATM    6  C11 UNL     1      43.533  51.331   8.400  1.00  0.00     0.296 A
HETATM    7  O8  UNL     1      42.749  52.203   8.878  1.00  0.00    -0.265 OA
HETATM    8  N7  UNL     1      44.102  50.427   9.221  1.00  0.00    -0.153 N
ATOM      9  H7  UNL     1      43.896  50.452  10.220  1.00  0.00     0.187 HD
ENDROOT
BRANCH   4  10
HETATM   10  N3  UNL     1      44.909  50.390   5.162  1.00  0.00    -0.372 N
ATOM     11  H3  UNL     1      44.726  49.527   4.650  1.00  0.00     0.161 HD
BRANCH  10  12
HETATM   12  C6  UNL     1      45.415  51.498   4.398  1.00  0.00     0.139 C
BRANCH  12  13
HETATM   13  C7  UNL     1      46.665  52.024   5.052  1.00  0.00     0.155 C
BRANCH  13  14
HETATM   14  N4  UNL     1      46.837  53.424   4.691  1.00  0.00    -0.130 NA
BRANCH  14  15
HETATM   15  N5  UNL     1      48.018  53.674   4.023  1.00  0.00    -0.225 N
ATOM     16  H5  UNL     1      48.492  52.982   3.443  1.00  0.00     0.195 HD
BRANCH  15  17
HETATM   17  S1  UNL     1      48.616  55.276   4.266  1.00  0.00     0.306 S
HETATM   18  O3  UNL     1      50.114  55.137   4.490  1.00  0.00    -0.196 OA
HETATM   19  O4  UNL     1      48.021  55.875   5.489  1.00  0.00    -0.196 OA
BRANCH  17  20
HETATM   20  C8  UNL     1      48.324  56.264   2.837  1.00  0.00     0.260 C
HETATM   21  C9  UNL     1      49.504  56.928   2.217  1.00  0.00     0.111 C
HETATM   22  O5  UNL     1      47.195  56.398   2.374  1.00  0.00    -0.279 OA
ENDBRANCH  17  20
ENDBRANCH  15  17
ENDBRANCH  14  15
ENDBRANCH  13  14
ENDBRANCH  12  13
ENDBRANCH  10  12
ENDBRANCH   4  10
BRANCH   5  23
HETATM   23  N6  UNL     1      43.164  52.303   6.187  1.00  0.00    -0.106 N
HETATM   24  O6  UNL     1      42.120  52.093   5.540  1.00  0.00    -0.531 OA
HETATM   25  O7  UNL     1      43.764  53.530   6.063  1.00  0.00    -0.531 OA
ENDBRANCH   5  23
BRANCH   1  26
HETATM   26  N1  UNL     1      45.510  48.599   9.500  1.00  0.00    -0.135 N
HETATM   27  C3  UNL     1      45.896  47.345   8.986  1.00  0.00     0.379 C
HETATM   28  O2  UNL     1      46.990  47.203   8.391  1.00  0.00    -0.238 OA
ATOM     29  H1  UNL     1      45.682  48.810  10.483  1.00  0.00     0.189 HD
BRANCH  27  30
HETATM   30  O1  UNL     1      45.051  46.266   9.147  1.00  0.00    -0.304 OA
BRANCH  30  31
HETATM   31  C2  UNL     1      45.505  44.947   9.305  1.00  0.00     0.176 C
HETATM   32  C1  UNL     1      44.484  43.907   8.959  1.00  0.00     0.034 C
ENDBRANCH  30  31
ENDBRANCH  27  30
ENDBRANCH   1  26
TORSDOF 11
ENDMDL