MODEL 2
REMARK VINA RESULT: -7.968663562      3.802      8.069
REMARK  11 active torsions:
REMARK  status: ('A' for Active; 'I' for Inactive)
REMARK    1  A    between atoms: O1_2  and  C2_3
REMARK    2  A    between atoms: C2_3  and  C3_4
REMARK    3  A    between atoms: C3_4  and  O2_5
REMARK    4  A    between atoms: O2_5  and  C4_6
REMARK    5  A    between atoms: C7_11  and  N2_12
REMARK    6  A    between atoms: C12_22  and  N5_23
REMARK    7  A    between atoms: C15_28  and  O4_29
REMARK    8  A    between atoms: O4_29  and  C16_30
REMARK    9  A    between atoms: C16_30  and  O5_31
REMARK   10  A    between atoms: O5_31  and  C17_32
REMARK   11  A    between atoms: C17_32  and  N6_33
ROOT
HETATM    1  C4  UNL     1      44.136  50.844   8.538  1.00  0.00     0.105 A
HETATM    2  C5  UNL     1      44.970  49.762   8.392  1.00  0.00     0.070 A
HETATM    3  C6  UNL     1      45.197  48.858   9.433  1.00  0.00     0.066 A
HETATM    4  N1  UNL     1      46.017  47.789   9.309  1.00  0.00    -0.191 N
ATOM      5  H1  UNL     1      46.495  47.620   8.424  1.00  0.00     0.184 HD
HETATM    6  C7  UNL     1      46.211  46.942  10.344  1.00  0.00     0.682 A
HETATM    7  N4  UNL     1      45.572  47.188  11.491  1.00  0.00    -0.176 N
ATOM      8  H4  UNL     1      45.730  46.538  12.260  1.00  0.00     0.186 HD
HETATM    9  C12 UNL     1      44.750  48.204  11.717  1.00  0.00     0.127 A
HETATM   10  C13 UNL     1      44.565  49.072  10.618  1.00  0.00     0.038 A
HETATM   11  C14 UNL     1      43.724  50.152  10.786  1.00  0.00     0.058 A
HETATM   12  C15 UNL     1      43.486  51.049   9.785  1.00  0.00     0.122 A
ENDROOT
BRANCH   6  13
HETATM   13  N2  UNL     1      47.064  45.831  10.242  1.00  0.00    -0.207 N
HETATM   14  C8  UNL     1      47.089  44.978   9.082  1.00  0.00     0.161 C
HETATM   15  C9  UNL     1      46.658  43.589   9.418  1.00  0.00     0.143 C
HETATM   16  N3  UNL     1      46.753  43.307  10.805  1.00  0.00    -0.358 N
HETATM   17  C10 UNL     1      47.554  44.024  11.700  1.00  0.00     0.236 C
ATOM     18  H3  UNL     1      46.201  42.532  11.172  1.00  0.00     0.162 HD
HETATM   19  O3  UNL     1      47.931  43.513  12.802  1.00  0.00    -0.272 OA
HETATM   20  C11 UNL     1      47.970  45.442  11.326  1.00  0.00     0.244 C
ENDBRANCH   6  13
BRANCH   9  21
HETATM   21  N5  UNL     1      44.175  48.428  12.789  1.00  0.00    -0.384 N
ATOM     22  H52 UNL     1      43.602  47.705  13.224  1.00  0.00     0.157 HD
ATOM     23  H51 UNL     1      44.211  49.310  13.301  1.00  0.00     0.157 HD
ENDBRANCH   9  21
BRANCH   1  24
HETATM   24  O2  UNL     1      43.857  51.764   7.617  1.00  0.00    -0.346 OA
BRANCH  24  25
HETATM   25  C3  UNL     1      43.468  51.844   6.333  1.00  0.00     0.201 C
BRANCH  25  26
HETATM   26  C2  UNL     1      44.632  52.003   5.384  1.00  0.00     0.193 C
BRANCH  26  27
HETATM   27  O1  UNL     1      45.016  53.324   5.279  1.00  0.00    -0.394 OA
HETATM   28  C1  UNL     1      46.120  53.495   4.499  1.00  0.00     0.201 C
ENDBRANCH  26  27
ENDBRANCH  25  26
ENDBRANCH  24  25
ENDBRANCH   1  24
BRANCH  12  29
HETATM   29  O4  UNL     1      42.649  52.127   9.938  1.00  0.00    -0.245 OA
BRANCH  29  30
HETATM   30  C16 UNL     1      42.683  53.083  10.744  1.00  0.00     0.152 C
BRANCH  30  31
HETATM   31  O5  UNL     1      42.718  54.111  11.610  1.00  0.00    -0.263 OA
BRANCH  31  32
HETATM   32  C17 UNL     1      41.979  54.003  12.765  1.00  0.00     0.417 C
BRANCH  32  33
HETATM   33  N6  UNL     1      41.612  55.266  13.329  1.00  0.00    -0.057 N
ATOM     34  H63 UNL     1      42.130  56.023  12.884  1.00  0.00     0.276 HD
ATOM     35  H62 UNL     1      40.664  55.522  13.052  1.00  0.00     0.276 HD
ATOM     36  H61 UNL     1      41.714  55.305  14.344  1.00  0.00     0.276 HD
ENDBRANCH  32  33
ENDBRANCH  31  32
ENDBRANCH  30  31
ENDBRANCH  29  30
ENDBRANCH  12  29
TORSDOF 11
ENDMDL