MODEL 2
REMARK VINA RESULT: -9.236798634      1.571      1.919
REMARK  13 active torsions:
REMARK  status: ('A' for Active; 'I' for Inactive)
REMARK    1  A    between atoms: C2_2  and  N1_4
REMARK    2  A    between atoms: N1_4  and  C4_6
REMARK    3  A    between atoms: C5_9  and  O1_10
REMARK    4  A    between atoms: O1_10  and  C6_11
REMARK    5  A    between atoms: C6_11  and  C7_12
REMARK    6  A    between atoms: C7_12  and  C8_13
REMARK    7  A    between atoms: C7_12  and  N4_20
REMARK    8  A    between atoms: C8_13  and  N3_14
REMARK    9  A    between atoms: C8_13  and  O2_18
REMARK   10  A    between atoms: N4_20  and  C10_22
REMARK   11  A    between atoms: C10_22  and  O3_23
REMARK   12  A    between atoms: C11_27  and  N6_28
REMARK   13  A    between atoms: N6_28  and  C12_30
ROOT
HETATM    1  C12 UNL     1      44.720  47.909  10.322  1.00  0.00     0.049 A
HETATM    2  C13 UNL     1      44.581  47.089   9.227  1.00  0.00     0.031 A
HETATM    3  C14 UNL     1      45.538  46.153   8.886  1.00  0.00     0.025 A
HETATM    4  C15 UNL     1      46.693  46.004   9.649  1.00  0.00     0.044 A
HETATM    5  C16 UNL     1      47.690  45.034   9.300  1.00  0.00     0.099 C
HETATM    6  N7  UNL     1      48.485  44.240   9.008  1.00  0.00    -0.191 NA
HETATM    7  C17 UNL     1      46.821  46.831  10.744  1.00  0.00     0.025 A
HETATM    8  C18 UNL     1      45.869  47.766  11.088  1.00  0.00     0.031 A
ENDROOT
BRANCH   1   9
HETATM    9  N6  UNL     1      43.763  48.876  10.707  1.00  0.00    -0.191 N
ATOM     10  H6  UNL     1      43.117  48.687  11.473  1.00  0.00     0.184 HD
BRANCH   9  11
HETATM   11  C11 UNL     1      43.716  49.994  10.084  1.00  0.00     0.700 A
HETATM   12  N5  UNL     1      43.963  50.060   8.768  1.00  0.00    -0.154 N
HETATM   13  C5  UNL     1      43.915  51.224   8.111  1.00  0.00     0.252 A
ATOM     14  H5  UNL     1      44.192  49.207   8.258  1.00  0.00     0.188 HD
HETATM   15  N2  UNL     1      43.608  52.357   8.810  1.00  0.00    -0.154 N
HETATM   16  C4  UNL     1      43.356  52.325  10.119  1.00  0.00     0.696 A
ATOM     17  H2  UNL     1      43.570  53.250   8.317  1.00  0.00     0.188 HD
HETATM   18  N8  UNL     1      43.412  51.144  10.750  1.00  0.00    -0.022 N
ATOM     19  H8  UNL     1      43.222  51.104  11.752  1.00  0.00     0.203 HD
BRANCH  13  20
HETATM   20  O1  UNL     1      44.153  51.378   6.774  1.00  0.00    -0.319 OA
BRANCH  20  21
HETATM   21  C6  UNL     1      43.459  52.182   5.876  1.00  0.00     0.208 C
BRANCH  21  22
HETATM   22  C7  UNL     1      43.975  52.161   4.477  1.00  0.00     0.165 C
BRANCH  22  23
HETATM   23  C8  UNL     1      45.334  52.835   4.493  1.00  0.00     0.341 C
BRANCH  23  24
HETATM   24  N3  UNL     1      46.324  51.796   4.749  1.00  0.00    -0.051 N
ATOM     25  H33 UNL     1      45.932  50.854   4.722  1.00  0.00     0.277 HD
ATOM     26  H32 UNL     1      46.990  51.682   3.985  1.00  0.00     0.277 HD
ATOM     27  H31 UNL     1      46.769  52.019   5.640  1.00  0.00     0.277 HD
ENDBRANCH  23  24
BRANCH  23  28
HETATM   28  O2  UNL     1      45.439  53.818   5.456  1.00  0.00    -0.368 OA
ATOM     29  H2  UNL     1      45.052  54.643   5.189  1.00  0.00     0.212 HD
ENDBRANCH  23  28
ENDBRANCH  22  23
BRANCH  22  30
HETATM   30  N4  UNL     1      43.070  52.729   3.545  1.00  0.00    -0.365 N
HETATM   31  C9  UNL     1      43.192  52.371   2.189  1.00  0.00     0.151 C
BRANCH  30  32
HETATM   32  C10 UNL     1      41.799  53.105   4.013  1.00  0.00     0.221 C
BRANCH  32  33
HETATM   33  O3  UNL     1      41.276  54.261   3.453  1.00  0.00    -0.357 OA
ATOM     34  H3  UNL     1      40.328  54.310   3.429  1.00  0.00     0.218 HD
ENDBRANCH  32  33
ENDBRANCH  30  32
ENDBRANCH  22  30
ENDBRANCH  21  22
ENDBRANCH  20  21
ENDBRANCH  13  20
BRANCH  16  35
HETATM   35  N1  UNL     1      43.070  53.381  10.764  1.00  0.00    -0.222 N
ATOM     36  H1  UNL     1      43.696  54.175  10.624  1.00  0.00     0.178 HD
BRANCH  35  37
HETATM   37  C2  UNL     1      41.987  53.592  11.656  1.00  0.00     0.091 C
HETATM   38  C1  UNL     1      41.302  54.901  11.261  1.00  0.00     0.032 C
HETATM   39  C3  UNL     1      42.406  53.735  13.101  1.00  0.00     0.032 C
ENDBRANCH  35  37
ENDBRANCH  16  35
ENDBRANCH   9  11
ENDBRANCH   1   9
TORSDOF 13
ENDMDL