MODEL 5
REMARK VINA RESULT: -8.028463030      2.111      4.284
REMARK  13 active torsions:
REMARK  status: ('A' for Active; 'I' for Inactive)
REMARK    1  A    between atoms: O1_3  and  N2_4
REMARK    2  A    between atoms: N2_4  and  C2_6
REMARK    3  A    between atoms: C2_6  and  O2_7
REMARK    4  A    between atoms: C2_6  and  N3_9
REMARK    5  A    between atoms: N3_9  and  C3_10
REMARK    6  A    between atoms: C3_10  and  C4_11
REMARK    7  A    between atoms: C3_10  and  C8_21
REMARK    8  A    between atoms: C4_11  and  C5_12
REMARK    9  A    between atoms: C6_13  and  C7_14
REMARK   10  A    between atoms: C7_14  and  N4_15
REMARK   11  A    between atoms: C7_14  and  O3_19
REMARK   12  A    between atoms: C8_21  and  O4_22
REMARK   13  A    between atoms: C8_21  and  C9_24
ROOT
HETATM    1  N1  UNL     1      42.242  54.508  12.326  1.00  0.00    -0.162 NA
HETATM    2  C1  UNL     1      42.300  53.779  11.436  1.00  0.00     0.253 C
HETATM    3  O1  UNL     1      42.328  52.946  10.406  1.00  0.00    -0.155 OA
ENDROOT
BRANCH   3   4
HETATM    4  N2  UNL     1      43.372  52.408   9.711  1.00  0.00    -0.201 N
ATOM      5  H2  UNL     1      43.881  52.986   9.043  1.00  0.00     0.200 HD
BRANCH   4   6
HETATM    6  C2  UNL     1      43.763  51.055   9.903  1.00  0.00     0.319 C
BRANCH   6   7
HETATM    7  O2  UNL     1      43.665  50.704  11.171  1.00  0.00    -0.320 OA
ATOM      8  H2  UNL     1      44.397  50.159  11.435  1.00  0.00     0.222 HD
ENDBRANCH   6   7
BRANCH   6   9
HETATM    9  N3  UNL     1      44.199  50.160   8.949  1.00  0.00    -0.370 NA
BRANCH   9  10
HETATM   10  C3  UNL     1      44.648  49.284   7.996  1.00  0.00     0.101 C
BRANCH  10  11
HETATM   11  C4  UNL     1      45.039  49.732   6.644  1.00  0.00     0.098 C
BRANCH  11  12
HETATM   12  C5  UNL     1      45.459  51.113   6.412  1.00  0.00    -0.020 C
HETATM   13  C6  UNL     1      44.626  52.069   6.009  1.00  0.00     0.029 C
BRANCH  13  14
HETATM   14  C7  UNL     1      43.190  51.935   5.732  1.00  0.00     0.340 C
BRANCH  14  15
HETATM   15  N4  UNL     1      42.713  52.981   4.831  1.00  0.00    -0.050 N
ATOM     16  H43 UNL     1      43.439  53.673   4.647  1.00  0.00     0.277 HD
ATOM     17  H42 UNL     1      42.587  52.627   3.882  1.00  0.00     0.277 HD
ATOM     18  H41 UNL     1      41.861  53.420   5.179  1.00  0.00     0.277 HD
ENDBRANCH  14  15
BRANCH  14  19
HETATM   19  O3  UNL     1      42.417  51.885   6.914  1.00  0.00    -0.367 OA
ATOM     20  H3  UNL     1      41.502  52.082   6.755  1.00  0.00     0.212 HD
ENDBRANCH  14  19
ENDBRANCH  13  14
ENDBRANCH  11  12
ENDBRANCH  10  11
BRANCH  10  21
HETATM   21  C8  UNL     1      44.151  47.867   8.080  1.00  0.00     0.207 C
BRANCH  21  22
HETATM   22  O4  UNL     1      44.353  47.252   6.797  1.00  0.00    -0.386 OA
ATOM     23  H4  UNL     1      45.143  46.727   6.846  1.00  0.00     0.210 HD
ENDBRANCH  21  22
BRANCH  21  24
HETATM   24  C9  UNL     1      45.141  46.980   8.887  1.00  0.00     0.169 C
HETATM   25  C10 UNL     1      46.505  46.952   8.339  1.00  0.00     0.066 C
HETATM   26  C11 UNL     1      47.463  46.238   9.319  1.00  0.00     0.275 C
HETATM   27  N5  UNL     1      46.834  45.865  10.512  1.00  0.00     0.093 N
HETATM   28  C12 UNL     1      47.659  46.219  11.654  1.00  0.00     0.273 C
HETATM   29  C15 UNL     1      46.611  44.474  10.753  1.00  0.00     0.232 C
HETATM   30  C13 UNL     1      48.670  45.073  11.688  1.00  0.00     0.032 C
HETATM   31  C14 UNL     1      47.840  43.871  11.336  1.00  0.00     0.038 C
HETATM   32  C16 UNL     1      46.141  43.667   9.572  1.00  0.00     0.146 C
HETATM   33  C17 UNL     1      44.940  44.381   9.037  1.00  0.00     0.261 C
HETATM   34  O5  UNL     1      44.070  43.592   8.554  1.00  0.00    -0.265 OA
HETATM   35  O6  UNL     1      44.573  45.675   8.956  1.00  0.00    -0.313 OA
ENDBRANCH  21  24
ENDBRANCH  10  21
ENDBRANCH   9  10
ENDBRANCH   6   9
ENDBRANCH   4   6
ENDBRANCH   3   4
TORSDOF 13
ENDMDL