MODEL 1
REMARK VINA RESULT: -9.511915556      0.000      0.000
REMARK  12 active torsions:
REMARK  status: ('A' for Active; 'I' for Inactive)
REMARK    1  A    between atoms: C2_2  and  C3_3
REMARK    2  A    between atoms: C3_3  and  N1_4
REMARK    3  A    between atoms: C5_8  and  C6_9
REMARK    4  A    between atoms: C6_9  and  C7_10
REMARK    5  A    between atoms: C7_10  and  N3_11
REMARK    6  A    between atoms: C7_10  and  C17_27
REMARK       I    between atoms: N3_11  and  C8_13
REMARK    7  A    between atoms: C8_13  and  C9_15
REMARK    8  A    between atoms: C9_15  and  N4_16
REMARK       I    between atoms: N4_16  and  C10_18
REMARK    9  A    between atoms: C10_18  and  O3_20
REMARK       I    between atoms: C17_27  and  N5_29
REMARK   10  A    between atoms: N6_32  and  C20_33
REMARK   11  A    between atoms: C20_33  and  C21_34
REMARK   12  A    between atoms: C21_34  and  N7_35
ROOT
HETATM    1  C7  UNL     1      17.937  23.711  19.176  1.00  0.00     0.182 C
ENDROOT
BRANCH   1   2
HETATM    2  C6  UNL     1      18.361  23.989  20.605  1.00  0.00     0.093 C
BRANCH   2   3
HETATM    3  C5  UNL     1      19.738  24.531  20.698  1.00  0.00     0.028 A
HETATM    4  N2  UNL     1      20.118  25.762  21.061  1.00  0.00    -0.354 N
HETATM    5  C4  UNL     1      21.450  25.877  21.016  1.00  0.00     0.183 A
ATOM      6  H2  UNL     1      19.480  26.510  21.334  1.00  0.00     0.166 HD
HETATM    7  N1  UNL     1      21.949  24.672  20.608  1.00  0.00    -0.348 N
HETATM    8  C30 UNL     1      20.912  23.863  20.417  1.00  0.00     0.117 A
BRANCH   7   9
HETATM    9  C3  UNL     1      23.360  24.356  20.420  1.00  0.00     0.155 C
BRANCH   9  10
HETATM   10  C2  UNL     1      24.181  25.017  21.460  1.00  0.00    -0.017 C
HETATM   11  C1  UNL     1      25.311  24.491  21.913  1.00  0.00     0.008 C
ENDBRANCH   9  10
ENDBRANCH   7   9
ENDBRANCH   2   3
ENDBRANCH   1   2
BRANCH   1  12
HETATM   12  N3  UNL     1      19.072  24.141  18.342  1.00  0.00    -0.345 N
HETATM   13  C8  UNL     1      18.939  25.160  17.369  1.00  0.00     0.246 C
HETATM   14  O1  UNL     1      17.816  25.685  17.240  1.00  0.00    -0.271 OA
ATOM     15  H3  UNL     1      19.980  23.692  18.470  1.00  0.00     0.163 HD
BRANCH  13  16
HETATM   16  C9  UNL     1      20.055  25.618  16.516  1.00  0.00     0.116 C
HETATM   17  C12 UNL     1      20.375  24.543  15.532  1.00  0.00     0.041 C
HETATM   18  C13 UNL     1      21.206  24.966  14.364  1.00  0.00     0.003 C
HETATM   19  C14 UNL     1      21.146  26.445  14.083  1.00  0.00     0.000 C
HETATM   20  C15 UNL     1      19.722  26.877  14.372  1.00  0.00     0.003 C
HETATM   21  C16 UNL     1      19.602  26.908  15.878  1.00  0.00     0.041 C
BRANCH  16  22
HETATM   22  N4  UNL     1      21.177  25.923  17.375  1.00  0.00    -0.319 N
HETATM   23  C10 UNL     1      21.712  27.188  17.636  1.00  0.00     0.361 C
HETATM   24  O2  UNL     1      21.287  28.252  17.158  1.00  0.00    -0.238 OA
ATOM     25  H4  UNL     1      21.625  25.133  17.839  1.00  0.00     0.166 HD
BRANCH  23  26
HETATM   26  O3  UNL     1      22.813  27.310  18.499  1.00  0.00    -0.309 OA
HETATM   27  C11 UNL     1      24.130  27.038  18.030  1.00  0.00     0.215 C
ENDBRANCH  23  26
ENDBRANCH  16  22
ENDBRANCH  13  16
ENDBRANCH   1  12
BRANCH   1  28
HETATM   28  C17 UNL     1      17.617  22.314  18.937  1.00  0.00     0.243 C
HETATM   29  O4  UNL     1      18.347  21.406  19.388  1.00  0.00    -0.271 OA
HETATM   30  N5  UNL     1      16.470  21.935  18.183  1.00  0.00    -0.347 N
HETATM   31  C18 UNL     1      16.157  20.529  18.018  1.00  0.00     0.156 C
HETATM   32  C29 UNL     1      15.680  22.951  17.576  1.00  0.00     0.156 C
HETATM   33  C19 UNL     1      15.045  20.182  17.113  1.00  0.00     0.293 C
HETATM   34  N6  UNL     1      14.626  21.268  16.300  1.00  0.00     0.103 N
HETATM   35  C28 UNL     1      14.310  22.354  17.248  1.00  0.00     0.293 C
BRANCH  34  36
HETATM   36  C20 UNL     1      13.496  21.087  15.464  1.00  0.00     0.183 C
HETATM   37  C23 UNL     1      12.960  22.451  15.081  1.00  0.00     0.043 C
HETATM   38  C24 UNL     1      12.827  22.648  13.592  1.00  0.00     0.003 C
HETATM   39  C25 UNL     1      14.083  22.421  12.819  1.00  0.00     0.000 C
HETATM   40  C26 UNL     1      14.816  21.241  13.414  1.00  0.00     0.003 C
HETATM   41  C27 UNL     1      13.805  20.393  14.157  1.00  0.00     0.043 C
BRANCH  36  42
HETATM   42  C21 UNL     1      12.392  20.343  16.186  1.00  0.00     0.273 C
BRANCH  42  43
HETATM   43  N7  UNL     1      11.883  19.229  15.403  1.00  0.00    -0.076 N
HETATM   44  C22 UNL     1      10.434  19.165  15.459  1.00  0.00     0.267 C
ATOM     45  H72 UNL     1      12.220  19.264  14.440  1.00  0.00     0.276 HD
ATOM     46  H71 UNL     1      12.309  18.346  15.685  1.00  0.00     0.276 HD
ENDBRANCH  42  43
ENDBRANCH  36  42
ENDBRANCH  34  36
ENDBRANCH   1  28
TORSDOF 12
ENDMDL