MODEL 2
REMARK VINA RESULT: -8.423049127      2.449      4.108
REMARK  17 active torsions:
REMARK  status: ('A' for Active; 'I' for Inactive)
REMARK    1  A    between atoms: C2_2  and  C3_3
REMARK    2  A    between atoms: C3_3  and  C5_5
REMARK    3  A    between atoms: C5_5  and  N1_6
REMARK    4  A    between atoms: C5_5  and  C6_10
REMARK       I    between atoms: C6_10  and  N2_12
REMARK    5  A    between atoms: N2_12  and  C7_14
REMARK    6  A    between atoms: C8_16  and  N3_17
REMARK    7  A    between atoms: N3_17  and  C10_19
REMARK    8  A    between atoms: C10_19  and  C11_21
REMARK    9  A    between atoms: C11_21  and  C12_22
REMARK   10  A    between atoms: C12_22  and  C13_23
REMARK   11  A    between atoms: C13_23  and  C14_24
REMARK   12  A    between atoms: C14_24  and  C15_25
REMARK   13  A    between atoms: C15_25  and  C16_26
REMARK   14  A    between atoms: C16_26  and  N4_27
REMARK   15  A    between atoms: N4_27  and  C17_28
REMARK   16  A    between atoms: C17_28  and  O2_29
REMARK   17  A    between atoms: C17_28  and  N5_31
ROOT
HETATM    1  C12 UNL     1      17.745  21.911  17.967  1.00  0.00     0.006 C
HETATM    2  N6  UNL     1      17.841  21.220  19.062  1.00  0.00    -0.301 N
ATOM      3  H6  UNL     1      17.436  20.284  19.071  1.00  0.00     0.177 HD
HETATM    4  C22 UNL     1      18.460  21.671  20.225  1.00  0.00     0.181 C
HETATM    5  N7  UNL     1      18.959  22.057  21.223  1.00  0.00    -0.172 NA
ENDROOT
BRANCH   1   6
HETATM    6  C11 UNL     1      17.068  21.298  16.833  1.00  0.00     0.123 C
BRANCH   6   7
HETATM    7  C10 UNL     1      15.872  21.943  16.286  1.00  0.00     0.085 C
HETATM    8  S2  UNL     1      15.620  22.462  14.794  1.00  0.00    -0.065 SA
BRANCH   7   9
HETATM    9  N3  UNL     1      14.803  22.100  17.258  1.00  0.00    -0.340 N
HETATM   10  C9  UNL     1      14.541  23.446  17.727  1.00  0.00     0.157 C
BRANCH   9  11
HETATM   11  C8  UNL     1      14.075  20.985  17.706  1.00  0.00     0.070 C
HETATM   12  S1  UNL     1      13.215  19.866  16.578  1.00  0.00    -0.086 SA
HETATM   13  C7  UNL     1      12.358  18.689  17.684  1.00  0.00     0.161 C
HETATM   14  C25 UNL     1      13.274  18.428  18.828  1.00  0.00    -0.014 C
HETATM   15  C24 UNL     1      13.377  19.679  19.667  1.00  0.00     0.041 C
HETATM   16  C26 UNL     1      14.616  17.890  18.445  1.00  0.00     0.018 C
HETATM   17  C27 UNL     1      12.632  17.384  19.781  1.00  0.00     0.018 C
HETATM   18  C23 UNL     1      14.058  20.785  19.018  1.00  0.00     0.011 C
BRANCH  13  19
HETATM   19  N2  UNL     1      11.893  17.557  16.961  1.00  0.00    -0.345 N
HETATM   20  C6  UNL     1      10.665  17.611  16.194  1.00  0.00     0.249 C
HETATM   21  O1  UNL     1       9.998  18.655  16.174  1.00  0.00    -0.271 OA
ATOM     22  H2  UNL     1      12.433  16.691  16.982  1.00  0.00     0.163 HD
BRANCH  20  23
HETATM   23  C5  UNL     1      10.255  16.407  15.460  1.00  0.00     0.278 C
BRANCH  23  24
HETATM   24  C3  UNL     1      10.417  15.226  16.413  1.00  0.00     0.021 C
HETATM   25  C4  UNL     1      10.366  13.896  15.738  1.00  0.00     0.012 C
BRANCH  24  26
HETATM   26  C2  UNL     1       9.214  15.282  17.365  1.00  0.00     0.002 C
HETATM   27  C1  UNL     1       9.160  13.943  18.065  1.00  0.00     0.005 C
ENDBRANCH  24  26
ENDBRANCH  23  24
BRANCH  23  28
HETATM   28  N1  UNL     1      11.099  16.122  14.306  1.00  0.00    -0.066 N
ATOM     29  H13 UNL     1      11.040  15.154  13.990  1.00  0.00     0.275 HD
ATOM     30  H12 UNL     1      10.768  16.556  13.445  1.00  0.00     0.275 HD
ATOM     31  H11 UNL     1      12.045  16.405  14.565  1.00  0.00     0.275 HD
ENDBRANCH  23  28
ENDBRANCH  20  23
ENDBRANCH  13  19
ENDBRANCH   9  11
ENDBRANCH   7   9
ENDBRANCH   6   7
ENDBRANCH   1   6
BRANCH   1  32
HETATM   32  C13 UNL     1      18.299  23.279  17.853  1.00  0.00     0.080 C
BRANCH  32  33
HETATM   33  C14 UNL     1      19.209  23.619  16.772  1.00  0.00    -0.022 C
BRANCH  33  34
HETATM   34  C15 UNL     1      18.846  24.345  15.564  1.00  0.00     0.002 C
BRANCH  34  35
HETATM   35  C16 UNL     1      18.355  25.731  15.577  1.00  0.00     0.249 C
BRANCH  35  36
HETATM   36  N4  UNL     1      19.272  26.785  15.362  1.00  0.00    -0.406 NA
BRANCH  36  37
HETATM   37  C17 UNL     1      20.117  27.765  15.164  1.00  0.00     0.291 C
BRANCH  37  38
HETATM   38  O2  UNL     1      19.767  28.969  14.782  1.00  0.00    -0.322 OA
ATOM     39  H2  UNL     1      20.156  29.426  14.046  1.00  0.00     0.222 HD
ENDBRANCH  37  38
BRANCH  37  40
HETATM   40  N5  UNL     1      21.552  27.687  15.331  1.00  0.00    -0.332 N
HETATM   41  C18 UNL     1      22.148  26.663  16.172  1.00  0.00     0.153 C
HETATM   42  C19 UNL     1      23.655  26.718  15.911  1.00  0.00     0.187 C
HETATM   43  O3  UNL     1      24.155  27.926  16.320  1.00  0.00    -0.388 OA
HETATM   44  C20 UNL     1      23.471  28.993  15.777  1.00  0.00     0.187 C
HETATM   45  C21 UNL     1      22.461  28.607  14.707  1.00  0.00     0.153 C
ENDBRANCH  37  40
ENDBRANCH  36  37
ENDBRANCH  35  36
ENDBRANCH  34  35
ENDBRANCH  33  34
ENDBRANCH  32  33
ENDBRANCH   1  32
TORSDOF 17
ENDMDL