MODEL 2
REMARK VINA RESULT: -8.284905882      0.908      2.133
REMARK  14 active torsions:
REMARK  status: ('A' for Active; 'I' for Inactive)
REMARK    1  A    between atoms: C3_3  and  N1_4
REMARK    2  A    between atoms: N1_4  and  C4_5
REMARK       I    between atoms: N1_4  and  C8_9
REMARK    3  A    between atoms: C4_5  and  C5_6
REMARK    4  A    between atoms: C5_6  and  C6_7
REMARK    5  A    between atoms: C8_9  and  C9_11
REMARK    6  A    between atoms: C9_11  and  N2_12
REMARK    7  A    between atoms: C10_13  and  S1_14
REMARK    8  A    between atoms: S1_14  and  C11_15
REMARK    9  A    between atoms: C13_19  and  C14_20
REMARK   10  A    between atoms: C21_29  and  O2_30
REMARK   11  A    between atoms: N6_38  and  C26_39
REMARK   12  A    between atoms: C26_39  and  C27_40
REMARK   13  A    between atoms: C27_40  and  C28_41
REMARK   14  A    between atoms: C28_41  and  O3_42
ROOT
HETATM    1  C1  UNL     1      15.490  22.311  13.485  1.00  0.00     0.014 C
HETATM    2  C2  UNL     1      15.785  21.959  14.595  1.00  0.00    -0.098 C
HETATM    3  C3  UNL     1      16.175  21.538  15.973  1.00  0.00     0.219 C
ENDROOT
BRANCH   3   4
HETATM    4  N1  UNL     1      16.212  22.795  16.742  1.00  0.00    -0.340 N
HETATM    5  C8  UNL     1      17.446  23.507  16.841  1.00  0.00     0.238 C
HETATM    6  O1  UNL     1      18.476  23.039  16.295  1.00  0.00    -0.271 OA
BRANCH   4   7
HETATM    7  C4  UNL     1      14.971  23.243  17.324  1.00  0.00     0.127 C
BRANCH   7   8
HETATM    8  C5  UNL     1      14.044  22.147  17.731  1.00  0.00     0.020 C
BRANCH   8   9
HETATM    9  C6  UNL     1      14.428  21.626  19.098  1.00  0.00    -0.003 C
HETATM   10  C7  UNL     1      14.678  20.128  19.075  1.00  0.00     0.005 C
ENDBRANCH   8   9
ENDBRANCH   7   8
ENDBRANCH   4   7
BRANCH   5  11
HETATM   11  C9  UNL     1      17.448  24.788  17.597  1.00  0.00     0.234 C
BRANCH  11  12
HETATM   12  N2  UNL     1      18.611  24.992  18.393  1.00  0.00    -0.312 N
HETATM   13  C10 UNL     1      18.812  24.389  19.586  1.00  0.00     0.148 A
HETATM   14  N3  UNL     1      19.902  24.622  20.343  1.00  0.00    -0.334 N
HETATM   15  C13 UNL     1      20.868  25.452  19.997  1.00  0.00     0.076 A
ATOM     16  H3  UNL     1      19.985  24.129  21.232  1.00  0.00     0.168 HD
HETATM   17  C24 UNL     1      20.723  26.112  18.765  1.00  0.00     0.094 A
HETATM   18  N5  UNL     1      21.697  26.930  18.396  1.00  0.00    -0.348 N
HETATM   19  C30 UNL     1      19.583  25.859  17.988  1.00  0.00     0.135 A
HETATM   20  C25 UNL     1      21.594  27.556  17.216  1.00  0.00     0.186 A
ATOM     21  H5  UNL     1      22.507  27.081  18.998  1.00  0.00     0.167 HD
HETATM   22  N6  UNL     1      20.529  27.370  16.401  1.00  0.00    -0.308 N
HETATM   23  C29 UNL     1      19.523  26.519  16.790  1.00  0.00     0.278 A
HETATM   24  O4  UNL     1      18.558  26.355  16.044  1.00  0.00    -0.265 OA
BRANCH  13  25
HETATM   25  S1  UNL     1      17.576  23.221  20.173  1.00  0.00    -0.094 SA
BRANCH  25  26
HETATM   26  C11 UNL     1      18.187  21.544  20.112  1.00  0.00     0.078 C
HETATM   27  C12 UNL     1      18.921  21.187  21.406  1.00  0.00     0.016 C
ENDBRANCH  25  26
ENDBRANCH  13  25
BRANCH  15  28
HETATM   28  C14 UNL     1      22.059  25.726  20.794  1.00  0.00     0.028 A
HETATM   29  C15 UNL     1      22.275  26.601  21.818  1.00  0.00     0.019 A
HETATM   30  C16 UNL     1      21.160  27.494  22.339  1.00  0.00     0.069 C
HETATM   31  N4  UNL     1      23.518  26.571  22.286  1.00  0.00    -0.358 N
HETATM   32  C17 UNL     1      24.176  25.626  21.537  1.00  0.00     0.044 A
ATOM     33  H4  UNL     1      23.903  27.134  23.044  1.00  0.00     0.166 HD
HETATM   34  C18 UNL     1      25.472  25.191  21.582  1.00  0.00     0.039 A
HETATM   35  C23 UNL     1      23.304  25.104  20.625  1.00  0.00     0.008 A
HETATM   36  C19 UNL     1      25.917  24.203  20.687  1.00  0.00    -0.027 A
HETATM   37  C20 UNL     1      27.307  23.701  20.695  1.00  0.00     0.051 C
HETATM   38  C21 UNL     1      24.991  23.707  19.782  1.00  0.00     0.072 A
HETATM   39  C22 UNL     1      23.684  24.120  19.710  1.00  0.00     0.051 A
BRANCH  38  40
HETATM   40  O2  UNL     1      25.454  22.735  18.910  1.00  0.00    -0.360 OA
ATOM     41  H2  UNL     1      24.861  22.485  18.211  1.00  0.00     0.217 HD
ENDBRANCH  38  40
ENDBRANCH  15  28
BRANCH  22  42
HETATM   42  C26 UNL     1      20.440  28.026  15.122  1.00  0.00     0.135 C
BRANCH  42  43
HETATM   43  C27 UNL     1      21.372  27.547  14.071  1.00  0.00     0.046 C
BRANCH  43  44
HETATM   44  C28 UNL     1      22.269  28.689  13.566  1.00  0.00     0.165 C
BRANCH  44  45
HETATM   45  O3  UNL     1      23.148  29.061  14.602  1.00  0.00    -0.401 OA
ATOM     46  H3  UNL     1      23.124  30.006  14.695  1.00  0.00     0.209 HD
ENDBRANCH  44  45
ENDBRANCH  43  44
ENDBRANCH  42  43
ENDBRANCH  22  42
ENDBRANCH  11  12
ENDBRANCH   5  11
ENDBRANCH   3   4
TORSDOF 14
ENDMDL