MODEL 5
REMARK VINA RESULT: -8.529919590      2.103      9.125
REMARK  19 active torsions:
REMARK  status: ('A' for Active; 'I' for Inactive)
REMARK    1  A    between atoms: C2_2  and  C3_3
REMARK    2  A    between atoms: C3_3  and  C4_4
REMARK    3  A    between atoms: C4_4  and  N1_5
REMARK    4  A    between atoms: C4_4  and  C11_14
REMARK    5  A    between atoms: N1_5  and  C5_6
REMARK    6  A    between atoms: C5_6  and  O1_7
REMARK    7  A    between atoms: C5_6  and  C6_9
REMARK    8  A    between atoms: C6_9  and  C7_10
REMARK    9  A    between atoms: C11_14  and  C12_16
REMARK   10  A    between atoms: C12_16  and  O3_17
REMARK   11  A    between atoms: C12_16  and  N2_19
REMARK   12  A    between atoms: N2_19  and  C13_21
REMARK   13  A    between atoms: C14_26  and  C15_27
REMARK   14  A    between atoms: C15_27  and  C16_28
REMARK   15  A    between atoms: C16_28  and  C17_29
REMARK   16  A    between atoms: C17_29  and  C18_30
REMARK   17  A    between atoms: C18_30  and  C19_31
REMARK   18  A    between atoms: C20_36  and  N7_37
REMARK       I    between atoms: N7_37  and  C21_39
REMARK   19  A    between atoms: C21_39  and  C22_41
ROOT
HETATM    1  C13 UNL     1      15.849  22.356  18.233  1.00  0.00     0.167 A
HETATM    2  N3  UNL     1      16.545  21.331  17.742  1.00  0.00    -0.279 N
ATOM      3  H3  UNL     1      17.381  21.491  17.180  1.00  0.00     0.189 HD
HETATM    4  N4  UNL     1      16.146  20.150  17.986  1.00  0.00    -0.296 N
ATOM      5  H4  UNL     1      16.666  19.351  17.621  1.00  0.00     0.187 HD
HETATM    6  C14 UNL     1      15.049  19.953  18.718  1.00  0.00     0.069 A
HETATM    7  S1  UNL     1      14.585  21.550  19.071  1.00  0.00    -0.038 SA
ENDROOT
BRANCH   6   8
HETATM    8  C15 UNL     1      14.419  18.619  19.044  1.00  0.00     0.066 C
BRANCH   8   9
HETATM    9  C16 UNL     1      13.350  18.820  20.065  1.00  0.00     0.007 C
BRANCH   9  10
HETATM   10  C17 UNL     1      12.167  17.959  19.915  1.00  0.00     0.006 C
BRANCH  10  11
HETATM   11  C18 UNL     1      10.997  18.364  19.122  1.00  0.00     0.061 C
BRANCH  11  12
HETATM   12  C19 UNL     1      11.247  18.839  17.758  1.00  0.00     0.049 A
HETATM   13  N5  UNL     1      11.507  20.215  17.674  1.00  0.00    -0.289 N
HETATM   14  N6  UNL     1      11.690  20.757  16.521  1.00  0.00    -0.132 N
ATOM     15  H5  UNL     1      11.552  20.782  18.521  1.00  0.00     0.187 HD
HETATM   16  C20 UNL     1      11.645  20.052  15.355  1.00  0.00     0.699 A
ATOM     17  H6  UNL     1      11.875  21.760  16.478  1.00  0.00     0.205 HD
HETATM   18  N8  UNL     1      11.396  18.743  15.431  1.00  0.00    -0.192 N
HETATM   19  C26 UNL     1      11.194  18.114  16.636  1.00  0.00     0.046 A
ATOM     20  H8  UNL     1      11.355  18.195  14.571  1.00  0.00     0.184 HD
HETATM   21  C27 UNL     1      11.015  16.663  16.594  1.00  0.00     0.071 C
BRANCH  16  22
HETATM   22  N7  UNL     1      11.861  20.652  14.214  1.00  0.00    -0.158 N
HETATM   23  C21 UNL     1      13.189  20.794  13.737  1.00  0.00     0.243 C
HETATM   24  O4  UNL     1      13.804  19.709  13.485  1.00  0.00    -0.272 OA
ATOM     25  H7  UNL     1      11.079  21.016  13.669  1.00  0.00     0.187 HD
BRANCH  23  26
HETATM   26  C22 UNL     1      13.850  22.092  13.536  1.00  0.00     0.031 C
HETATM   27  C23 UNL     1      15.026  22.178  14.496  1.00  0.00     0.025 C
HETATM   28  C24 UNL     1      14.401  22.237  12.131  1.00  0.00     0.025 C
HETATM   29  C25 UNL     1      12.913  23.270  13.811  1.00  0.00     0.025 C
ENDBRANCH  23  26
ENDBRANCH  16  22
ENDBRANCH  11  12
ENDBRANCH  10  11
ENDBRANCH   9  10
ENDBRANCH   8   9
ENDBRANCH   6   8
BRANCH   1  30
HETATM   30  N2  UNL     1      15.990  23.630  17.986  1.00  0.00    -0.313 N
ATOM     31  H2  UNL     1      15.173  24.207  18.188  1.00  0.00     0.170 HD
BRANCH  30  32
HETATM   32  C12 UNL     1      17.086  24.307  17.492  1.00  0.00     0.192 C
BRANCH  32  33
HETATM   33  C11 UNL     1      18.354  24.056  16.971  1.00  0.00     0.235 C
HETATM   34  O2  UNL     1      18.616  23.733  15.762  1.00  0.00    -0.285 OA
BRANCH  33  35
HETATM   35  C4  UNL     1      19.607  24.132  17.895  1.00  0.00     0.243 C
BRANCH  35  36
HETATM   36  C3  UNL     1      19.173  23.801  19.287  1.00  0.00     0.047 C
BRANCH  36  37
HETATM   37  C2  UNL     1      19.468  22.344  19.617  1.00  0.00    -0.001 C
HETATM   38  C1  UNL     1      18.533  21.934  20.738  1.00  0.00     0.005 C
ENDBRANCH  36  37
ENDBRANCH  35  36
BRANCH  35  39
HETATM   39  N1  UNL     1      20.127  25.470  17.724  1.00  0.00    -0.415 NA
BRANCH  39  40
HETATM   40  C5  UNL     1      20.581  26.664  17.576  1.00  0.00     0.185 C
BRANCH  40  41
HETATM   41  O1  UNL     1      20.277  27.725  18.301  1.00  0.00    -0.339 OA
ATOM     42  H1  UNL     1      20.417  27.839  19.234  1.00  0.00     0.220 HD
ENDBRANCH  40  41
BRANCH  40  43
HETATM   43  C6  UNL     1      21.568  27.073  16.494  1.00  0.00     0.108 C
BRANCH  43  44
HETATM   44  C7  UNL     1      20.979  26.970  15.124  1.00  0.00    -0.043 C
HETATM   45  C8  UNL     1      19.504  27.118  14.987  1.00  0.00     0.015 C
HETATM   46  C9  UNL     1      21.666  28.004  14.204  1.00  0.00     0.015 C
HETATM   47  C10 UNL     1      21.329  25.605  14.554  1.00  0.00     0.015 C
ENDBRANCH  43  44
ENDBRANCH  40  43
ENDBRANCH  39  40
ENDBRANCH  35  39
ENDBRANCH  33  35
ENDBRANCH  32  33
BRANCH  32  48
HETATM   48  O3  UNL     1      16.816  25.643  17.555  1.00  0.00    -0.343 OA
ATOM     49  H3  UNL     1      16.171  25.843  18.222  1.00  0.00     0.219 HD
ENDBRANCH  32  48
ENDBRANCH  30  32
ENDBRANCH   1  30
TORSDOF 19
ENDMDL