MODEL 1
REMARK VINA RESULT: -9.083979080      0.000      0.000
REMARK  13 active torsions:
REMARK  status: ('A' for Active; 'I' for Inactive)
REMARK    1  A    between atoms: C2_2  and  N1_3
REMARK    2  A    between atoms: N2_6  and  C5_7
REMARK    3  A    between atoms: C5_7  and  C6_8
REMARK    4  A    between atoms: C6_8  and  C7_9
REMARK    5  A    between atoms: C7_9  and  N3_10
REMARK    6  A    between atoms: N3_10  and  C8_12
REMARK    7  A    between atoms: C8_12  and  C9_14
REMARK    8  A    between atoms: C11_16  and  N4_17
REMARK       I    between atoms: N4_17  and  C12_19
REMARK    9  A    between atoms: C14_22  and  N5_23
REMARK       I    between atoms: N5_23  and  C15_25
REMARK   10  A    between atoms: C15_25  and  C16_27
REMARK   11  A    between atoms: C16_27  and  N6_28
REMARK   12  A    between atoms: C22_35  and  O4_36
REMARK   13  A    between atoms: O4_36  and  C23_37
ROOT
HETATM    1  C9  UNL     1      14.883  21.667  18.244  1.00  0.00     0.037 A
HETATM    2  C10 UNL     1      14.764  20.577  19.130  1.00  0.00     0.049 A
HETATM    3  C11 UNL     1      13.935  19.528  18.844  1.00  0.00     0.062 A
HETATM    4  C14 UNL     1      13.207  19.570  17.640  1.00  0.00     0.064 A
HETATM    5  C21 UNL     1      13.346  20.638  16.813  1.00  0.00     0.069 A
HETATM    6  C22 UNL     1      14.200  21.758  17.072  1.00  0.00     0.085 A
ENDROOT
BRANCH   1   7
HETATM    7  C8  UNL     1      15.815  22.736  18.640  1.00  0.00     0.109 C
HETATM    8  S1  UNL     1      17.165  22.273  19.467  1.00  0.00    -0.060 SA
BRANCH   7   9
HETATM    9  N3  UNL     1      15.554  24.098  18.366  1.00  0.00    -0.380 N
ATOM     10  H3  UNL     1      14.605  24.469  18.406  1.00  0.00     0.160 HD
BRANCH   9  11
HETATM   11  C7  UNL     1      16.677  24.954  18.028  1.00  0.00     0.122 C
BRANCH  11  12
HETATM   12  C6  UNL     1      17.301  24.537  16.732  1.00  0.00     0.039 C
BRANCH  12  13
HETATM   13  C5  UNL     1      17.327  25.659  15.718  1.00  0.00     0.118 C
BRANCH  13  14
HETATM   14  N2  UNL     1      18.555  25.757  15.009  1.00  0.00    -0.409 N
HETATM   15  C4  UNL     1      19.672  25.144  15.631  1.00  0.00     0.147 C
HETATM   16  C3  UNL     1      20.978  25.375  14.936  1.00  0.00     0.291 C
HETATM   17  N1  UNL     1      21.183  26.756  14.562  1.00  0.00     0.091 N
HETATM   18  C29 UNL     1      20.069  27.596  14.953  1.00  0.00     0.291 C
HETATM   19  C28 UNL     1      18.823  26.986  14.352  1.00  0.00     0.147 C
BRANCH  17  20
HETATM   20  C2  UNL     1      22.459  27.264  15.020  1.00  0.00     0.268 C
HETATM   21  C1  UNL     1      22.591  28.723  14.719  1.00  0.00     0.037 C
ENDBRANCH  17  20
ENDBRANCH  13  14
ENDBRANCH  12  13
ENDBRANCH  11  12
ENDBRANCH   9  11
ENDBRANCH   7   9
ENDBRANCH   1   7
BRANCH   6  22
HETATM   22  O4  UNL     1      14.229  22.729  16.160  1.00  0.00    -0.345 OA
BRANCH  22  23
HETATM   23  C23 UNL     1      14.471  23.007  14.896  1.00  0.00     0.129 C
HETATM   24  C24 UNL     1      15.664  22.235  14.302  1.00  0.00     0.032 C
HETATM   25  C25 UNL     1      15.348  21.917  12.877  1.00  0.00     0.002 C
HETATM   26  C26 UNL     1      13.993  22.499  12.628  1.00  0.00     0.002 C
HETATM   27  C27 UNL     1      13.311  22.628  13.946  1.00  0.00     0.032 C
ENDBRANCH  22  23
ENDBRANCH   6  22
BRANCH   3  28
HETATM   28  N4  UNL     1      13.715  18.451  19.719  1.00  0.00    -0.326 N
HETATM   29  C12 UNL     1      12.578  18.261  20.520  1.00  0.00     0.218 C
HETATM   30  C13 UNL     1      12.459  17.049  21.421  1.00  0.00     0.117 C
HETATM   31  O1  UNL     1      11.594  19.024  20.580  1.00  0.00    -0.274 OA
ATOM     32  H4  UNL     1      14.448  17.744  19.779  1.00  0.00     0.169 HD
ENDBRANCH   3  28
BRANCH   4  33
HETATM   33  N5  UNL     1      12.415  18.454  17.300  1.00  0.00    -0.324 N
HETATM   34  C15 UNL     1      11.021  18.334  17.261  1.00  0.00     0.250 C
HETATM   35  O2  UNL     1      10.268  19.270  17.540  1.00  0.00    -0.271 OA
ATOM     36  H5  UNL     1      12.932  17.612  17.047  1.00  0.00     0.169 HD
BRANCH  34  37
HETATM   37  C16 UNL     1      10.350  17.054  16.869  1.00  0.00     0.375 C
BRANCH  37  38
HETATM   38  N6  UNL     1      10.863  16.488  15.650  1.00  0.00     0.101 N
HETATM   39  C17 UNL     1      10.284  17.292  14.555  1.00  0.00     0.299 C
HETATM   40  C18 UNL     1      10.585  16.624  13.220  1.00  0.00     0.198 C
HETATM   41  O3  UNL     1      10.145  15.326  13.145  1.00  0.00    -0.388 OA
HETATM   42  C19 UNL     1      10.546  14.533  14.223  1.00  0.00     0.198 C
HETATM   43  C20 UNL     1      10.151  15.185  15.513  1.00  0.00     0.299 C
ENDBRANCH  37  38
ENDBRANCH  34  37
ENDBRANCH   4  33
TORSDOF 13
ENDMDL