MODEL 4
REMARK VINA RESULT: -9.076345332      1.407      2.836
REMARK  14 active torsions:
REMARK  status: ('A' for Active; 'I' for Inactive)
REMARK    1  A    between atoms: C2_2  and  C3_3
REMARK    2  A    between atoms: C3_3  and  C4_4
REMARK    3  A    between atoms: C4_4  and  C5_5
REMARK    4  A    between atoms: C5_5  and  O1_6
REMARK    5  A    between atoms: O1_6  and  C6_7
REMARK       I    between atoms: C6_7  and  N1_9
REMARK       I    between atoms: N2_12  and  C9_13
REMARK    6  A    between atoms: C9_13  and  C10_15
REMARK    7  A    between atoms: C10_15  and  C11_16
REMARK    8  A    between atoms: C10_15  and  N5_34
REMARK    9  A    between atoms: C11_16  and  N3_17
REMARK       I    between atoms: N3_17  and  C12_19
REMARK   10  A    between atoms: C12_19  and  C13_21
REMARK   11  A    between atoms: C15_23  and  C16_24
REMARK       I    between atoms: N5_34  and  C23_36
REMARK   12  A    between atoms: C23_36  and  C24_38
REMARK   13  A    between atoms: C24_38  and  C27_41
REMARK   14  A    between atoms: C27_41  and  N6_42
ROOT
HETATM    1  C10 UNL     1      16.487  22.265  14.970  1.00  0.00     0.194 C
ENDROOT
BRANCH   1   2
HETATM    2  C9  UNL     1      15.285  21.986  14.172  1.00  0.00     0.244 C
HETATM    3  N2  UNL     1      14.217  21.158  14.601  1.00  0.00    -0.347 N
HETATM    4  C8  UNL     1      14.118  20.485  15.853  1.00  0.00     0.146 C
HETATM    5  C28 UNL     1      13.102  20.971  13.660  1.00  0.00     0.146 C
HETATM    6  C7  UNL     1      12.744  20.474  16.457  1.00  0.00     0.148 C
HETATM    7  N1  UNL     1      11.678  20.730  15.533  1.00  0.00    -0.325 N
HETATM    8  C6  UNL     1      10.382  20.146  15.748  1.00  0.00     0.362 C
HETATM    9  C29 UNL     1      11.896  21.574  14.390  1.00  0.00     0.148 C
HETATM   10  O2  UNL     1       9.449  20.378  14.935  1.00  0.00    -0.238 OA
HETATM   11  O3  UNL     1      15.215  22.536  13.018  1.00  0.00    -0.271 OA
BRANCH   8  12
HETATM   12  O1  UNL     1      10.137  19.334  16.830  1.00  0.00    -0.304 OA
BRANCH  12  13
HETATM   13  C5  UNL     1      10.614  18.027  16.929  1.00  0.00     0.180 C
BRANCH  13  14
HETATM   14  C4  UNL     1      11.009  17.599  18.320  1.00  0.00     0.027 C
BRANCH  14  15
HETATM   15  C3  UNL     1      12.500  17.230  18.345  1.00  0.00     0.002 C
BRANCH  15  16
HETATM   16  C2  UNL     1      13.162  17.881  19.552  1.00  0.00    -0.004 C
HETATM   17  C1  UNL     1      12.113  18.197  20.603  1.00  0.00     0.005 C
ENDBRANCH  15  16
ENDBRANCH  14  15
ENDBRANCH  13  14
ENDBRANCH  12  13
ENDBRANCH   8  12
ENDBRANCH   1   2
BRANCH   1  18
HETATM   18  C11 UNL     1      16.922  23.691  14.702  1.00  0.00     0.158 C
BRANCH  18  19
HETATM   19  N3  UNL     1      18.141  24.023  15.410  1.00  0.00    -0.354 N
HETATM   20  C12 UNL     1      18.096  24.870  16.510  1.00  0.00     0.253 C
HETATM   21  O4  UNL     1      16.911  25.308  16.812  1.00  0.00    -0.268 OA
ATOM     22  H3  UNL     1      19.032  23.636  15.100  1.00  0.00     0.162 HD
BRANCH  20  23
HETATM   23  C13 UNL     1      19.153  25.345  17.369  1.00  0.00     0.053 A
HETATM   24  C14 UNL     1      19.255  24.855  18.685  1.00  0.00     0.043 A
HETATM   25  C15 UNL     1      20.278  25.378  19.438  1.00  0.00     0.010 A
HETATM   26  N4  UNL     1      21.135  26.283  19.001  1.00  0.00    -0.358 N
HETATM   27  C18 UNL     1      21.064  26.784  17.718  1.00  0.00     0.051 A
ATOM     28  H4  UNL     1      21.867  26.619  19.627  1.00  0.00     0.166 HD
HETATM   29  C19 UNL     1      21.893  27.702  17.178  1.00  0.00     0.045 A
HETATM   30  C22 UNL     1      20.059  26.294  16.925  1.00  0.00     0.047 A
HETATM   31  C20 UNL     1      21.665  28.069  15.885  1.00  0.00    -0.018 A
HETATM   32  C21 UNL     1      22.439  29.065  15.055  1.00  0.00     0.056 C
HETATM   33  S1  UNL     1      20.310  27.131  15.458  1.00  0.00    -0.092 SA
BRANCH  25  34
HETATM   34  C16 UNL     1      20.462  24.916  20.868  1.00  0.00     0.052 C
HETATM   35  C17 UNL     1      21.919  24.527  20.996  1.00  0.00     0.011 C
ENDBRANCH  25  34
ENDBRANCH  20  23
ENDBRANCH  18  19
ENDBRANCH   1  18
BRANCH   1  36
HETATM   36  N5  UNL     1      16.220  22.191  16.399  1.00  0.00    -0.345 N
HETATM   37  C23 UNL     1      17.082  21.535  17.299  1.00  0.00     0.228 C
HETATM   38  O5  UNL     1      18.125  20.987  16.892  1.00  0.00    -0.273 OA
ATOM     39  H5  UNL     1      15.376  22.633  16.763  1.00  0.00     0.163 HD
BRANCH  37  40
HETATM   40  C24 UNL     1      16.748  21.495  18.738  1.00  0.00     0.057 C
HETATM   41  C25 UNL     1      18.028  21.379  19.544  1.00  0.00     0.027 C
HETATM   42  C26 UNL     1      15.924  20.236  19.000  1.00  0.00     0.027 C
BRANCH  40  43
HETATM   43  C27 UNL     1      15.919  22.686  19.099  1.00  0.00     0.247 C
BRANCH  43  44
HETATM   44  N6  UNL     1      14.508  22.442  19.165  1.00  0.00    -0.078 N
ATOM     45  H63 UNL     1      14.191  22.465  20.134  1.00  0.00     0.274 HD
ATOM     46  H62 UNL     1      13.995  23.240  18.790  1.00  0.00     0.274 HD
ATOM     47  H61 UNL     1      14.199  21.581  18.713  1.00  0.00     0.274 HD
ENDBRANCH  43  44
ENDBRANCH  40  43
ENDBRANCH  37  40
ENDBRANCH   1  36
TORSDOF 14
ENDMDL