MODEL 4
REMARK VINA RESULT: -8.435173730      2.050      4.765
REMARK  12 active torsions:
REMARK  status: ('A' for Active; 'I' for Inactive)
REMARK    1  A    between atoms: C2_2  and  C3_3
REMARK    2  A    between atoms: C3_3  and  C4_4
REMARK    3  A    between atoms: C4_4  and  C5_5
REMARK       I    between atoms: N3_11  and  C7_13
REMARK    4  A    between atoms: C7_13  and  C8_15
REMARK    5  A    between atoms: C10_17  and  S1_18
REMARK    6  A    between atoms: S1_18  and  N4_21
REMARK    7  A    between atoms: N4_21  and  C11_23
REMARK    8  A    between atoms: C11_23  and  C12_24
REMARK    9  A    between atoms: C12_24  and  C13_25
REMARK   10  A    between atoms: C13_25  and  N5_26
REMARK   11  A    between atoms: N6_29  and  C16_30
REMARK   12  A    between atoms: C22_36  and  N7_37
REMARK       I    between atoms: N7_37  and  C23_39
ROOT
HETATM    1  C8  UNL     1      19.212  26.017  16.423  1.00  0.00     0.042 A
HETATM    2  C9  UNL     1      19.433  25.185  17.529  1.00  0.00     0.043 A
HETATM    3  C10 UNL     1      20.487  25.352  18.428  1.00  0.00     0.088 A
HETATM    4  C20 UNL     1      21.332  26.395  18.190  1.00  0.00    -0.011 A
HETATM    5  C21 UNL     1      22.442  26.726  19.067  1.00  0.00     0.052 C
HETATM    6  C22 UNL     1      21.124  27.226  17.095  1.00  0.00     0.049 A
HETATM    7  C25 UNL     1      20.065  27.046  16.204  1.00  0.00    -0.019 A
HETATM    8  C26 UNL     1      19.926  27.985  15.057  1.00  0.00     0.052 C
ENDROOT
BRANCH   3   9
HETATM    9  S1  UNL     1      20.708  24.247  19.731  1.00  0.00     0.259 S
HETATM   10  O2  UNL     1      22.185  24.106  20.099  1.00  0.00    -0.201 OA
HETATM   11  O3  UNL     1      20.205  24.972  20.998  1.00  0.00    -0.201 OA
BRANCH   9  12
HETATM   12  N4  UNL     1      19.923  22.795  19.726  1.00  0.00    -0.315 N
ATOM     13  H4  UNL     1      20.214  22.115  19.024  1.00  0.00     0.172 HD
BRANCH  12  14
HETATM   14  C11 UNL     1      18.911  22.415  20.584  1.00  0.00     0.134 C
BRANCH  14  15
HETATM   15  C12 UNL     1      17.547  23.033  20.251  1.00  0.00     0.050 C
BRANCH  15  16
HETATM   16  C13 UNL     1      17.068  22.422  18.972  1.00  0.00     0.274 C
BRANCH  16  17
HETATM   17  N5  UNL     1      16.272  21.248  19.137  1.00  0.00     0.091 N
HETATM   18  C14 UNL     1      16.423  20.427  17.925  1.00  0.00     0.302 C
HETATM   19  C15 UNL     1      15.538  19.226  17.934  1.00  0.00     0.302 C
HETATM   20  N6  UNL     1      14.150  19.550  18.203  1.00  0.00     0.091 N
HETATM   21  C18 UNL     1      14.026  20.433  19.333  1.00  0.00     0.302 C
HETATM   22  C19 UNL     1      14.862  21.669  19.101  1.00  0.00     0.302 C
BRANCH  20  23
HETATM   23  C16 UNL     1      13.442  18.324  18.508  1.00  0.00     0.268 C
HETATM   24  C17 UNL     1      13.328  18.127  20.012  1.00  0.00     0.037 C
ENDBRANCH  20  23
ENDBRANCH  16  17
ENDBRANCH  15  16
ENDBRANCH  14  15
ENDBRANCH  12  14
ENDBRANCH   9  12
ENDBRANCH   3   9
BRANCH   1  25
HETATM   25  C7  UNL     1      18.055  25.746  15.564  1.00  0.00     0.258 C
HETATM   26  N3  UNL     1      16.817  25.303  16.044  1.00  0.00    -0.302 N
HETATM   27  C6  UNL     1      16.264  24.182  15.626  1.00  0.00     0.168 A
ATOM     28  H3  UNL     1      16.327  25.866  16.739  1.00  0.00     0.171 HD
HETATM   29  N2  UNL     1      16.748  23.318  14.727  1.00  0.00    -0.279 N
HETATM   30  S2  UNL     1      14.790  23.444  16.062  1.00  0.00    -0.038 SA
HETATM   31  N1  UNL     1      16.071  22.284  14.453  1.00  0.00    -0.296 N
ATOM     32  H2  UNL     1      17.645  23.488  14.272  1.00  0.00     0.189 HD
HETATM   33  C5  UNL     1      14.911  22.057  15.038  1.00  0.00     0.069 A
ATOM     34  H1  UNL     1      16.429  21.617  13.770  1.00  0.00     0.187 HD
HETATM   35  O1  UNL     1      18.177  25.918  14.317  1.00  0.00    -0.267 OA
BRANCH  33  36
HETATM   36  C4  UNL     1      13.956  20.912  14.867  1.00  0.00     0.066 C
BRANCH  36  37
HETATM   37  C3  UNL     1      12.945  21.147  13.791  1.00  0.00     0.006 C
BRANCH  37  38
HETATM   38  C2  UNL     1      11.747  21.917  14.287  1.00  0.00    -0.004 C
HETATM   39  C1  UNL     1      10.539  21.022  14.313  1.00  0.00     0.005 C
ENDBRANCH  37  38
ENDBRANCH  36  37
ENDBRANCH  33  36
ENDBRANCH   1  25
BRANCH   6  40
HETATM   40  N7  UNL     1      22.030  28.307  16.881  1.00  0.00    -0.326 N
HETATM   41  C23 UNL     1      23.174  28.122  16.062  1.00  0.00     0.218 C
HETATM   42  C24 UNL     1      24.146  29.217  15.810  1.00  0.00     0.117 C
HETATM   43  O4  UNL     1      23.357  26.993  15.543  1.00  0.00    -0.274 OA
ATOM     44  H7  UNL     1      21.856  29.212  17.316  1.00  0.00     0.169 HD
ENDBRANCH   6  40
TORSDOF 12
ENDMDL