MODEL 1
REMARK VINA RESULT: -8.509339188      0.000      0.000
REMARK  13 active torsions:
REMARK  status: ('A' for Active; 'I' for Inactive)
REMARK    1  A    between atoms: C2_2  and  C3_3
REMARK    2  A    between atoms: C3_3  and  N1_4
REMARK    3  A    between atoms: N1_4  and  C4_5
REMARK    4  A    between atoms: N1_4  and  C7_8
REMARK    5  A    between atoms: C4_5  and  C5_6
REMARK    6  A    between atoms: C7_8  and  C8_9
REMARK    7  A    between atoms: C8_9  and  N2_10
REMARK       I    between atoms: N2_10  and  C9_12
REMARK    8  A    between atoms: C9_12  and  C10_14
REMARK    9  A    between atoms: C15_23  and  N5_24
REMARK   10  A    between atoms: N5_24  and  C16_25
REMARK       I    between atoms: N8_35  and  C22_36
REMARK       I    between atoms: C22_36  and  N9_38
REMARK   11  A    between atoms: N9_38  and  C23_40
REMARK   12  A    between atoms: C23_40  and  C24_41
REMARK   13  A    between atoms: C24_41  and  N10_42
ROOT
HETATM    1  C10 UNL     1      21.146  27.505  16.628  1.00  0.00     0.059 A
HETATM    2  C11 UNL     1      21.693  28.543  15.857  1.00  0.00     0.105 A
HETATM    3  N3  UNL     1      21.237  28.727  14.636  1.00  0.00    -0.372 N
ATOM      4  H3  UNL     1      21.630  29.479  14.069  1.00  0.00     0.164 HD
HETATM    5  C12 UNL     1      20.270  27.952  14.115  1.00  0.00     0.117 A
HETATM    6  C13 UNL     1      19.722  26.927  14.863  1.00  0.00     0.059 A
HETATM    7  N4  UNL     1      18.784  26.154  14.330  1.00  0.00    -0.361 N
ATOM      8  H4  UNL     1      18.475  26.347  13.378  1.00  0.00     0.165 HD
HETATM    9  C14 UNL     1      18.234  25.143  14.980  1.00  0.00     0.133 A
HETATM   10  C15 UNL     1      18.627  24.807  16.335  1.00  0.00     0.127 A
HETATM   11  C29 UNL     1      19.596  25.627  16.858  1.00  0.00     0.061 A
HETATM   12  C30 UNL     1      20.165  26.683  16.166  1.00  0.00     0.012 A
ENDROOT
BRANCH  10  13
HETATM   13  N5  UNL     1      18.022  23.751  16.829  1.00  0.00    -0.370 NA
BRANCH  13  14
HETATM   14  C16 UNL     1      17.492  22.778  17.273  1.00  0.00     0.261 A
HETATM   15  N6  UNL     1      16.334  22.365  16.624  1.00  0.00    -0.301 N
HETATM   16  C17 UNL     1      15.596  21.358  17.011  1.00  0.00     0.122 A
ATOM     17  H6  UNL     1      16.041  22.880  15.794  1.00  0.00     0.171 HD
HETATM   18  C18 UNL     1      16.008  20.665  18.161  1.00  0.00     0.003 A
HETATM   19  N8  UNL     1      14.432  20.707  16.478  1.00  0.00    -0.285 N
HETATM   20  C19 UNL     1      17.148  21.055  18.818  1.00  0.00     0.103 A
HETATM   21  C20 UNL     1      14.995  19.604  18.446  1.00  0.00     0.064 C
HETATM   22  N7  UNL     1      17.882  22.101  18.376  1.00  0.00    -0.326 N
ATOM     23  H7  UNL     1      18.728  22.379  18.873  1.00  0.00     0.169 HD
HETATM   24  C21 UNL     1      13.785  20.123  17.621  1.00  0.00     0.140 C
HETATM   25  C22 UNL     1      14.101  20.596  15.135  1.00  0.00     0.324 C
HETATM   26  O2  UNL     1      14.920  21.078  14.258  1.00  0.00    -0.247 OA
HETATM   27  N9  UNL     1      12.919  19.970  14.610  1.00  0.00    -0.341 N
ATOM     28  H9  UNL     1      12.229  19.602  15.264  1.00  0.00     0.164 HD
BRANCH  27  29
HETATM   29  C23 UNL     1      12.671  19.843  13.216  1.00  0.00     0.154 C
BRANCH  29  30
HETATM   30  C24 UNL     1      12.431  18.524  12.615  1.00  0.00     0.292 C
BRANCH  30  31
HETATM   31  N10 UNL     1      11.064  18.145  12.344  1.00  0.00     0.090 N
HETATM   32  C25 UNL     1      11.070  17.505  10.999  1.00  0.00     0.272 C
HETATM   33  C26 UNL     1      11.720  16.164  11.253  1.00  0.00     0.032 C
HETATM   34  C27 UNL     1      11.531  15.880  12.734  1.00  0.00     0.032 C
HETATM   35  C28 UNL     1      10.671  17.026  13.207  1.00  0.00     0.272 C
ENDBRANCH  30  31
ENDBRANCH  29  30
ENDBRANCH  27  29
ENDBRANCH  13  14
ENDBRANCH  10  13
BRANCH   1  36
HETATM   36  C9  UNL     1      21.617  27.410  18.018  1.00  0.00     0.253 C
HETATM   37  N2  UNL     1      22.800  26.660  18.162  1.00  0.00    -0.355 N
ATOM     38  H2  UNL     1      23.202  26.317  17.289  1.00  0.00     0.162 HD
HETATM   39  O1  UNL     1      21.041  27.916  18.978  1.00  0.00    -0.268 OA
BRANCH  37  40
HETATM   40  C8  UNL     1      23.526  26.303  19.343  1.00  0.00     0.153 C
BRANCH  40  41
HETATM   41  C7  UNL     1      22.950  24.988  19.904  1.00  0.00     0.292 C
BRANCH  41  42
HETATM   42  N1  UNL     1      22.180  25.239  21.062  1.00  0.00     0.089 N
BRANCH  42  43
HETATM   43  C3  UNL     1      22.686  26.491  21.727  1.00  0.00     0.272 C
BRANCH  43  44
HETATM   44  C2  UNL     1      21.502  27.148  22.383  1.00  0.00     0.026 C
HETATM   45  C1  UNL     1      21.678  27.272  23.878  1.00  0.00     0.007 C
ENDBRANCH  43  44
ENDBRANCH  42  43
BRANCH  42  46
HETATM   46  C4  UNL     1      20.789  25.338  21.009  1.00  0.00     0.272 C
BRANCH  46  47
HETATM   47  C5  UNL     1      19.960  24.307  20.329  1.00  0.00     0.026 C
HETATM   48  C6  UNL     1      18.540  24.469  20.950  1.00  0.00     0.007 C
ENDBRANCH  46  47
ENDBRANCH  42  46
ENDBRANCH  41  42
ENDBRANCH  40  41
ENDBRANCH  37  40
ENDBRANCH   1  36
TORSDOF 13
ENDMDL