MODEL 2
REMARK VINA RESULT: -7.567267144      0.893      1.374
REMARK  13 active torsions:
REMARK  status: ('A' for Active; 'I' for Inactive)
REMARK    1  A    between atoms: N2_5  and  C4_6
REMARK    2  A    between atoms: C4_6  and  C5_7
REMARK    3  A    between atoms: C5_7  and  C6_8
REMARK    4  A    between atoms: C6_8  and  N3_9
REMARK    5  A    between atoms: N3_9  and  C7_11
REMARK    6  A    between atoms: C7_11  and  C8_12
REMARK    7  A    between atoms: C8_12  and  C9_13
REMARK    8  A    between atoms: C9_13  and  N4_14
REMARK       I    between atoms: N4_14  and  C10_16
REMARK    9  A    between atoms: C10_16  and  C11_18
REMARK   10  A    between atoms: C12_21  and  C13_22
REMARK   11  A    between atoms: N6_27  and  C17_28
REMARK   12  A    between atoms: C17_28  and  C18_29
REMARK   13  A    between atoms: C26_37  and  O2_38
ROOT
HETATM    1  C11 UNL     1      19.257  24.648  16.522  1.00  0.00     0.074 C
HETATM    2  N5  UNL     1      19.921  25.336  15.687  1.00  0.00    -0.382 N
ATOM      3  H5  UNL     1      19.794  25.107  14.701  1.00  0.00     0.160 HD
HETATM    4  C12 UNL     1      20.837  26.410  15.988  1.00  0.00     0.105 C
HETATM    5  C14 UNL     1      21.331  26.509  17.373  1.00  0.00     0.016 C
HETATM    6  C15 UNL     1      20.894  27.695  18.162  1.00  0.00     0.047 C
HETATM    7  C16 UNL     1      21.321  27.558  19.620  1.00  0.00     0.274 C
HETATM    8  N6  UNL     1      20.814  26.335  20.152  1.00  0.00     0.094 N
HETATM    9  C21 UNL     1      21.382  25.172  19.506  1.00  0.00     0.232 C
HETATM   10  C22 UNL     1      22.897  25.174  19.589  1.00  0.00     0.075 C
HETATM   11  C23 UNL     1      23.522  25.874  18.430  1.00  0.00    -0.049 A
HETATM   12  C24 UNL     1      24.903  25.874  18.422  1.00  0.00     0.010 A
HETATM   13  C25 UNL     1      25.583  26.498  17.400  1.00  0.00     0.037 A
HETATM   14  C26 UNL     1      24.938  27.125  16.377  1.00  0.00     0.066 A
HETATM   15  C27 UNL     1      23.535  27.111  16.404  1.00  0.00     0.045 A
HETATM   16  C28 UNL     1      22.852  26.493  17.419  1.00  0.00    -0.038 A
HETATM   17  C29 UNL     1      20.978  25.181  18.071  1.00  0.00     0.040 C
HETATM   18  C30 UNL     1      19.482  24.985  17.968  1.00  0.00     0.070 C
ENDROOT
BRANCH   1  19
HETATM   19  C10 UNL     1      18.344  23.577  16.192  1.00  0.00     0.263 C
HETATM   20  N4  UNL     1      17.251  23.850  15.327  1.00  0.00    -0.356 N
ATOM     21  H4  UNL     1      17.107  24.785  14.947  1.00  0.00     0.162 HD
HETATM   22  O1  UNL     1      18.582  22.445  16.700  1.00  0.00    -0.266 OA
BRANCH  20  23
HETATM   23  C9  UNL     1      16.332  22.756  14.993  1.00  0.00     0.128 C
BRANCH  23  24
HETATM   24  C8  UNL     1      14.945  22.951  15.475  1.00  0.00     0.064 C
BRANCH  24  25
HETATM   25  C7  UNL     1      14.716  23.250  16.897  1.00  0.00     0.061 C
BRANCH  25  26
HETATM   26  N3  UNL     1      14.063  22.434  17.797  1.00  0.00    -0.382 N
ATOM     27  H3  UNL     1      13.810  22.788  18.719  1.00  0.00     0.163 HD
BRANCH  26  28
HETATM   28  C6  UNL     1      13.749  21.115  17.439  1.00  0.00     0.062 C
BRANCH  28  29
HETATM   29  C5  UNL     1      14.623  20.058  18.114  1.00  0.00     0.074 C
BRANCH  29  30
HETATM   30  C4  UNL     1      14.185  19.783  19.506  1.00  0.00     0.277 C
BRANCH  30  31
HETATM   31  N2  UNL     1      13.899  18.381  19.729  1.00  0.00     0.091 N
HETATM   32  C3  UNL     1      13.839  17.698  18.456  1.00  0.00     0.291 C
HETATM   33  C2  UNL     1      12.473  17.113  18.188  1.00  0.00     0.146 C
HETATM   34  N1  UNL     1      11.379  17.942  18.578  1.00  0.00    -0.413 N
HETATM   35  C1  UNL     1      10.817  18.763  17.557  1.00  0.00     0.143 C
HETATM   36  C32 UNL     1      11.539  18.599  19.856  1.00  0.00     0.146 C
HETATM   37  C31 UNL     1      12.784  18.113  20.573  1.00  0.00     0.291 C
ENDBRANCH  30  31
ENDBRANCH  29  30
ENDBRANCH  28  29
ENDBRANCH  26  28
ENDBRANCH  25  26
ENDBRANCH  24  25
ENDBRANCH  23  24
ENDBRANCH  20  23
ENDBRANCH   1  19
BRANCH   4  38
HETATM   38  C13 UNL     1      20.277  27.644  15.344  1.00  0.00     0.112 C
HETATM   39  S1  UNL     1      21.251  28.212  13.928  1.00  0.00    -0.096 SA
ENDBRANCH   4  38
BRANCH   8  40
HETATM   40  C17 UNL     1      20.799  26.229  21.577  1.00  0.00     0.277 C
BRANCH  40  41
HETATM   41  C18 UNL     1      21.635  27.259  22.291  1.00  0.00     0.014 A
HETATM   42  C19 UNL     1      21.461  27.262  23.818  1.00  0.00     0.007 A
HETATM   43  C20 UNL     1      22.754  26.909  23.164  1.00  0.00     0.007 A
ENDBRANCH  40  41
ENDBRANCH   8  40
BRANCH  14  44
HETATM   44  O2  UNL     1      25.620  27.760  15.336  1.00  0.00    -0.361 OA
ATOM     45  H2  UNL     1      25.479  28.673  15.115  1.00  0.00     0.217 HD
ENDBRANCH  14  44
TORSDOF 13
ENDMDL