MODEL 1
REMARK VINA RESULT: -8.620507516      0.000      0.000
REMARK  16 active torsions:
REMARK  status: ('A' for Active; 'I' for Inactive)
REMARK    1  A    between atoms: C2_2  and  C3_3
REMARK    2  A    between atoms: C3_3  and  C4_4
REMARK    3  A    between atoms: C4_4  and  C5_5
REMARK    4  A    between atoms: C5_5  and  O1_6
REMARK    5  A    between atoms: O1_6  and  C6_7
REMARK       I    between atoms: C6_7  and  N1_9
REMARK    6  A    between atoms: N2_12  and  C9_13
REMARK    7  A    between atoms: C9_13  and  O3_14
REMARK    8  A    between atoms: C9_13  and  C10_16
REMARK    9  A    between atoms: C10_16  and  C11_17
REMARK   10  A    between atoms: C10_16  and  N4_27
REMARK   11  A    between atoms: C11_17  and  C12_18
REMARK   12  A    between atoms: C12_18  and  C13_19
REMARK   13  A    between atoms: C13_19  and  N3_20
REMARK       I    between atoms: N3_20  and  C14_22
REMARK   14  A    between atoms: C14_22  and  C15_24
REMARK       I    between atoms: N4_27  and  C16_29
REMARK   15  A    between atoms: C16_29  and  C17_31
REMARK   16  A    between atoms: C22_39  and  C23_40
ROOT
HETATM    1  C10 UNL     1      15.886  22.421  15.663  1.00  0.00     0.063 C
ENDROOT
BRANCH   1   2
HETATM    2  C9  UNL     1      14.536  22.648  15.179  1.00  0.00     0.161 C
BRANCH   2   3
HETATM    3  N2  UNL     1      13.724  21.843  14.369  1.00  0.00    -0.357 N
HETATM    4  C8  UNL     1      13.854  20.466  14.016  1.00  0.00     0.145 C
HETATM    5  C7  UNL     1      12.477  19.834  13.757  1.00  0.00     0.148 C
HETATM    6  N1  UNL     1      11.413  20.515  14.450  1.00  0.00    -0.325 N
HETATM    7  C6  UNL     1      10.270  19.831  15.007  1.00  0.00     0.362 C
HETATM    8  C27 UNL     1      11.390  21.975  14.633  1.00  0.00     0.148 C
HETATM    9  O2  UNL     1       9.375  20.487  15.626  1.00  0.00    -0.238 OA
HETATM   10  C26 UNL     1      12.528  22.481  13.756  1.00  0.00     0.145 C
BRANCH   7  11
HETATM   11  O1  UNL     1      10.100  18.484  14.896  1.00  0.00    -0.304 OA
BRANCH  11  12
HETATM   12  C5  UNL     1      10.291  17.506  15.883  1.00  0.00     0.180 C
BRANCH  12  13
HETATM   13  C4  UNL     1      11.182  18.064  16.963  1.00  0.00     0.027 C
BRANCH  13  14
HETATM   14  C3  UNL     1      11.861  16.955  17.754  1.00  0.00     0.002 C
BRANCH  14  15
HETATM   15  C2  UNL     1      12.735  17.518  18.841  1.00  0.00    -0.004 C
HETATM   16  C1  UNL     1      14.181  17.577  18.407  1.00  0.00     0.005 C
ENDBRANCH  14  15
ENDBRANCH  13  14
ENDBRANCH  12  13
ENDBRANCH  11  12
ENDBRANCH   7  11
ENDBRANCH   2   3
BRANCH   2  17
HETATM   17  O3  UNL     1      13.987  23.769  15.557  1.00  0.00    -0.345 OA
ATOM     18  H3  UNL     1      13.107  23.682  15.905  1.00  0.00     0.219 HD
ENDBRANCH   2  17
ENDBRANCH   1   2
BRANCH   1  19
HETATM   19  C11 UNL     1      16.184  21.332  16.613  1.00  0.00     0.063 C
BRANCH  19  20
HETATM   20  C12 UNL     1      15.367  21.266  17.868  1.00  0.00     0.026 C
BRANCH  20  21
HETATM   21  C13 UNL     1      16.059  21.212  19.167  1.00  0.00     0.123 C
BRANCH  21  22
HETATM   22  N3  UNL     1      16.660  22.506  19.494  1.00  0.00    -0.352 N
HETATM   23  C14 UNL     1      18.068  22.637  19.519  1.00  0.00     0.318 C
HETATM   24  O4  UNL     1      18.781  21.658  19.266  1.00  0.00    -0.261 OA
ATOM     25  H3  UNL     1      16.067  23.309  19.702  1.00  0.00     0.162 HD
BRANCH  23  26
HETATM   26  C15 UNL     1      18.694  23.913  19.841  1.00  0.00     0.269 C
HETATM   27  O5  UNL     1      18.259  24.576  20.838  1.00  0.00    -0.640 OA
HETATM   28  O6  UNL     1      19.732  24.444  19.121  1.00  0.00    -0.640 OA
ENDBRANCH  23  26
ENDBRANCH  21  22
ENDBRANCH  20  21
ENDBRANCH  19  20
ENDBRANCH   1  19
BRANCH   1  29
HETATM   29  N4  UNL     1      16.900  23.415  15.428  1.00  0.00    -0.321 N
HETATM   30  C16 UNL     1      17.116  24.522  16.241  1.00  0.00     0.279 C
HETATM   31  O7  UNL     1      16.463  24.736  17.274  1.00  0.00    -0.265 OA
ATOM     32  H4  UNL     1      17.499  23.298  14.611  1.00  0.00     0.169 HD
BRANCH  30  33
HETATM   33  C17 UNL     1      18.159  25.534  15.921  1.00  0.00     0.143 A
HETATM   34  N5  UNL     1      19.187  25.924  16.621  1.00  0.00    -0.349 N
HETATM   35  C18 UNL     1      20.021  26.826  16.134  1.00  0.00     0.023 A
ATOM     36  H5  UNL     1      19.349  25.532  17.549  1.00  0.00     0.166 HD
HETATM   37  C19 UNL     1      19.734  27.305  14.882  1.00  0.00     0.007 A
HETATM   38  C25 UNL     1      21.255  27.294  16.904  1.00  0.00     0.062 C
HETATM   39  S1  UNL     1      18.309  26.444  14.487  1.00  0.00    -0.069 SA
HETATM   40  C20 UNL     1      20.580  28.341  14.175  1.00  0.00     0.048 C
HETATM   41  C21 UNL     1      22.007  27.944  14.588  1.00  0.00     0.010 C
HETATM   42  C22 UNL     1      22.026  28.217  16.077  1.00  0.00    -0.009 C
BRANCH  42  43
HETATM   43  C23 UNL     1      23.501  28.130  16.500  1.00  0.00     0.000 C
HETATM   44  C24 UNL     1      24.142  26.846  16.022  1.00  0.00     0.005 C
ENDBRANCH  42  43
ENDBRANCH  30  33
ENDBRANCH   1  29
TORSDOF 16
ENDMDL