MODEL 5
REMARK VINA RESULT: -5.530452939      2.087      2.627
REMARK  12 active torsions:
REMARK  status: ('A' for Active; 'I' for Inactive)
REMARK    1  A    between atoms: O1_2  and  C2_3
REMARK    2  A    between atoms: C4_5  and  N1_6
REMARK    3  A    between atoms: C10_13  and  O3_14
REMARK    4  A    between atoms: C11_16  and  N2_17
REMARK    5  A    between atoms: C14_20  and  N3_21
REMARK    6  A    between atoms: N3_21  and  C15_23
REMARK    7  A    between atoms: C15_23  and  C16_24
REMARK    8  A    between atoms: C16_24  and  N4_25
REMARK    9  A    between atoms: C17_29  and  O4_30
REMARK   10  A    between atoms: C20_34  and  O5_35
REMARK   11  A    between atoms: O5_35  and  C21_36
REMARK   12  A    between atoms: C27_46  and  O7_47
ROOT
HETATM    1  C2  UNL     1      22.229  -9.973   5.699  1.00  0.00     0.149 C
HETATM    2  C3  UNL     1      22.897  -8.603   5.323  1.00  0.00     0.106 C
HETATM    3  C4  UNL     1      23.230  -7.918   6.605  1.00  0.00     0.019 C
HETATM    4  C7  UNL     1      22.754  -8.810   7.651  1.00  0.00     0.031 C
HETATM    5  C8  UNL     1      23.442  -9.312   8.823  1.00  0.00     0.175 C
HETATM    6  O2  UNL     1      24.551 -10.193   8.651  1.00  0.00    -0.337 OA
HETATM    7  C9  UNL     1      24.727 -11.356   7.857  1.00  0.00     0.119 A
HETATM    8  C10 UNL     1      25.453 -12.250   8.520  1.00  0.00     0.129 A
HETATM    9  C11 UNL     1      25.722 -13.488   7.911  1.00  0.00     0.095 A
HETATM   10  C14 UNL     1      25.224 -13.759   6.636  1.00  0.00     0.092 A
HETATM   11  C17 UNL     1      24.474 -12.825   5.966  1.00  0.00     0.108 A
HETATM   12  C18 UNL     1      24.227 -11.589   6.593  1.00  0.00     0.047 A
HETATM   13  C19 UNL     1      23.532 -10.829   5.567  1.00  0.00     0.020 C
HETATM   14  C20 UNL     1      24.014 -10.854   4.378  1.00  0.00     0.157 C
HETATM   15  C23 UNL     1      22.276  -9.940   9.617  1.00  0.00     0.075 A
HETATM   16  C24 UNL     1      21.867  -9.286  10.886  1.00  0.00     0.062 A
HETATM   17  C25 UNL     1      20.603  -8.846  10.278  1.00  0.00     0.012 A
HETATM   18 BR1  UNL     1      19.062  -7.855  10.903  1.00  0.00    -0.054 Br
HETATM   19  C26 UNL     1      20.965  -9.407   9.143  1.00  0.00     0.028 A
HETATM   20  N5  UNL     1      20.628  -9.624   7.702  1.00  0.00    -0.354 N
ATOM     21  H5  UNL     1      19.710  -9.586   7.259  1.00  0.00     0.163 HD
HETATM   22  C27 UNL     1      21.916  -9.901   7.078  1.00  0.00     0.200 C
ENDROOT
BRANCH  10  23
HETATM   23  N3  UNL     1      25.466 -14.994   5.977  1.00  0.00    -0.384 N
ATOM     24  H3  UNL     1      24.807 -15.757   6.131  1.00  0.00     0.159 HD
BRANCH  23  25
HETATM   25  C15 UNL     1      26.589 -15.235   5.101  1.00  0.00     0.147 C
BRANCH  25  26
HETATM   26  C16 UNL     1      26.115 -15.632   3.711  1.00  0.00     0.249 C
BRANCH  26  27
HETATM   27  N4  UNL     1      25.876 -14.425   2.968  1.00  0.00    -0.078 N
ATOM     28  H43 UNL     1      26.292 -14.444   2.037  1.00  0.00     0.274 HD
ATOM     29  H42 UNL     1      24.903 -14.325   2.680  1.00  0.00     0.274 HD
ATOM     30  H41 UNL     1      26.205 -13.642   3.533  1.00  0.00     0.274 HD
ENDBRANCH  26  27
ENDBRANCH  25  26
ENDBRANCH  23  25
ENDBRANCH  10  23
BRANCH   9  31
HETATM   31  N2  UNL     1      26.509 -14.438   8.602  1.00  0.00    -0.385 N
HETATM   32  C12 UNL     1      27.962 -14.280   8.479  1.00  0.00     0.149 C
HETATM   33  C13 UNL     1      25.970 -15.510   9.406  1.00  0.00     0.149 C
ENDBRANCH   9  31
BRANCH  11  34
HETATM   34  O4  UNL     1      23.939 -13.059   4.731  1.00  0.00    -0.357 OA
ATOM     35  H4  UNL     1      24.444 -12.975   3.930  1.00  0.00     0.217 HD
ENDBRANCH  11  34
BRANCH   8  36
HETATM   36  O3  UNL     1      25.959 -12.018   9.784  1.00  0.00    -0.356 OA
ATOM     37  H3  UNL     1      26.793 -12.365  10.079  1.00  0.00     0.218 HD
ENDBRANCH   8  36
BRANCH   1  38
HETATM   38  O1  UNL     1      21.364 -10.384   4.777  1.00  0.00    -0.374 OA
HETATM   39  C1  UNL     1      20.496  -9.620   4.127  1.00  0.00     0.203 C
ENDBRANCH   1  38
BRANCH  14  40
HETATM   40  O5  UNL     1      25.085 -11.418   3.846  1.00  0.00    -0.291 OA
BRANCH  40  41
HETATM   41  C21 UNL     1      26.122 -10.856   3.101  1.00  0.00     0.259 C
HETATM   42  C22 UNL     1      26.293  -9.386   2.975  1.00  0.00     0.126 C
HETATM   43  O6  UNL     1      26.919 -11.624   2.535  1.00  0.00    -0.265 OA
ENDBRANCH  40  41
ENDBRANCH  14  40
BRANCH  22  44
HETATM   44  O7  UNL     1      21.967 -11.197   7.615  1.00  0.00    -0.358 OA
HETATM   45  C28 UNL     1      20.846 -11.917   7.326  1.00  0.00     0.205 C
ENDBRANCH  22  44
BRANCH   3  46
HETATM   46  N1  UNL     1      24.393  -7.161   6.727  1.00  0.00    -0.392 N
HETATM   47  C5  UNL     1      24.272  -5.763   6.401  1.00  0.00     0.148 C
HETATM   48  C6  UNL     1      25.630  -7.636   6.241  1.00  0.00     0.148 C
ENDBRANCH   3  46
TORSDOF 12
ENDMDL