MODEL 4
REMARK VINA RESULT: -6.055670015      2.673      4.573
REMARK  15 active torsions:
REMARK  status: ('A' for Active; 'I' for Inactive)
REMARK    1  A    between atoms: C9_10  and  O2_11
REMARK    2  A    between atoms: C9_10  and  C10_13
REMARK    3  A    between atoms: C10_13  and  O3_14
REMARK    4  A    between atoms: C12_17  and  O4_19
REMARK    5  A    between atoms: C14_21  and  O5_22
REMARK    6  A    between atoms: O5_22  and  C15_23
REMARK    7  A    between atoms: C19_28  and  O7_29
REMARK    8  A    between atoms: C21_31  and  C22_32
REMARK    9  A    between atoms: C24_35  and  O8_36
REMARK   10  A    between atoms: O8_36  and  C25_37
REMARK   11  A    between atoms: C25_37  and  C26_39
REMARK   12  A    between atoms: C26_39  and  O10_40
REMARK   13  A    between atoms: O10_40  and  C27_41
REMARK   14  A    between atoms: C29_43  and  O11_45
REMARK   15  A    between atoms: C31_47  and  O12_48
ROOT
HETATM    1  C1  UNL     1      26.166 -11.119   2.357  1.00  0.00     0.036 C
HETATM    2  C2  UNL     1      25.121 -11.560   3.350  1.00  0.00    -0.018 C
HETATM    3  C3  UNL     1      24.940 -12.808   3.727  1.00  0.00     0.016 C
HETATM    4  C4  UNL     1      25.841 -13.810   3.114  1.00  0.00     0.165 C
HETATM    5  O1  UNL     1      25.958 -13.790   1.862  1.00  0.00    -0.292 OA
HETATM    6  C5  UNL     1      26.616 -14.836   3.887  1.00  0.00     0.078 C
HETATM    7  C6  UNL     1      25.815 -16.153   3.676  1.00  0.00     0.022 C
HETATM    8  C7  UNL     1      26.640 -14.560   5.353  1.00  0.00    -0.016 C
HETATM    9  C8  UNL     1      27.257 -13.733   6.137  1.00  0.00     0.009 C
HETATM   10  C9  UNL     1      27.286 -13.446   7.605  1.00  0.00     0.099 C
HETATM   11  C11 UNL     1      26.278 -12.463   8.028  1.00  0.00     0.084 C
HETATM   12  C12 UNL     1      24.843 -12.555   7.796  1.00  0.00     0.086 C
HETATM   13  C13 UNL     1      24.157 -12.119   9.078  1.00  0.00     0.049 C
HETATM   14  C14 UNL     1      24.330 -11.609   6.665  1.00  0.00     0.195 C
HETATM   15  C29 UNL     1      23.411 -12.226   5.712  1.00  0.00     0.113 C
HETATM   16  C30 UNL     1      22.224 -12.977   6.379  1.00  0.00     0.052 C
HETATM   17  C31 UNL     1      23.887 -13.161   4.671  1.00  0.00     0.191 C
ENDROOT
BRANCH  14  18
HETATM   18  O5  UNL     1      23.719 -10.575   7.333  1.00  0.00    -0.347 OA
BRANCH  18  19
HETATM   19  C15 UNL     1      24.050  -9.290   7.071  1.00  0.00     0.295 C
HETATM   20  O6  UNL     1      25.083  -9.305   6.041  1.00  0.00    -0.341 OA
HETATM   21  C16 UNL     1      25.204  -7.997   5.592  1.00  0.00     0.105 C
HETATM   22  C17 UNL     1      26.428  -7.928   4.645  1.00  0.00     0.053 C
HETATM   23  C18 UNL     1      24.037  -7.579   4.737  1.00  0.00     0.053 C
HETATM   24  C19 UNL     1      25.487  -7.005   6.658  1.00  0.00     0.086 C
HETATM   25  C21 UNL     1      25.283  -7.294   7.902  1.00  0.00     0.004 C
HETATM   26  C24 UNL     1      24.696  -8.638   8.239  1.00  0.00     0.220 C
BRANCH  24  27
HETATM   27  O7  UNL     1      25.980  -5.740   6.318  1.00  0.00    -0.357 OA
HETATM   28  C20 UNL     1      25.193  -4.716   5.766  1.00  0.00     0.209 C
ENDBRANCH  24  27
BRANCH  25  29
HETATM   29  C22 UNL     1      25.532  -6.383   9.058  1.00  0.00     0.112 C
HETATM   30  C23 UNL     1      26.896  -5.757   9.085  1.00  0.00     0.031 C
HETATM   31 CL1  UNL     1      24.282  -5.080   9.059  1.00  0.00    -0.120 Cl
ENDBRANCH  25  29
BRANCH  26  32
HETATM   32  O8  UNL     1      23.934  -8.490   9.400  1.00  0.00    -0.305 OA
BRANCH  32  33
HETATM   33  C25 UNL     1      22.534  -8.576   9.323  1.00  0.00     0.283 C
HETATM   34  O9  UNL     1      21.930  -7.765   8.573  1.00  0.00    -0.263 OA
BRANCH  33  35
HETATM   35  C26 UNL     1      21.831  -9.600  10.116  1.00  0.00     0.278 C
BRANCH  35  36
HETATM   36  O10 UNL     1      21.754  -9.216  11.452  1.00  0.00    -0.382 OA
BRANCH  36  37
HETATM   37  C27 UNL     1      20.439  -8.757  11.640  1.00  0.00     0.163 C
HETATM   38  C28 UNL     1      19.995  -9.087  13.045  1.00  0.00     0.033 C
ENDBRANCH  36  37
ENDBRANCH  35  36
ENDBRANCH  33  35
ENDBRANCH  32  33
ENDBRANCH  26  32
ENDBRANCH  18  19
ENDBRANCH  14  18
BRANCH  12  39
HETATM   39  O4  UNL     1      24.300 -13.773   7.511  1.00  0.00    -0.387 OA
ATOM     40  H4  UNL     1      24.005 -13.947   6.625  1.00  0.00     0.210 HD
ENDBRANCH  12  39
BRANCH  15  41
HETATM   41  O11 UNL     1      22.737 -11.216   5.023  1.00  0.00    -0.385 OA
ATOM     42  H11 UNL     1      23.374 -10.588   4.704  1.00  0.00     0.210 HD
ENDBRANCH  15  41
BRANCH  17  43
HETATM   43  O12 UNL     1      22.724 -13.350   3.847  1.00  0.00    -0.388 OA
ATOM     44  H12 UNL     1      22.314 -12.493   3.822  1.00  0.00     0.210 HD
ENDBRANCH  17  43
BRANCH  10  45
HETATM   45  O2  UNL     1      28.544 -12.717   7.800  1.00  0.00    -0.384 OA
ATOM     46  H2  UNL     1      28.291 -11.804   7.740  1.00  0.00     0.211 HD
ENDBRANCH  10  45
BRANCH  10  47
HETATM   47  C10 UNL     1      27.591 -14.632   8.437  1.00  0.00     0.206 C
BRANCH  47  48
HETATM   48  O3  UNL     1      26.469 -15.179   9.065  1.00  0.00    -0.398 OA
ATOM     49  H3  UNL     1      26.488 -15.103  10.012  1.00  0.00     0.209 HD
ENDBRANCH  47  48
ENDBRANCH  10  47
TORSDOF 15
ENDMDL