MODEL 4
REMARK VINA RESULT: -7.329138948      3.030      4.475
REMARK  14 active torsions:
REMARK  status: ('A' for Active; 'I' for Inactive)
REMARK    1  A    between atoms: C2_2  and  C3_3
REMARK    2  A    between atoms: C3_3  and  C4_4
REMARK    3  A    between atoms: C8_8  and  O1_9
REMARK    4  A    between atoms: C10_12  and  O2_13
REMARK    5  A    between atoms: O2_13  and  C11_14
REMARK    6  A    between atoms: C12_16  and  C13_17
REMARK    7  A    between atoms: C13_17  and  O4_18
REMARK    8  A    between atoms: C14_20  and  O5_21
REMARK    9  A    between atoms: C15_23  and  O6_24
REMARK   10  A    between atoms: C16_26  and  O7_27
REMARK   11  A    between atoms: C19_31  and  C20_32
REMARK   12  A    between atoms: C23_36  and  O9_37
REMARK   13  A    between atoms: C25_39  and  O10_40
REMARK   14  A    between atoms: C29_44  and  O11_45
ROOT
HETATM    1  C4  UNL     1      19.801  -8.028   1.854  1.00  0.00     0.227 C
HETATM    2  C5  UNL     1      20.992  -8.806   1.395  1.00  0.00     0.076 C
HETATM    3  C6  UNL     1      21.171  -9.103   2.885  1.00  0.00     0.262 A
HETATM    4  C7  UNL     1      22.447  -8.600   3.434  1.00  0.00     0.017 A
HETATM    5  C8  UNL     1      23.720  -9.138   3.439  1.00  0.00     0.077 A
HETATM    6  C9  UNL     1      24.800  -8.457   4.021  1.00  0.00     0.074 A
HETATM    7  C10 UNL     1      24.632  -7.226   4.611  1.00  0.00     0.075 A
HETATM    8  C17 UNL     1      23.335  -6.704   4.593  1.00  0.00     0.047 A
HETATM    9  C18 UNL     1      22.272  -7.374   4.020  1.00  0.00    -0.011 A
HETATM   10  C19 UNL     1      20.810  -7.031   3.883  1.00  0.00     0.267 A
HETATM   11  N1  UNL     1      20.208  -8.107   3.217  1.00  0.00     0.112 N
ENDROOT
BRANCH  10  12
HETATM   12  C20 UNL     1      20.252  -6.855   5.304  1.00  0.00     0.087 C
HETATM   13  C21 UNL     1      20.524  -8.035   6.172  1.00  0.00     0.186 C
HETATM   14  O8  UNL     1      19.398  -8.449   6.955  1.00  0.00    -0.347 OA
HETATM   15  C22 UNL     1      18.529  -7.503   7.468  1.00  0.00     0.116 A
HETATM   16  C23 UNL     1      18.009  -7.572   8.765  1.00  0.00     0.136 A
HETATM   17  C31 UNL     1      18.193  -6.465   6.622  1.00  0.00     0.046 A
HETATM   18  C25 UNL     1      17.141  -6.573   9.196  1.00  0.00     0.113 A
HETATM   19  C27 UNL     1      16.820  -5.544   8.329  1.00  0.00     0.008 A
HETATM   20  C28 UNL     1      15.904  -4.482   8.780  1.00  0.00     0.054 C
HETATM   21  C29 UNL     1      17.335  -5.478   7.049  1.00  0.00     0.088 A
HETATM   22  C32 UNL     1      18.787  -6.474   5.267  1.00  0.00     0.217 C
HETATM   23  F1  UNL     1      18.081  -7.437   4.529  1.00  0.00    -0.244 F
BRANCH  16  24
HETATM   24  O9  UNL     1      18.360  -8.617   9.586  1.00  0.00    -0.351 OA
HETATM   25  C24 UNL     1      19.612  -8.493  10.280  1.00  0.00     0.210 C
ENDBRANCH  16  24
BRANCH  18  26
HETATM   26  O10 UNL     1      16.635  -6.658  10.485  1.00  0.00    -0.352 OA
HETATM   27  C26 UNL     1      17.222  -6.033  11.594  1.00  0.00     0.210 C
ENDBRANCH  18  26
BRANCH  21  28
HETATM   28  O11 UNL     1      16.976  -4.421   6.226  1.00  0.00    -0.355 OA
HETATM   29  C30 UNL     1      15.868  -4.478   5.347  1.00  0.00     0.210 C
ENDBRANCH  21  28
ENDBRANCH  10  12
BRANCH   1  30
HETATM   30  C3  UNL     1      19.609  -6.730   1.201  1.00  0.00     0.035 C
BRANCH  30  31
HETATM   31  C2  UNL     1      18.245  -6.164   1.411  1.00  0.00    -0.002 C
HETATM   32  C1  UNL     1      18.110  -4.866   2.104  1.00  0.00     0.005 C
ENDBRANCH  30  31
ENDBRANCH   1  30
BRANCH   5  33
HETATM   33  O1  UNL     1      23.885 -10.386   2.838  1.00  0.00    -0.360 OA
ATOM     34  H1  UNL     1      24.569 -10.946   3.184  1.00  0.00     0.217 HD
ENDBRANCH   5  33
BRANCH   7  35
HETATM   35  O2  UNL     1      25.665  -6.518   5.197  1.00  0.00    -0.318 OA
BRANCH  35  36
HETATM   36  C11 UNL     1      25.831  -5.133   5.199  1.00  0.00     0.298 C
HETATM   37  O3  UNL     1      25.328  -4.672   6.425  1.00  0.00    -0.348 OA
HETATM   38  C12 UNL     1      26.266  -4.779   7.436  1.00  0.00     0.179 C
HETATM   39  C14 UNL     1      27.245  -3.638   7.288  1.00  0.00     0.180 C
HETATM   40  C15 UNL     1      27.542  -3.478   5.816  1.00  0.00     0.183 C
HETATM   41  C16 UNL     1      27.297  -4.766   5.052  1.00  0.00     0.205 C
BRANCH  38  42
HETATM   42  C13 UNL     1      25.520  -4.672   8.752  1.00  0.00     0.198 C
BRANCH  42  43
HETATM   43  O4  UNL     1      24.204  -4.314   8.589  1.00  0.00    -0.398 OA
ATOM     44  H4  UNL     1      23.611  -5.052   8.656  1.00  0.00     0.209 HD
ENDBRANCH  42  43
ENDBRANCH  38  42
BRANCH  39  45
HETATM   45  O5  UNL     1      26.581  -2.467   7.718  1.00  0.00    -0.390 OA
ATOM     46  H5  UNL     1      26.879  -2.288   8.602  1.00  0.00     0.210 HD
ENDBRANCH  39  45
BRANCH  40  47
HETATM   47  O6  UNL     1      26.687  -2.512   5.279  1.00  0.00    -0.390 OA
ATOM     48  H6  UNL     1      27.152  -2.021   4.612  1.00  0.00     0.210 HD
ENDBRANCH  40  47
BRANCH  41  49
HETATM   49  O7  UNL     1      27.532  -4.497   3.706  1.00  0.00    -0.388 OA
ATOM     50  H7  UNL     1      28.451  -4.669   3.534  1.00  0.00     0.210 HD
ENDBRANCH  41  49
ENDBRANCH  35  36
ENDBRANCH   7  35
TORSDOF 14
ENDMDL