MODEL 4
REMARK VINA RESULT: -6.482723195      2.680      5.079
REMARK  14 active torsions:
REMARK  status: ('A' for Active; 'I' for Inactive)
REMARK    1  A    between atoms: O1_2  and  C2_3
REMARK    2  A    between atoms: C3_4  and  O2_5
REMARK    3  A    between atoms: C4_7  and  O3_8
REMARK    4  A    between atoms: O3_8  and  C5_9
REMARK    5  A    between atoms: C7_11  and  O4_12
REMARK    6  A    between atoms: O4_12  and  C8_13
REMARK    7  A    between atoms: C20_25  and  O5_26
REMARK    8  A    between atoms: C20_25  and  O6_28
REMARK    9  A    between atoms: O6_28  and  C21_29
REMARK   10  A    between atoms: C21_29  and  C22_30
REMARK   11  A    between atoms: C23_33  and  C24_34
REMARK   12  A    between atoms: C24_34  and  O8_35
REMARK   13  A    between atoms: C24_34  and  O9_37
REMARK   14  A    between atoms: C27_43  and  O11_45
ROOT
HETATM    1  C24 UNL     1      25.594  -7.824   4.426  1.00  0.00     0.282 C
HETATM    2  C25 UNL     1      26.352  -8.632   3.516  1.00  0.00     0.133 C
HETATM    3  N1  UNL     1      26.940  -9.279   2.777  1.00  0.00    -0.191 NA
ENDROOT
BRANCH   1   4
HETATM    4  C23 UNL     1      24.171  -8.180   4.634  1.00  0.00     0.034 C
HETATM    5  C5  UNL     1      23.541  -7.787   5.928  1.00  0.00     0.163 C
HETATM    6  C6  UNL     1      22.115  -8.316   6.020  1.00  0.00     0.070 C
HETATM    7  C7  UNL     1      22.048  -9.626   6.705  1.00  0.00     0.139 C
HETATM    8  C14 UNL     1      22.861 -10.709   6.120  1.00  0.00     0.028 C
HETATM    9  C15 UNL     1      24.169 -10.981   6.826  1.00  0.00     0.025 C
HETATM   10  C16 UNL     1      22.038 -12.007   6.280  1.00  0.00     0.025 C
HETATM   11  C17 UNL     1      23.169 -10.539   4.699  1.00  0.00     0.070 C
HETATM   12  C18 UNL     1      23.726  -9.487   4.121  1.00  0.00    -0.009 C
HETATM   13  O7  UNL     1      22.889 -11.523   3.762  1.00  0.00    -0.293 OA
HETATM   14  C19 UNL     1      23.830  -9.804   2.679  1.00  0.00     0.144 C
HETATM   15  C20 UNL     1      22.955 -11.047   2.450  1.00  0.00     0.288 C
BRANCH   5  16
HETATM   16  O3  UNL     1      23.560  -6.439   6.191  1.00  0.00    -0.349 OA
BRANCH  16  17
HETATM   17  C4  UNL     1      24.299  -6.023   7.259  1.00  0.00     0.291 C
HETATM   18  C3  UNL     1      24.841  -4.613   7.101  1.00  0.00     0.205 C
HETATM   19  C2  UNL     1      26.303  -4.511   7.552  1.00  0.00     0.190 C
HETATM   20  C27 UNL     1      26.410  -5.147   8.903  1.00  0.00     0.104 C
HETATM   21  C26 UNL     1      25.665  -6.464   8.977  1.00  0.00     0.211 C
HETATM   22  C28 UNL     1      25.753  -4.207   9.895  1.00  0.00     0.051 C
HETATM   23  O10 UNL     1      25.348  -6.801   7.662  1.00  0.00    -0.355 OA
BRANCH  18  24
HETATM   24  O2  UNL     1      24.824  -4.349   5.711  1.00  0.00    -0.388 OA
ATOM     25  H2  UNL     1      24.090  -4.832   5.350  1.00  0.00     0.210 HD
ENDBRANCH  18  24
BRANCH  19  26
HETATM   26  O1  UNL     1      27.075  -5.033   6.576  1.00  0.00    -0.385 OA
HETATM   27  C1  UNL     1      27.987  -4.226   5.976  1.00  0.00     0.202 C
ENDBRANCH  19  26
BRANCH  20  28
HETATM   28  O11 UNL     1      27.690  -5.358   9.342  1.00  0.00    -0.385 OA
ATOM     29  H11 UNL     1      28.136  -6.093   8.937  1.00  0.00     0.210 HD
ENDBRANCH  20  28
ENDBRANCH  16  17
ENDBRANCH   5  16
BRANCH   7  30
HETATM   30  O4  UNL     1      22.094  -9.550   8.088  1.00  0.00    -0.379 OA
BRANCH  30  31
HETATM   31  C8  UNL     1      21.325  -8.610   8.691  1.00  0.00     0.122 C
HETATM   32  C9  UNL     1      19.890  -9.053   8.941  1.00  0.00     0.032 C
HETATM   33  C10 UNL     1      19.244  -8.096   9.946  1.00  0.00     0.002 C
HETATM   34  C11 UNL     1      19.777  -8.407  11.335  1.00  0.00     0.000 C
HETATM   35  C12 UNL     1      21.131  -9.048  11.151  1.00  0.00     0.002 C
HETATM   36  C13 UNL     1      21.910  -8.336  10.068  1.00  0.00     0.032 C
ENDBRANCH  30  31
ENDBRANCH   7  30
BRANCH  15  37
HETATM   37  O5  UNL     1      23.607 -11.916   1.567  1.00  0.00    -0.343 OA
ATOM     38  H5  UNL     1      23.922 -12.673   2.047  1.00  0.00     0.215 HD
ENDBRANCH  15  37
BRANCH  15  39
HETATM   39  O6  UNL     1      21.732 -10.653   2.002  1.00  0.00    -0.332 OA
BRANCH  39  40
HETATM   40  C21 UNL     1      21.650  -9.600   1.151  1.00  0.00     0.184 C
BRANCH  40  41
HETATM   41  C22 UNL     1      20.510  -8.662   1.297  1.00  0.00     0.111 C
HETATM   42 BR1  UNL     1      21.182  -7.108   2.284  1.00  0.00    -0.094 Br
ENDBRANCH  40  41
ENDBRANCH  39  40
ENDBRANCH  15  39
ENDBRANCH   1   4
BRANCH   1  43
HETATM   43  O8  UNL     1      25.765  -6.473   4.052  1.00  0.00    -0.350 OA
ATOM     44  H8  UNL     1      26.280  -5.983   4.683  1.00  0.00     0.214 HD
ENDBRANCH   1  43
BRANCH   1  45
HETATM   45  O9  UNL     1      26.319  -7.857   5.664  1.00  0.00    -0.350 OA
ATOM     46  H9  UNL     1      27.135  -7.375   5.594  1.00  0.00     0.214 HD
ENDBRANCH   1  45
TORSDOF 14
ENDMDL