MODEL 2
REMARK VINA RESULT: -8.497902933      1.142      1.436
REMARK  14 active torsions:
REMARK  status: ('A' for Active; 'I' for Inactive)
REMARK    1  A    between atoms: C2_2  and  O2_4
REMARK    2  A    between atoms: O2_4  and  C3_5
REMARK    3  A    between atoms: C3_5  and  C4_6
REMARK    4  A    between atoms: C5_8  and  O4_9
REMARK    5  A    between atoms: O4_9  and  C6_10
REMARK    6  A    between atoms: C7_11  and  C8_12
REMARK    7  A    between atoms: C16_22  and  C17_23
REMARK    8  A    between atoms: C17_23  and  C18_24
REMARK    9  A    between atoms: C18_24  and  C19_25
REMARK   10  A    between atoms: C19_25  and  O6_27
REMARK   11  A    between atoms: C26_35  and  O8_36
REMARK   12  A    between atoms: C31_42  and  O9_43
REMARK   13  A    between atoms: C32_45  and  O10_46
REMARK   14  A    between atoms: C33_48  and  O11_49
ROOT
HETATM    1  C6  UNL     1      25.323  -8.161   6.351  1.00  0.00     0.059 C
HETATM    2  C7  UNL     1      24.609  -8.368   7.407  1.00  0.00     0.013 C
HETATM    3  C9  UNL     1      23.795  -9.570   7.600  1.00  0.00     0.032 C
HETATM    4  C10 UNL     1      22.385  -9.096   7.894  1.00  0.00     0.055 C
HETATM    5  C11 UNL     1      21.592 -10.175   8.631  1.00  0.00     0.122 C
HETATM    6  F1  UNL     1      22.515 -10.722   9.542  1.00  0.00    -0.241 F
HETATM    7  C12 UNL     1      21.166 -11.193   7.668  1.00  0.00     0.096 C
HETATM    8  C13 UNL     1      21.341 -10.833   6.204  1.00  0.00     0.016 C
HETATM    9  C14 UNL     1      22.718 -10.857   5.694  1.00  0.00     0.006 C
HETATM   10  C15 UNL     1      23.873 -10.649   6.603  1.00  0.00    -0.001 C
HETATM   11  C16 UNL     1      25.122 -10.585   5.730  1.00  0.00    -0.004 C
HETATM   12  C21 UNL     1      25.375  -9.137   5.295  1.00  0.00     0.070 C
HETATM   13  C22 UNL     1      19.796 -11.767   7.886  1.00  0.00     0.134 C
HETATM   14  O7  UNL     1      19.552 -12.871   7.449  1.00  0.00    -0.297 OA
HETATM   15  C23 UNL     1      18.779 -10.979   8.624  1.00  0.00     0.084 C
HETATM   16  C24 UNL     1      19.479 -10.504   9.882  1.00  0.00     0.006 C
HETATM   17  C25 UNL     1      18.481  -9.979  10.844  1.00  0.00     0.037 C
HETATM   18  C26 UNL     1      19.099  -9.343  12.067  1.00  0.00     0.118 C
HETATM   19  C27 UNL     1      20.204  -8.382  11.706  1.00  0.00     0.032 C
HETATM   20  C28 UNL     1      21.188  -9.067  10.786  1.00  0.00     0.015 C
HETATM   21  C29 UNL     1      20.547  -9.520   9.488  1.00  0.00    -0.003 C
HETATM   22  C30 UNL     1      19.960  -8.290   8.843  1.00  0.00     0.019 C
ENDROOT
BRANCH   1  23
HETATM   23  O4  UNL     1      26.083  -6.977   6.177  1.00  0.00    -0.321 OA
BRANCH  23  24
HETATM   24  C5  UNL     1      25.567  -5.814   5.584  1.00  0.00     0.297 C
HETATM   25  O3  UNL     1      25.462  -4.808   6.503  1.00  0.00    -0.348 OA
HETATM   26  C4  UNL     1      26.588  -4.225   6.975  1.00  0.00     0.180 C
HETATM   27  C33 UNL     1      27.669  -4.105   5.883  1.00  0.00     0.180 C
HETATM   28  C32 UNL     1      26.861  -3.951   4.586  1.00  0.00     0.183 C
HETATM   29  C31 UNL     1      26.288  -5.362   4.371  1.00  0.00     0.205 C
BRANCH  26  30
HETATM   30  C3  UNL     1      26.379  -2.810   7.452  1.00  0.00     0.213 C
BRANCH  30  31
HETATM   31  O2  UNL     1      26.160  -2.605   8.787  1.00  0.00    -0.319 OA
BRANCH  31  32
HETATM   32  C2  UNL     1      25.890  -3.450   9.805  1.00  0.00     0.254 C
HETATM   33  C1  UNL     1      24.505  -3.961  10.109  1.00  0.00     0.126 C
HETATM   34  O1  UNL     1      26.829  -3.832  10.535  1.00  0.00    -0.266 OA
ENDBRANCH  31  32
ENDBRANCH  30  31
ENDBRANCH  26  30
BRANCH  27  35
HETATM   35  O11 UNL     1      28.428  -2.971   6.026  1.00  0.00    -0.390 OA
ATOM     36  H11 UNL     1      28.036  -2.351   6.629  1.00  0.00     0.210 HD
ENDBRANCH  27  35
BRANCH  28  37
HETATM   37  O10 UNL     1      27.688  -3.606   3.527  1.00  0.00    -0.390 OA
ATOM     38  H10 UNL     1      27.952  -2.696   3.601  1.00  0.00     0.210 HD
ENDBRANCH  28  37
BRANCH  29  39
HETATM   39  O9  UNL     1      27.387  -6.153   4.044  1.00  0.00    -0.388 OA
ATOM     40  H9  UNL     1      27.774  -6.598   4.789  1.00  0.00     0.210 HD
ENDBRANCH  29  39
ENDBRANCH  23  24
ENDBRANCH   1  23
BRANCH   2  41
HETATM   41  C8  UNL     1      24.619  -7.313   8.446  1.00  0.00     0.268 C
HETATM   42  O5  UNL     1      25.463  -7.294   9.358  1.00  0.00    -0.302 OA
ENDBRANCH   2  41
BRANCH  11  43
HETATM   43  C17 UNL     1      25.066 -11.365   4.496  1.00  0.00     0.008 C
BRANCH  43  44
HETATM   44  C18 UNL     1      26.207 -12.258   4.157  1.00  0.00     0.032 C
BRANCH  44  45
HETATM   45  C19 UNL     1      27.209 -12.444   5.233  1.00  0.00     0.114 C
HETATM   46  C20 UNL     1      26.935 -13.792   5.927  1.00  0.00     0.039 C
BRANCH  45  47
HETATM   47  O6  UNL     1      28.530 -12.378   4.903  1.00  0.00    -0.396 OA
ATOM     48  H6  UNL     1      29.156 -12.184   5.592  1.00  0.00     0.210 HD
ENDBRANCH  45  47
ENDBRANCH  44  45
ENDBRANCH  43  44
ENDBRANCH  11  43
BRANCH  18  49
HETATM   49  O8  UNL     1      18.128  -8.698  12.809  1.00  0.00    -0.396 OA
ATOM     50  H8  UNL     1      18.021  -7.805  12.503  1.00  0.00     0.210 HD
ENDBRANCH  18  49
TORSDOF 14
ENDMDL