MODEL 1
REMARK VINA RESULT: -7.482404825      0.000      0.000
REMARK  13 active torsions:
REMARK  status: ('A' for Active; 'I' for Inactive)
REMARK    1  A    between atoms: C2_2  and  C4_4
REMARK    2  A    between atoms: C4_4  and  O1_5
REMARK    3  A    between atoms: O1_5  and  C5_6
REMARK    4  A    between atoms: C16_19  and  O4_21
REMARK    5  A    between atoms: C18_23  and  O5_24
REMARK    6  A    between atoms: C19_26  and  C20_27
REMARK    7  A    between atoms: C19_26  and  N4_50
REMARK    8  A    between atoms: C20_27  and  C22_29
REMARK    9  A    between atoms: C22_29  and  C23_30
REMARK   10  A    between atoms: C23_30  and  C24_31
REMARK   11  A    between atoms: C25_33  and  N1_34
REMARK   12  A    between atoms: C28_37  and  N2_38
REMARK   13  A    between atoms: C30_45  and  O8_46
ROOT
HETATM    1  C5  UNL     1      18.590  -8.125   9.282  1.00  0.00     0.296 C
HETATM    2  O2  UNL     1      18.568  -8.163   7.917  1.00  0.00    -0.347 OA
HETATM    3  C6  UNL     1      18.947  -9.346   7.284  1.00  0.00     0.200 C
HETATM    4  C7  UNL     1      18.215 -10.435   7.996  1.00  0.00     0.084 C
HETATM    5  C8  UNL     1      16.723 -10.053   7.850  1.00  0.00     0.048 C
HETATM    6  C9  UNL     1      18.322 -11.823   7.473  1.00  0.00     0.048 C
HETATM    7  O3  UNL     1      18.443 -10.500   9.355  1.00  0.00    -0.361 OA
HETATM    8  C10 UNL     1      18.904  -9.381   9.974  1.00  0.00     0.121 C
HETATM    9  C11 UNL     1      18.246  -9.360  11.357  1.00  0.00     0.022 C
HETATM   10  C12 UNL     1      17.733 -10.746  11.717  1.00  0.00     0.013 C
HETATM   11  C13 UNL     1      19.274  -8.974  12.352  1.00  0.00     0.008 C
HETATM   12  C14 UNL     1      20.528  -8.705  11.567  1.00  0.00     0.011 C
HETATM   13  C15 UNL     1      20.326  -9.579  10.363  1.00  0.00     0.062 C
HETATM   14  C16 UNL     1      21.363  -9.231   9.361  1.00  0.00     0.089 C
HETATM   15  C17 UNL     1      22.669  -9.782  10.004  1.00  0.00     0.049 C
HETATM   16  C18 UNL     1      21.291  -9.929   8.050  1.00  0.00     0.194 C
HETATM   17  C19 UNL     1      20.358  -9.413   7.022  1.00  0.00     0.176 C
ENDROOT
BRANCH  17  18
HETATM   18  C20 UNL     1      20.760 -10.011   5.687  1.00  0.00    -0.050 C
HETATM   19  C21 UNL     1      19.876 -10.050   4.719  1.00  0.00     0.017 C
BRANCH  18  20
HETATM   20  C22 UNL     1      22.154 -10.459   5.441  1.00  0.00     0.039 C
BRANCH  20  21
HETATM   21  C23 UNL     1      22.746  -9.733   4.265  1.00  0.00     0.039 C
BRANCH  21  22
HETATM   22  C24 UNL     1      24.245  -9.511   4.547  1.00  0.00     0.161 C
HETATM   23  O6  UNL     1      24.593  -8.222   4.241  1.00  0.00    -0.355 OA
HETATM   24  C25 UNL     1      24.709  -7.541   5.421  1.00  0.00     0.264 C
HETATM   25  C30 UNL     1      25.412  -8.556   6.326  1.00  0.00     0.204 C
HETATM   26  C31 UNL     1      24.615  -9.803   5.963  1.00  0.00     0.232 C
HETATM   27  F1  UNL     1      25.406 -10.920   6.028  1.00  0.00    -0.244 F
BRANCH  24  28
HETATM   28  N1  UNL     1      25.441  -6.307   5.343  1.00  0.00    -0.280 N
HETATM   29  C26 UNL     1      26.442  -6.236   4.440  1.00  0.00     0.102 A
HETATM   30  C27 UNL     1      27.190  -5.094   4.303  1.00  0.00     0.065 A
HETATM   31  C28 UNL     1      26.910  -4.011   5.099  1.00  0.00     0.103 A
HETATM   32  N3  UNL     1      25.915  -4.093   5.992  1.00  0.00    -0.295 N
HETATM   33  C29 UNL     1      25.205  -5.218   6.102  1.00  0.00     0.330 A
ATOM     34  H3  UNL     1      25.699  -3.295   6.590  1.00  0.00     0.172 HD
HETATM   35  O7  UNL     1      24.252  -5.327   6.942  1.00  0.00    -0.246 OA
BRANCH  31  36
HETATM   36  N2  UNL     1      27.618  -2.920   4.975  1.00  0.00    -0.385 N
ATOM     37  H22 UNL     1      28.380  -2.711   5.620  1.00  0.00     0.157 HD
ATOM     38  H21 UNL     1      27.407  -2.267   4.221  1.00  0.00     0.157 HD
ENDBRANCH  31  36
ENDBRANCH  24  28
BRANCH  25  39
HETATM   39  O8  UNL     1      25.210  -8.307   7.667  1.00  0.00    -0.388 OA
ATOM     40  H8  UNL     1      25.990  -8.446   8.190  1.00  0.00     0.210 HD
ENDBRANCH  25  39
ENDBRANCH  21  22
ENDBRANCH  20  21
ENDBRANCH  18  20
ENDBRANCH  17  18
BRANCH  17  41
HETATM   41  N4  UNL     1      20.837  -8.035   6.777  1.00  0.00    -0.135 N
HETATM   42  O9  UNL     1      20.122  -7.135   6.381  1.00  0.00    -0.535 OA
HETATM   43  O10 UNL     1      22.155  -7.784   7.002  1.00  0.00    -0.535 OA
ENDBRANCH  17  41
BRANCH  16  44
HETATM   44  O5  UNL     1      21.239 -11.293   8.306  1.00  0.00    -0.389 OA
ATOM     45  H5  UNL     1      21.860 -11.476   9.001  1.00  0.00     0.210 HD
ENDBRANCH  16  44
BRANCH  14  46
HETATM   46  O4  UNL     1      21.624  -7.894   9.229  1.00  0.00    -0.387 OA
ATOM     47  H4  UNL     1      21.069  -7.431   8.613  1.00  0.00     0.210 HD
ENDBRANCH  14  46
BRANCH   1  48
HETATM   48  O1  UNL     1      17.354  -7.637   9.700  1.00  0.00    -0.354 OA
BRANCH  48  49
HETATM   49  C4  UNL     1      17.154  -6.297   9.365  1.00  0.00     0.204 C
BRANCH  49  50
HETATM   50  C2  UNL     1      16.738  -5.530  10.568  1.00  0.00    -0.070 C
HETATM   51  C1  UNL     1      15.970  -4.464  10.402  1.00  0.00     0.016 C
HETATM   52  C3  UNL     1      17.162  -5.931  11.934  1.00  0.00     0.044 C
ENDBRANCH  49  50
ENDBRANCH  48  49
ENDBRANCH   1  48
TORSDOF 13
ENDMDL