MODEL 2
REMARK VINA RESULT: -7.389901959      1.273      1.542
REMARK  15 active torsions:
REMARK  status: ('A' for Active; 'I' for Inactive)
REMARK    1  A    between atoms: C3_3  and  O1_4
REMARK    2  A    between atoms: O1_4  and  C4_5
REMARK    3  A    between atoms: C4_5  and  C5_7
REMARK    4  A    between atoms: C10_12  and  C11_13
REMARK    5  A    between atoms: C11_13  and  O3_14
REMARK    6  A    between atoms: O3_14  and  C12_15
REMARK    7  A    between atoms: C13_17  and  C14_18
REMARK    8  A    between atoms: C14_18  and  O5_19
REMARK    9  A    between atoms: C15_21  and  O6_22
REMARK   10  A    between atoms: C16_24  and  O7_25
REMARK   11  A    between atoms: C17_27  and  O8_28
REMARK   12  A    between atoms: C20_32  and  O9_33
REMARK   13  A    between atoms: O9_33  and  C21_34
REMARK   14  A    between atoms: C23_37  and  C24_38
REMARK   15  A    between atoms: C29_45  and  O12_47
ROOT
HETATM    1  C1  UNL     1      23.913 -10.420   8.561  1.00  0.00     0.017 C
HETATM    2  C2  UNL     1      23.955 -10.312   7.263  1.00  0.00    -0.051 C
HETATM    3  C3  UNL     1      24.838 -11.225   6.421  1.00  0.00     0.164 C
HETATM    4  C7  UNL     1      25.457 -10.492   5.292  1.00  0.00     0.071 C
HETATM    5  C8  UNL     1      24.757  -9.278   4.792  1.00  0.00    -0.074 C
HETATM    6  C9  UNL     1      24.684  -9.141   3.495  1.00  0.00     0.015 C
HETATM    7  C10 UNL     1      24.224  -8.369   5.845  1.00  0.00     0.020 C
HETATM    8  C18 UNL     1      23.388  -7.248   5.548  1.00  0.00     0.029 C
HETATM    9  C19 UNL     1      23.478  -6.410   4.360  1.00  0.00     0.014 C
HETATM   10  C20 UNL     1      21.892  -7.653   5.776  1.00  0.00     0.164 C
HETATM   11  C29 UNL     1      22.108  -8.566   7.028  1.00  0.00     0.089 C
HETATM   12  C30 UNL     1      20.918  -9.409   7.348  1.00  0.00     0.049 C
HETATM   13  C31 UNL     1      23.201  -9.366   6.502  1.00  0.00     0.068 C
ENDROOT
BRANCH   7  14
HETATM   14  C11 UNL     1      25.377  -8.106   6.734  1.00  0.00     0.186 C
BRANCH  14  15
HETATM   15  O3  UNL     1      25.448  -7.371   7.818  1.00  0.00    -0.357 OA
BRANCH  15  16
HETATM   16  C12 UNL     1      25.620  -6.044   7.897  1.00  0.00     0.291 C
HETATM   17  O4  UNL     1      26.592  -5.664   6.861  1.00  0.00    -0.348 OA
HETATM   18  C13 UNL     1      26.271  -4.347   6.562  1.00  0.00     0.179 C
HETATM   19  C15 UNL     1      26.760  -3.473   7.685  1.00  0.00     0.180 C
HETATM   20  C16 UNL     1      26.086  -3.916   8.948  1.00  0.00     0.183 C
HETATM   21  C17 UNL     1      26.221  -5.440   9.120  1.00  0.00     0.204 C
BRANCH  18  22
HETATM   22  C14 UNL     1      26.938  -4.011   5.245  1.00  0.00     0.198 C
BRANCH  22  23
HETATM   23  O5  UNL     1      26.233  -2.891   4.743  1.00  0.00    -0.398 OA
ATOM     24  H5  UNL     1      25.760  -3.212   3.984  1.00  0.00     0.209 HD
ENDBRANCH  22  23
ENDBRANCH  18  22
BRANCH  19  25
HETATM   25  O6  UNL     1      26.446  -2.149   7.423  1.00  0.00    -0.390 OA
ATOM     26  H6  UNL     1      26.070  -2.072   6.554  1.00  0.00     0.210 HD
ENDBRANCH  19  25
BRANCH  20  27
HETATM   27  O7  UNL     1      26.658  -3.232  10.012  1.00  0.00    -0.390 OA
ATOM     28  H7  UNL     1      26.521  -3.740  10.803  1.00  0.00     0.210 HD
ENDBRANCH  20  27
BRANCH  21  29
HETATM   29  O8  UNL     1      27.562  -5.703   9.303  1.00  0.00    -0.388 OA
ATOM     30  H8  UNL     1      28.039  -5.040   9.787  1.00  0.00     0.210 HD
ENDBRANCH  21  29
ENDBRANCH  15  16
ENDBRANCH  14  15
ENDBRANCH   7  14
BRANCH  10  31
HETATM   31  O9  UNL     1      21.347  -8.299   4.723  1.00  0.00    -0.351 OA
BRANCH  31  32
HETATM   32  C21 UNL     1      20.218  -7.740   4.152  1.00  0.00     0.284 C
HETATM   33  O10 UNL     1      20.146  -6.306   4.321  1.00  0.00    -0.330 OA
HETATM   34  C22 UNL     1      18.977  -5.745   3.844  1.00  0.00     0.149 C
HETATM   35  C23 UNL     1      18.477  -6.186   2.711  1.00  0.00     0.015 C
HETATM   36  C26 UNL     1      19.144  -7.218   1.916  1.00  0.00     0.043 C
HETATM   37  C27 UNL     1      19.911  -6.503   0.803  1.00  0.00     0.017 C
HETATM   38  C28 UNL     1      20.056  -8.092   2.723  1.00  0.00     0.146 C
HETATM   39 CL1  UNL     1      21.611  -8.126   1.839  1.00  0.00    -0.119 Cl
BRANCH  35  40
HETATM   40  C24 UNL     1      17.228  -5.564   2.241  1.00  0.00     0.154 C
HETATM   41  C25 UNL     1      15.983  -5.770   3.011  1.00  0.00     0.096 C
HETATM   42  O11 UNL     1      17.209  -4.865   1.203  1.00  0.00    -0.293 OA
ENDBRANCH  35  40
ENDBRANCH  31  32
ENDBRANCH  10  31
BRANCH  11  43
HETATM   43  O12 UNL     1      22.375  -7.798   8.133  1.00  0.00    -0.387 OA
ATOM     44  H12 UNL     1      23.314  -7.708   8.250  1.00  0.00     0.210 HD
ENDBRANCH  11  43
BRANCH   3  45
HETATM   45  O1  UNL     1      24.160 -12.346   5.950  1.00  0.00    -0.311 OA
BRANCH  45  46
HETATM   46  C4  UNL     1      24.353 -12.903   4.698  1.00  0.00     0.259 C
HETATM   47  O2  UNL     1      25.347 -13.706   4.610  1.00  0.00    -0.265 OA
BRANCH  46  48
HETATM   48  C5  UNL     1      23.502 -12.622   3.512  1.00  0.00     0.106 C
HETATM   49  C6  UNL     1      22.224 -11.963   3.933  1.00  0.00     0.015 C
ENDBRANCH  46  48
ENDBRANCH  45  46
ENDBRANCH   3  45
TORSDOF 15
ENDMDL