MODEL 4
REMARK VINA RESULT: -7.208483716      1.275      1.395
REMARK  15 active torsions:
REMARK  status: ('A' for Active; 'I' for Inactive)
REMARK    1  A    between atoms: O1_2  and  C2_3
REMARK    2  A    between atoms: C2_3  and  C3_5
REMARK    3  A    between atoms: C3_5  and  C4_6
REMARK    4  A    between atoms: C3_5  and  C20_33
REMARK    5  A    between atoms: C5_7  and  C6_8
REMARK    6  A    between atoms: C10_14  and  O5_15
REMARK    7  A    between atoms: C17_26  and  O8_27
REMARK    8  A    between atoms: C18_29  and  O9_31
REMARK    9  A    between atoms: C20_33  and  O10_34
REMARK   10  A    between atoms: C20_33  and  O11_36
REMARK   11  A    between atoms: C20_33  and  C21_38
REMARK   12  A    between atoms: C21_38  and  C22_40
REMARK   13  A    between atoms: C23_41  and  C24_42
REMARK   14  A    between atoms: C24_42  and  C25_43
REMARK   15  A    between atoms: C25_43  and  C26_44
ROOT
HETATM    1  C6  UNL     1      22.135  -9.089   5.727  1.00  0.00     0.184 C
HETATM    2  O3  UNL     1      22.226  -7.821   6.460  1.00  0.00    -0.334 OA
HETATM    3  C7  UNL     1      23.421  -7.278   6.175  1.00  0.00     0.270 C
HETATM    4  O4  UNL     1      23.831  -6.189   7.002  1.00  0.00    -0.303 OA
HETATM    5  C8  UNL     1      24.989  -5.548   6.499  1.00  0.00     0.084 A
HETATM    6  C9  UNL     1      25.693  -4.644   7.288  1.00  0.00     0.075 A
HETATM    7  C10 UNL     1      26.826  -4.002   6.828  1.00  0.00     0.085 A
HETATM    8  C11 UNL     1      27.266  -4.271   5.548  1.00  0.00     0.044 A
HETATM    9 BR1  UNL     1      28.828  -3.420   4.844  1.00  0.00    -0.048 Br
HETATM   10  C12 UNL     1      26.600  -5.164   4.724  1.00  0.00     0.034 A
HETATM   11  C13 UNL     1      25.478  -5.774   5.232  1.00  0.00     0.007 A
HETATM   12  C14 UNL     1      24.737  -6.744   4.336  1.00  0.00     0.180 C
HETATM   13  O6  UNL     1      25.146  -8.038   4.820  1.00  0.00    -0.306 OA
HETATM   14  C15 UNL     1      24.595  -8.161   6.100  1.00  0.00     0.324 C
HETATM   15  O7  UNL     1      25.009  -8.887   7.035  1.00  0.00    -0.259 OA
HETATM   16  C16 UNL     1      23.328  -6.656   4.780  1.00  0.00     0.125 C
HETATM   17  C17 UNL     1      22.262  -7.256   3.973  1.00  0.00     0.167 C
HETATM   18  C18 UNL     1      21.925  -8.721   4.301  1.00  0.00     0.110 C
HETATM   19  C19 UNL     1      22.770  -9.509   3.312  1.00  0.00     0.051 C
ENDROOT
BRANCH   1  20
HETATM   20  C5  UNL     1      21.082  -9.783   6.490  1.00  0.00     0.005 C
HETATM   21  C4  UNL     1      20.842  -9.936   7.885  1.00  0.00    -0.008 C
BRANCH  21  22
HETATM   22  C3  UNL     1      21.594 -10.491   8.992  1.00  0.00     0.178 C
BRANCH  22  23
HETATM   23  C2  UNL     1      22.694 -11.415   8.794  1.00  0.00     0.272 C
HETATM   24  O2  UNL     1      22.497 -12.647   8.685  1.00  0.00    -0.264 OA
BRANCH  23  25
HETATM   25  O1  UNL     1      23.994 -10.945   8.720  1.00  0.00    -0.326 OA
HETATM   26  C1  UNL     1      25.108 -11.781   8.800  1.00  0.00     0.213 C
ENDBRANCH  23  25
ENDBRANCH  22  23
BRANCH  22  27
HETATM   27  C20 UNL     1      22.107  -9.356   9.937  1.00  0.00     0.243 C
BRANCH  27  28
HETATM   28  O10 UNL     1      22.887  -8.489   9.140  1.00  0.00    -0.358 OA
ATOM     29  H10 UNL     1      22.642  -8.655   8.238  1.00  0.00     0.213 HD
ENDBRANCH  27  28
BRANCH  27  30
HETATM   30  O11 UNL     1      22.878  -9.919  10.923  1.00  0.00    -0.358 OA
ATOM     31  H11 UNL     1      23.009  -9.277  11.610  1.00  0.00     0.213 HD
ENDBRANCH  27  30
BRANCH  27  32
HETATM   32  C21 UNL     1      20.971  -8.642  10.509  1.00  0.00     0.211 C
HETATM   33  O12 UNL     1      20.393  -7.774   9.773  1.00  0.00    -0.287 OA
BRANCH  32  34
HETATM   34  C22 UNL     1      20.415  -8.809  11.855  1.00  0.00     0.052 C
HETATM   35  C23 UNL     1      19.350  -8.173  12.251  1.00  0.00    -0.023 C
BRANCH  35  36
HETATM   36  C24 UNL     1      18.743  -8.280  13.564  1.00  0.00     0.027 C
BRANCH  36  37
HETATM   37  C25 UNL     1      17.752  -7.255  13.955  1.00  0.00     0.007 C
BRANCH  37  38
HETATM   38  C26 UNL     1      17.993  -5.874  13.424  1.00  0.00    -0.023 C
HETATM   39  C27 UNL     1      16.895  -5.509  12.423  1.00  0.00     0.009 C
HETATM   40  C28 UNL     1      17.873  -4.936  14.639  1.00  0.00     0.009 C
ENDBRANCH  37  38
ENDBRANCH  36  37
ENDBRANCH  35  36
ENDBRANCH  32  34
ENDBRANCH  27  32
ENDBRANCH  22  27
ENDBRANCH  21  22
ENDBRANCH   1  20
BRANCH  18  41
HETATM   41  O9  UNL     1      20.585  -8.865   3.970  1.00  0.00    -0.385 OA
ATOM     42  H9  UNL     1      20.318  -8.156   3.397  1.00  0.00     0.210 HD
ENDBRANCH  18  41
BRANCH  17  43
HETATM   43  O8  UNL     1      22.478  -7.097   2.614  1.00  0.00    -0.392 OA
ATOM     44  H8  UNL     1      21.864  -7.597   2.090  1.00  0.00     0.210 HD
ENDBRANCH  17  43
BRANCH   7  45
HETATM   45  O5  UNL     1      27.522  -3.090   7.643  1.00  0.00    -0.359 OA
ATOM     46  H5  UNL     1      27.692  -2.202   7.349  1.00  0.00     0.217 HD
ENDBRANCH   7  45
TORSDOF 15
ENDMDL