MODEL 4
REMARK VINA RESULT: -6.091639995      1.060      1.405
REMARK  17 active torsions:
REMARK  status: ('A' for Active; 'I' for Inactive)
REMARK    1  A    between atoms: C2_2  and  O2_4
REMARK    2  A    between atoms: O2_4  and  C3_5
REMARK    3  A    between atoms: C4_6  and  C6_8
REMARK    4  A    between atoms: C6_8  and  O3_9
REMARK    5  A    between atoms: C8_13  and  C9_14
REMARK    6  A    between atoms: N1_15  and  O5_17
REMARK    7  A    between atoms: C12_22  and  O6_23
REMARK    8  A    between atoms: O6_23  and  C13_24
REMARK    9  A    between atoms: C13_24  and  C14_26
REMARK   10  A    between atoms: C22_34  and  C23_35
REMARK   11  A    between atoms: C23_35  and  C25_37
REMARK   12  A    between atoms: C25_37  and  C26_39
REMARK   13  A    between atoms: C26_39  and  O9_40
REMARK   14  A    between atoms: C26_39  and  N2_42
REMARK   15  A    between atoms: N2_42  and  C27_45
REMARK   16  A    between atoms: C27_45  and  C28_46
REMARK   17  A    between atoms: C28_46  and  N3_47
ROOT
HETATM    1  C3  UNL     1      23.400 -10.191   2.869  1.00  0.00     0.177 C
HETATM    2  C4  UNL     1      22.763 -11.088   1.874  1.00  0.00     0.106 C
HETATM    3  C5  UNL     1      23.587 -11.385   0.641  1.00  0.00     0.051 C
HETATM    4  O4  UNL     1      21.571 -10.608   1.372  1.00  0.00    -0.369 OA
HETATM    5  C7  UNL     1      21.412  -9.247   1.372  1.00  0.00     0.144 C
HETATM    6  C8  UNL     1      20.131  -9.044   0.552  1.00  0.00     0.057 C
HETATM    7  C10 UNL     1      18.944  -9.653   1.215  1.00  0.00     0.035 C
HETATM    8  C11 UNL     1      19.201 -10.089   2.639  1.00  0.00     0.113 C
HETATM    9 CL1  UNL     1      17.593 -10.275   3.384  1.00  0.00    -0.122 Cl
HETATM   10  C12 UNL     1      19.933  -8.883   3.311  1.00  0.00     0.162 C
HETATM   11  C18 UNL     1      21.302  -8.719   2.783  1.00  0.00     0.029 A
HETATM   12  C19 UNL     1      21.950  -7.364   2.932  1.00  0.00     0.005 A
HETATM   13  C20 UNL     1      21.399  -6.409   3.923  1.00  0.00     0.006 C
HETATM   14  C21 UNL     1      22.699  -5.809   4.508  1.00  0.00     0.006 C
HETATM   15  C22 UNL     1      23.280  -7.176   4.965  1.00  0.00     0.002 C
HETATM   16  C29 UNL     1      23.126  -7.941   3.747  1.00  0.00     0.007 A
HETATM   17  C30 UNL     1      22.454  -9.253   3.598  1.00  0.00     0.003 A
HETATM   18  C31 UNL     1      21.845  -9.862   4.867  1.00  0.00     0.019 C
ENDROOT
BRANCH  15  19
HETATM   19  C23 UNL     1      24.652  -6.784   5.446  1.00  0.00     0.060 C
HETATM   20  C24 UNL     1      25.598  -7.915   5.655  1.00  0.00     0.018 C
BRANCH  19  21
HETATM   21  C25 UNL     1      24.708  -5.801   6.519  1.00  0.00     0.186 C
HETATM   22  O8  UNL     1      24.049  -5.936   7.521  1.00  0.00    -0.293 OA
BRANCH  21  23
HETATM   23  C26 UNL     1      25.566  -4.598   6.434  1.00  0.00     0.389 C
BRANCH  23  24
HETATM   24  O9  UNL     1      25.613  -4.114   5.124  1.00  0.00    -0.364 OA
ATOM     25  H9  UNL     1      25.164  -3.279   5.057  1.00  0.00     0.212 HD
ENDBRANCH  23  24
BRANCH  23  26
HETATM   26  N2  UNL     1      26.900  -4.808   6.962  1.00  0.00    -0.040 N
ATOM     27  H22 UNL     1      27.266  -5.723   6.699  1.00  0.00     0.280 HD
ATOM     28  H21 UNL     1      27.585  -4.220   6.486  1.00  0.00     0.280 HD
BRANCH  26  29
HETATM   29  C27 UNL     1      26.942  -4.613   8.399  1.00  0.00     0.263 C
BRANCH  29  30
HETATM   30  C28 UNL     1      26.277  -3.328   8.812  1.00  0.00     0.257 C
BRANCH  30  31
HETATM   31  N3  UNL     1      26.110  -3.267  10.260  1.00  0.00    -0.078 N
ATOM     32  H33 UNL     1      25.611  -2.425  10.546  1.00  0.00     0.274 HD
ATOM     33  H32 UNL     1      25.442  -3.964  10.592  1.00  0.00     0.274 HD
ATOM     34  H31 UNL     1      27.008  -3.352  10.736  1.00  0.00     0.274 HD
ENDBRANCH  30  31
ENDBRANCH  29  30
ENDBRANCH  26  29
ENDBRANCH  23  26
ENDBRANCH  21  23
ENDBRANCH  19  21
ENDBRANCH  15  19
BRANCH   1  35
HETATM   35  O2  UNL     1      24.654  -9.692   2.615  1.00  0.00    -0.312 OA
BRANCH  35  36
HETATM   36  C2  UNL     1      25.900 -10.093   2.838  1.00  0.00     0.255 C
HETATM   37  C1  UNL     1      26.276 -11.093   3.875  1.00  0.00     0.126 C
HETATM   38  O1  UNL     1      26.719  -9.541   2.086  1.00  0.00    -0.266 OA
ENDBRANCH  35  36
ENDBRANCH   1  35
BRANCH  10  39
HETATM   39  O6  UNL     1      19.032  -7.832   2.913  1.00  0.00    -0.313 OA
BRANCH  39  40
HETATM   40  C13 UNL     1      18.307  -7.070   3.800  1.00  0.00     0.267 C
HETATM   41  O7  UNL     1      18.299  -7.445   4.993  1.00  0.00    -0.264 OA
BRANCH  40  42
HETATM   42  C14 UNL     1      17.552  -5.866   3.431  1.00  0.00     0.037 C
HETATM   43  C15 UNL     1      16.245  -6.254   2.736  1.00  0.00     0.025 C
HETATM   44  C16 UNL     1      17.155  -5.006   4.602  1.00  0.00     0.025 C
HETATM   45  C17 UNL     1      18.322  -4.993   2.449  1.00  0.00     0.025 C
ENDBRANCH  40  42
ENDBRANCH  39  40
ENDBRANCH  10  39
BRANCH   2  46
HETATM   46  C6  UNL     1      22.412 -12.468   2.424  1.00  0.00     0.204 C
BRANCH  46  47
HETATM   47  O3  UNL     1      23.307 -12.770   3.452  1.00  0.00    -0.398 OA
ATOM     48  H3  UNL     1      24.131 -12.337   3.266  1.00  0.00     0.209 HD
ENDBRANCH  46  47
ENDBRANCH   2  46
BRANCH   6  49
HETATM   49  C9  UNL     1      19.976  -7.692   0.022  1.00  0.00     0.094 C
HETATM   50  N1  UNL     1      20.196  -7.422  -1.225  1.00  0.00    -0.284 N
ATOM     51  H1  UNL     1      20.081  -6.470  -1.572  1.00  0.00     0.192 HD
BRANCH  50  52
HETATM   52  O5  UNL     1      20.585  -8.426  -2.080  1.00  0.00    -0.291 OA
ATOM     53  H5  UNL     1      19.939  -9.036  -2.414  1.00  0.00     0.244 HD
ENDBRANCH  50  52
ENDBRANCH   6  49
TORSDOF 17
ENDMDL