MODEL 2
REMARK VINA RESULT: -6.032048392      2.776      4.368
REMARK  1 active torsions:
REMARK  status: ('A' for Active; 'I' for Inactive)
REMARK    1  A    between atoms: N1_1  and  N2_4
ROOT
HETATM    1  N2  UNL     1      35.020  17.595 -16.972  1.00  0.00    -0.199 N
HETATM    2  C1  UNL     1      35.142  18.949 -16.836  1.00  0.00     0.201 A
HETATM    3  S1  UNL     1      33.960  19.918 -17.407  1.00  0.00    -0.038 SA
HETATM    4  N3  UNL     1      36.226  19.471 -16.238  1.00  0.00    -0.317 N
ATOM      5  H3  UNL     1      36.287  20.485 -16.152  1.00  0.00     0.170 HD
HETATM    6  C2  UNL     1      37.230  18.729 -15.749  1.00  0.00     0.126 A
HETATM    7  N4  UNL     1      38.312  19.252 -15.153  1.00  0.00    -0.309 N
ATOM      8  H4  UNL     1      38.370  20.267 -15.069  1.00  0.00     0.170 HD
HETATM    9  C3  UNL     1      39.325  18.516 -14.659  1.00  0.00     0.246 A
HETATM   10  O1  UNL     1      40.325  19.065 -14.103  1.00  0.00    -0.268 OA
HETATM   11  C4  UNL     1      39.249  17.143 -14.770  1.00  0.00     0.075 A
HETATM   12  C5  UNL     1      38.142  16.564 -15.384  1.00  0.00     0.026 A
HETATM   13  C6  UNL     1      37.116  17.340 -15.882  1.00  0.00     0.078 A
HETATM   14  C7  UNL     1      36.002  16.809 -16.496  1.00  0.00     0.282 A
HETATM   15  O2  UNL     1      35.903  15.564 -16.614  1.00  0.00    -0.265 OA
ENDROOT
BRANCH   1  16
HETATM   16  N1  UNL     1      33.890  17.053 -17.594  1.00  0.00    -0.333 N
ATOM     17  H12 UNL     1      32.952  17.212 -17.225  1.00  0.00     0.177 HD
ATOM     18  H11 UNL     1      33.993  16.486 -18.436  1.00  0.00     0.177 HD
ENDBRANCH   1  16
TORSDOF 1
ENDMDL