MODEL 4
REMARK VINA RESULT: -6.001831166      1.536      5.429
REMARK  2 active torsions:
REMARK  status: ('A' for Active; 'I' for Inactive)
REMARK    1  A    between atoms: N1_1  and  N2_4
REMARK       I    between atoms: N2_4  and  C1_6
REMARK       I    between atoms: C1_6  and  N3_8
REMARK    2  A    between atoms: C4_15  and  N6_16
ROOT
HETATM    1  N2  UNL     1      41.213  19.180 -14.146  1.00  0.00    -0.257 N
ATOM      2  H2  UNL     1      41.602  18.355 -13.689  1.00  0.00     0.191 HD
HETATM    3  C1  UNL     1      39.881  19.140 -14.617  1.00  0.00     0.350 C
HETATM    4  O1  UNL     1      39.476  20.219 -15.177  1.00  0.00    -0.244 OA
HETATM    5  N3  UNL     1      39.003  18.031 -14.512  1.00  0.00    -0.196 N
HETATM    6  C2  UNL     1      39.185  16.811 -13.979  1.00  0.00     0.351 A
HETATM    7  O2  UNL     1      40.228  16.391 -13.437  1.00  0.00    -0.244 OA
HETATM    8  N4  UNL     1      38.029  16.092 -14.125  1.00  0.00    -0.243 N
ATOM      9  H4  UNL     1      37.874  15.133 -13.814  1.00  0.00     0.192 HD
HETATM   10  N5  UNL     1      37.151  16.862 -14.740  1.00  0.00    -0.244 N
HETATM   11  C3  UNL     1      35.873  16.893 -15.218  1.00  0.00     0.154 A
HETATM   12  C4  UNL     1      35.623  18.125 -15.780  1.00  0.00     0.124 A
HETATM   13  C5  UNL     1      36.798  18.830 -15.622  1.00  0.00     0.088 A
HETATM   14  C6  UNL     1      37.732  18.045 -14.982  1.00  0.00     0.144 A
ENDROOT
BRANCH   1  15
HETATM   15  N1  UNL     1      42.010  20.316 -14.291  1.00  0.00    -0.341 N
ATOM     16  H12 UNL     1      41.913  21.062 -13.601  1.00  0.00     0.177 HD
ATOM     17  H11 UNL     1      42.675  20.413 -15.059  1.00  0.00     0.177 HD
ENDBRANCH   1  15
BRANCH  12  18
HETATM   18  N6  UNL     1      34.414  18.553 -16.385  1.00  0.00    -0.114 N
HETATM   19  O3  UNL     1      33.920  18.005 -17.386  1.00  0.00    -0.532 OA
HETATM   20  O4  UNL     1      33.744  19.623 -15.853  1.00  0.00    -0.532 OA
ENDBRANCH  12  18
TORSDOF 2
ENDMDL