MODEL 1
REMARK VINA RESULT: -5.688309696      0.000      0.000
REMARK  2 active torsions:
REMARK  status: ('A' for Active; 'I' for Inactive)
REMARK    1  A    between atoms: N1_1  and  C1_4
REMARK    2  A    between atoms: C3_9  and  N4_10
ROOT
HETATM    1  C1  UNL     1      38.455  16.412 -14.599  1.00  0.00     0.107 C
HETATM    2  N2  UNL     1      37.193  16.014 -14.784  1.00  0.00    -0.329 N
ATOM      3  H2  UNL     1      36.962  15.108 -14.377  1.00  0.00     0.168 HD
HETATM    4  C2  UNL     1      36.180  16.624 -15.425  1.00  0.00     0.155 C
HETATM    5  N3  UNL     1      35.105  15.822 -15.888  1.00  0.00    -0.080 NA
HETATM    6  C3  UNL     1      36.024  17.970 -15.714  1.00  0.00     0.194 C
HETATM    7  C4  UNL     1      37.018  18.938 -15.691  1.00  0.00     0.222 C
HETATM    8  O3  UNL     1      36.704  20.102 -16.014  1.00  0.00    -0.285 OA
HETATM    9  C5  UNL     1      38.348  18.785 -15.349  1.00  0.00     0.073 C
HETATM   10  C6  UNL     1      39.011  17.618 -15.034  1.00  0.00     0.011 C
HETATM   11  C7  UNL     1      40.294  18.264 -15.354  1.00  0.00     0.127 C
HETATM   12  C8  UNL     1      39.585  19.532 -15.150  1.00  0.00     0.168 C
HETATM   13  O4  UNL     1      39.911  20.725 -14.910  1.00  0.00    -0.292 OA
ENDROOT
BRANCH   1  14
HETATM   14  N1  UNL     1      39.256  15.612 -13.956  1.00  0.00    -0.385 N
ATOM     15  H12 UNL     1      39.343  14.668 -14.333  1.00  0.00     0.157 HD
ATOM     16  H11 UNL     1      39.734  15.979 -13.132  1.00  0.00     0.157 HD
ENDBRANCH   1  14
BRANCH   6  17
HETATM   17  N4  UNL     1      34.727  18.402 -16.064  1.00  0.00    -0.108 N
HETATM   18  O1  UNL     1      33.945  18.865 -15.226  1.00  0.00    -0.532 OA
HETATM   19  O2  UNL     1      34.322  18.306 -17.364  1.00  0.00    -0.532 OA
ENDBRANCH   6  17
TORSDOF 2
ENDMDL