MODEL 4
REMARK VINA RESULT: -5.905422006      2.255      3.214
REMARK  3 active torsions:
REMARK  status: ('A' for Active; 'I' for Inactive)
REMARK    1  A    between atoms: N1_1  and  C1_4
REMARK    2  A    between atoms: C4_7  and  N2_8
REMARK    3  A    between atoms: N4_18  and  N5_19
ROOT
HETATM    1  C1  UNL     1      39.603  16.078 -14.274  1.00  0.00     0.138 A
HETATM    2  C2  UNL     1      38.612  16.898 -14.787  1.00  0.00     0.039 A
HETATM    3  C3  UNL     1      37.417  16.411 -15.274  1.00  0.00     0.053 A
HETATM    4  C4  UNL     1      36.418  17.233 -15.790  1.00  0.00     0.103 A
HETATM    5  C5  UNL     1      36.686  18.586 -15.791  1.00  0.00     0.038 A
HETATM    6  C6  UNL     1      37.873  19.084 -15.309  1.00  0.00     0.033 A
HETATM    7  C7  UNL     1      38.858  18.251 -14.797  1.00  0.00     0.050 A
HETATM    8  N3  UNL     1      40.022  18.733 -14.325  1.00  0.00    -0.306 N
ATOM      9  H3  UNL     1      40.189  19.740 -14.341  1.00  0.00     0.171 HD
HETATM   10  C8  UNL     1      40.974  17.912 -13.828  1.00  0.00     0.347 A
HETATM   11  O3  UNL     1      42.028  18.457 -13.409  1.00  0.00    -0.245 OA
HETATM   12  N4  UNL     1      40.761  16.585 -13.806  1.00  0.00    -0.195 N
ENDROOT
BRANCH   1  13
HETATM   13  N1  UNL     1      39.452  14.830 -14.230  1.00  0.00    -0.383 N
ATOM     14  H12 UNL     1      39.996  14.312 -13.539  1.00  0.00     0.157 HD
ATOM     15  H11 UNL     1      38.809  14.355 -14.863  1.00  0.00     0.157 HD
ENDBRANCH   1  13
BRANCH  12  16
HETATM   16  N5  UNL     1      41.793  15.803 -13.278  1.00  0.00    -0.333 N
ATOM     17  H52 UNL     1      42.018  15.957 -12.295  1.00  0.00     0.177 HD
ATOM     18  H51 UNL     1      42.311  15.110 -13.819  1.00  0.00     0.177 HD
ENDBRANCH  12  16
BRANCH   4  19
HETATM   19  N2  UNL     1      35.199  16.716 -16.285  1.00  0.00    -0.116 N
HETATM   20  O1  UNL     1      34.982  15.499 -16.149  1.00  0.00    -0.532 OA
HETATM   21  O2  UNL     1      34.246  17.470 -16.900  1.00  0.00    -0.532 OA
ENDBRANCH   4  19
TORSDOF 3
ENDMDL