MODEL 4
REMARK VINA RESULT: -5.449748014      1.292      1.297
REMARK  1 active torsions:
REMARK  status: ('A' for Active; 'I' for Inactive)
REMARK    1  A    between atoms: C1_2  and  N1_3
ROOT
HETATM    1  N1  UNL     1      36.707  17.437 -14.872  1.00  0.00    -0.223 N
HETATM    2  C2  UNL     1      36.823  18.621 -15.498  1.00  0.00     0.335 A
HETATM    3  O2  UNL     1      35.863  19.348 -15.892  1.00  0.00    -0.246 OA
HETATM    4  N2  UNL     1      38.128  18.926 -15.645  1.00  0.00    -0.302 N
ATOM      5  H2  UNL     1      38.495  19.769 -16.087  1.00  0.00     0.171 HD
HETATM    6  C3  UNL     1      38.871  17.929 -15.111  1.00  0.00     0.120 A
HETATM    7  C4  UNL     1      40.212  17.672 -14.960  1.00  0.00     0.135 A
HETATM    8  S1  UNL     1      41.269  18.773 -15.533  1.00  0.00    -0.058 SA
HETATM    9  N3  UNL     1      40.682  16.560 -14.367  1.00  0.00    -0.297 N
ATOM     10  H3  UNL     1      41.685  16.399 -14.271  1.00  0.00     0.171 HD
HETATM   11  C5  UNL     1      39.787  15.667 -13.903  1.00  0.00     0.327 A
HETATM   12  O3  UNL     1      40.142  14.599 -13.335  1.00  0.00    -0.247 OA
HETATM   13  N4  UNL     1      38.470  15.894 -14.037  1.00  0.00    -0.292 N
ATOM     14  H4  UNL     1      37.817  15.198 -13.675  1.00  0.00     0.172 HD
HETATM   15  C6  UNL     1      37.967  17.003 -14.630  1.00  0.00     0.152 A
ENDROOT
BRANCH   1  16
HETATM   16  C1  UNL     1      35.542  16.725 -14.507  1.00  0.00     0.365 C
HETATM   17  O1  UNL     1      35.407  16.340 -13.324  1.00  0.00    -0.283 OA
ENDBRANCH   1  16
TORSDOF 1
ENDMDL