MODEL 2
REMARK VINA RESULT: -4.350280251      1.817      4.350
REMARK  1 active torsions:
REMARK  status: ('A' for Active; 'I' for Inactive)
REMARK    1  A    between atoms: C6_14  and  N5_15
ROOT
HETATM    1  C1  UNL     1      41.427  16.927 -14.202  1.00  0.00     0.161 C
HETATM    2  N1  UNL     1      40.025  17.079 -14.460  1.00  0.00    -0.299 N
HETATM    3  C2  UNL     1      39.233  15.987 -14.235  1.00  0.00     0.329 A
HETATM    4  O1  UNL     1      39.792  14.927 -13.843  1.00  0.00    -0.246 OA
HETATM    5  N2  UNL     1      37.916  16.082 -14.433  1.00  0.00    -0.273 N
ATOM      6  H2  UNL     1      37.335  15.262 -14.262  1.00  0.00     0.173 HD
HETATM    7  C3  UNL     1      37.325  17.215 -14.849  1.00  0.00     0.278 A
HETATM    8  O2  UNL     1      36.076  17.309 -15.040  1.00  0.00    -0.265 OA
HETATM    9  C4  UNL     1      38.088  18.328 -15.083  1.00  0.00     0.132 A
HETATM   10  N3  UNL     1      37.830  19.571 -15.478  1.00  0.00    -0.336 N
ATOM     11  H3  UNL     1      36.897  19.919 -15.699  1.00  0.00     0.167 HD
HETATM   12  C5  UNL     1      38.937  20.304 -15.550  1.00  0.00     0.152 A
HETATM   13  N4  UNL     1      39.114  21.664 -15.924  1.00  0.00    -0.080 NA
HETATM   14  C6  UNL     1      39.990  19.460 -15.170  1.00  0.00     0.173 A
HETATM   15  C7  UNL     1      39.467  18.238 -14.880  1.00  0.00     0.107 A
ENDROOT
BRANCH  14  16
HETATM   16  N5  UNL     1      41.353  19.872 -15.162  1.00  0.00    -0.110 N
HETATM   17  O3  UNL     1      42.028  19.888 -16.211  1.00  0.00    -0.532 OA
HETATM   18  O4  UNL     1      41.928  20.254 -13.980  1.00  0.00    -0.532 OA
ENDBRANCH  14  16
TORSDOF 1
ENDMDL