MODEL 1
REMARK VINA RESULT: -5.426135293      0.000      0.000
REMARK  2 active torsions:
REMARK  status: ('A' for Active; 'I' for Inactive)
REMARK    1  A    between atoms: N2_3  and  C2_5
REMARK    2  A    between atoms: C4_11  and  C5_12
ROOT
HETATM    1  N1  UNL     1      32.229  20.814 -18.741  1.00  0.00    -0.172 NA
HETATM    2  C1  UNL     1      32.759  20.447 -17.755  1.00  0.00     0.183 C
HETATM    3  N2  UNL     1      33.378  19.996 -16.586  1.00  0.00    -0.276 N
ATOM      4  H2  UNL     1      33.344  20.548 -15.729  1.00  0.00     0.179 HD
ENDROOT
BRANCH   3   5
HETATM    5  C2  UNL     1      34.012  18.827 -16.624  1.00  0.00     0.172 A
HETATM    6  N3  UNL     1      33.829  18.015 -17.672  1.00  0.00    -0.307 N
HETATM    7  S1  UNL     1      34.642  16.554 -17.683  1.00  0.00     0.003 SA
ATOM      8  H3  UNL     1      33.212  18.279 -18.440  1.00  0.00     0.176 HD
HETATM    9  C3  UNL     1      35.621  16.298 -16.315  1.00  0.00     0.120 A
HETATM   10  N4  UNL     1      36.416  15.146 -16.072  1.00  0.00    -0.092 NA
HETATM   11  C4  UNL     1      35.573  17.355 -15.420  1.00  0.00     0.086 A
HETATM   12  C6  UNL     1      34.836  18.493 -15.582  1.00  0.00     0.232 A
HETATM   13  O1  UNL     1      34.931  19.352 -14.636  1.00  0.00    -0.283 OA
BRANCH  11  14
HETATM   14  C5  UNL     1      36.413  17.175 -14.210  1.00  0.00     0.129 C
HETATM   15  N5  UNL     1      35.785  16.792 -13.003  1.00  0.00    -0.089 NA
HETATM   16  S2  UNL     1      38.016  17.430 -14.355  1.00  0.00    -0.063 SA
ENDBRANCH  11  14
ENDBRANCH   3   5
TORSDOF 2
ENDMDL