MODEL 5
REMARK VINA RESULT: -5.949726317      2.443      5.837
REMARK  2 active torsions:
REMARK  status: ('A' for Active; 'I' for Inactive)
REMARK    1  A    between atoms: N1_1  and  N2_4
REMARK    2  A    between atoms: N3_6  and  C1_8
ROOT
HETATM    1  C1  UNL     1      38.308  16.951 -14.259  1.00  0.00     0.141 A
HETATM    2  C2  UNL     1      36.938  17.064 -14.102  1.00  0.00     0.156 A
HETATM    3  N4  UNL     1      36.313  16.193 -13.166  1.00  0.00    -0.079 NA
HETATM    4  N5  UNL     1      36.174  17.931 -14.767  1.00  0.00    -0.294 N
HETATM    5  C3  UNL     1      34.825  18.005 -14.577  1.00  0.00     0.105 A
HETATM    6  C4  UNL     1      34.035  18.896 -15.260  1.00  0.00     0.092 A
HETATM    7  C5  UNL     1      34.647  19.738 -16.166  1.00  0.00     0.248 A
HETATM    8  O1  UNL     1      33.935  20.557 -16.797  1.00  0.00    -0.268 OA
HETATM    9  N6  UNL     1      35.977  19.641 -16.331  1.00  0.00    -0.309 N
ATOM     10  H6  UNL     1      36.429  20.264 -17.001  1.00  0.00     0.170 HD
HETATM   11  C6  UNL     1      36.745  18.763 -15.657  1.00  0.00     0.119 A
HETATM   12  C7  UNL     1      38.126  18.702 -15.865  1.00  0.00     0.106 A
HETATM   13  C8  UNL     1      38.900  17.798 -15.167  1.00  0.00     0.206 A
HETATM   14  O2  UNL     1      40.143  17.726 -15.339  1.00  0.00    -0.286 OA
ENDROOT
BRANCH   1  15
HETATM   15  N3  UNL     1      39.053  15.993 -13.505  1.00  0.00    -0.280 N
HETATM   16  N2  UNL     1      39.381  14.930 -14.077  1.00  0.00    -0.249 N
ATOM     17  H2  UNL     1      39.100  14.802 -15.049  1.00  0.00     0.207 HD
ATOM     18  H3  UNL     1      39.310  16.170 -12.534  1.00  0.00     0.188 HD
BRANCH  16  19
HETATM   19  N1  UNL     1      40.108  13.906 -13.464  1.00  0.00    -0.331 N
ATOM     20  H12 UNL     1      40.217  13.038 -13.988  1.00  0.00     0.178 HD
ATOM     21  H11 UNL     1      40.527  13.983 -12.538  1.00  0.00     0.178 HD
ENDBRANCH  16  19
ENDBRANCH   1  15
TORSDOF 2
ENDMDL