MODEL 2
REMARK VINA RESULT: -5.796849454      1.751      5.947
REMARK  4 active torsions:
REMARK  status: ('A' for Active; 'I' for Inactive)
REMARK    1  A    between atoms: C1_2  and  O2_3
REMARK    2  A    between atoms: O2_3  and  C2_4
REMARK       I    between atoms: C2_4  and  N1_6
REMARK    3  A    between atoms: N2_8  and  C3_10
REMARK    4  A    between atoms: C4_11  and  O4_12
ROOT
HETATM    1  C3  UNL     1      36.648  17.310 -15.718  1.00  0.00     0.168 A
HETATM    2  C4  UNL     1      36.744  18.683 -15.827  1.00  0.00     0.178 A
HETATM    3  N3  UNL     1      35.673  19.378 -16.247  1.00  0.00    -0.287 N
ATOM      4  H3  UNL     1      35.760  20.391 -16.322  1.00  0.00     0.172 HD
HETATM    5  C5  UNL     1      34.500  18.825 -16.573  1.00  0.00     0.329 A
HETATM    6  O5  UNL     1      33.499  19.492 -16.967  1.00  0.00    -0.247 OA
HETATM    7  N4  UNL     1      34.381  17.476 -16.474  1.00  0.00    -0.273 N
ATOM      8  H4  UNL     1      33.501  17.021 -16.715  1.00  0.00     0.173 HD
HETATM    9  C6  UNL     1      35.431  16.739 -16.057  1.00  0.00     0.281 A
HETATM   10  O6  UNL     1      35.324  15.491 -15.965  1.00  0.00    -0.265 OA
ENDROOT
BRANCH   1  11
HETATM   11  N2  UNL     1      37.706  16.476 -15.288  1.00  0.00    -0.288 N
HETATM   12  N1  UNL     1      38.529  16.807 -14.382  1.00  0.00    -0.244 N
HETATM   13  C2  UNL     1      39.587  15.983 -13.946  1.00  0.00     0.386 C
ATOM     14  H1  UNL     1      38.418  17.721 -13.943  1.00  0.00     0.192 HD
HETATM   15  O3  UNL     1      39.477  14.763 -13.660  1.00  0.00    -0.236 OA
ATOM     16  H2  UNL     1      37.814  15.563 -15.730  1.00  0.00     0.187 HD
BRANCH  13  17
HETATM   17  O2  UNL     1      40.852  16.540 -13.816  1.00  0.00    -0.234 OA
BRANCH  17  18
HETATM   18  C1  UNL     1      41.071  17.846 -13.419  1.00  0.00     0.408 C
HETATM   19  O1  UNL     1      40.533  18.775 -14.040  1.00  0.00    -0.275 OA
ENDBRANCH  17  18
ENDBRANCH  13  17
ENDBRANCH   1  11
BRANCH   2  20
HETATM   20  O4  UNL     1      37.929  19.301 -15.503  1.00  0.00    -0.344 OA
ATOM     21  H4  UNL     1      37.914  20.073 -14.949  1.00  0.00     0.219 HD
ENDBRANCH   2  20
TORSDOF 4
ENDMDL