MODEL 4
REMARK VINA RESULT: -5.618109643      2.663      3.686
REMARK  4 active torsions:
REMARK  status: ('A' for Active; 'I' for Inactive)
REMARK    1  A    between atoms: N1_1  and  C1_4
REMARK    2  A    between atoms: C6_11  and  C7_12
REMARK    3  A    between atoms: C7_12  and  O2_14
REMARK    4  A    between atoms: O2_14  and  N3_15
ROOT
HETATM    1  C1  UNL     1      41.250  16.428 -13.073  1.00  0.00     0.169 A
HETATM    2  N2  UNL     1      41.631  17.713 -13.180  1.00  0.00    -0.346 N
ATOM      3  H2  UNL     1      42.508  18.035 -12.773  1.00  0.00     0.167 HD
HETATM    4  C2  UNL     1      40.824  18.564 -13.839  1.00  0.00     0.119 A
HETATM    5  C3  UNL     1      39.635  18.122 -14.389  1.00  0.00     0.057 A
HETATM    6  C4  UNL     1      38.825  19.025 -15.061  1.00  0.00     0.032 A
HETATM    7  C5  UNL     1      37.641  18.574 -15.608  1.00  0.00     0.021 A
HETATM    8  C6  UNL     1      37.234  17.264 -15.509  1.00  0.00     0.057 A
HETATM    9  C8  UNL     1      38.076  16.403 -14.829  1.00  0.00     0.118 A
HETATM   10  N4  UNL     1      39.234  16.840 -14.294  1.00  0.00    -0.284 N
HETATM   11  C9  UNL     1      40.063  15.992 -13.625  1.00  0.00     0.295 A
HETATM   12  O3  UNL     1      39.705  14.791 -13.526  1.00  0.00    -0.263 OA
ENDROOT
BRANCH   8  13
HETATM   13  C7  UNL     1      35.976  16.818 -16.097  1.00  0.00     0.316 C
HETATM   14  O1  UNL     1      35.655  15.615 -16.110  1.00  0.00    -0.257 OA
BRANCH  13  15
HETATM   15  O2  UNL     1      35.126  17.757 -16.648  1.00  0.00    -0.202 OA
BRANCH  15  16
HETATM   16  N3  UNL     1      34.752  17.628 -17.968  1.00  0.00    -0.302 N
ATOM     17  H32 UNL     1      35.122  18.277 -18.661  1.00  0.00     0.184 HD
ATOM     18  H31 UNL     1      34.109  16.881 -18.230  1.00  0.00     0.184 HD
ENDBRANCH  15  16
ENDBRANCH  13  15
ENDBRANCH   8  13
BRANCH   1  19
HETATM   19  N1  UNL     1      42.026  15.608 -12.441  1.00  0.00    -0.381 N
ATOM     20  H12 UNL     1      42.913  15.310 -12.847  1.00  0.00     0.157 HD
ATOM     21  H11 UNL     1      41.729  15.267 -11.526  1.00  0.00     0.157 HD
ENDBRANCH   1  19
TORSDOF 4
ENDMDL