MODEL 5
REMARK VINA RESULT: -5.468518682      1.357      2.895
REMARK  0 active torsions:
REMARK  status: ('A' for Active; 'I' for Inactive)
REMARK       I    between atoms: C3_6  and  N2_7
ROOT
HETATM    1  O1  UNL     1     -41.302 -20.634 -16.955  1.00  0.00    -0.271 OA
HETATM    2  C1  UNL     1     -40.844 -19.893 -16.030  1.00  0.00     0.243 C
HETATM    3  C2  UNL     1     -39.575 -20.315 -15.382  1.00  0.00     0.241 C
HETATM    4  N1  UNL     1     -38.609 -19.273 -15.274  1.00  0.00    -0.217 N
ATOM      5  H1  UNL     1     -37.664 -19.599 -15.478  1.00  0.00     0.178 HD
HETATM    6  C3  UNL     1     -38.638 -18.019 -14.980  1.00  0.00     0.680 C
HETATM    7  N2  UNL     1     -37.385 -17.332 -14.994  1.00  0.00    -0.215 N
HETATM    8  C4  UNL     1     -36.554 -17.263 -16.192  1.00  0.00     0.160 C
HETATM    9  C5  UNL     1     -35.249 -17.952 -15.875  1.00  0.00     0.134 C
HETATM   10  N3  UNL     1     -34.751 -17.679 -14.570  1.00  0.00    -0.418 N
ATOM     11  H3  UNL     1     -34.016 -18.241 -14.139  1.00  0.00     0.153 HD
HETATM   12  C6  UNL     1     -35.347 -16.565 -13.906  1.00  0.00     0.134 C
HETATM   13  C7  UNL     1     -36.858 -16.661 -13.818  1.00  0.00     0.160 C
HETATM   14  N4  UNL     1     -39.800 -17.268 -14.649  1.00  0.00    -0.141 N
ATOM     15  H4  UNL     1     -39.648 -16.421 -14.099  1.00  0.00     0.189 HD
HETATM   16  C8  UNL     1     -41.166 -17.563 -14.998  1.00  0.00     0.341 C
HETATM   17  O2  UNL     1     -42.023 -16.743 -14.646  1.00  0.00    -0.246 OA
HETATM   18  N5  UNL     1     -41.615 -18.726 -15.719  1.00  0.00    -0.277 N
ATOM     19  H5  UNL     1     -42.582 -18.717 -16.042  1.00  0.00     0.173 HD
ENDROOT
TORSDOF 0
ENDMDL