MODEL 5
REMARK VINA RESULT: -5.243196057      1.573      2.901
REMARK  3 active torsions:
REMARK  status: ('A' for Active; 'I' for Inactive)
REMARK    1  A    between atoms: N1_1  and  C1_4
REMARK    2  A    between atoms: C5_14  and  S1_15
REMARK    3  A    between atoms: S1_15  and  N4_16
ROOT
HETATM    1  C1  UNL     1     -37.197 -16.408 -15.095  1.00  0.00     0.126 C
HETATM    2  N2  UNL     1     -36.177 -15.845 -15.793  1.00  0.00    -0.293 N
ATOM      3  H2  UNL     1     -36.126 -14.827 -15.776  1.00  0.00     0.172 HD
HETATM    4  C2  UNL     1     -35.212 -16.488 -16.515  1.00  0.00     0.328 C
HETATM    5  O1  UNL     1     -34.531 -15.730 -17.247  1.00  0.00    -0.247 OA
HETATM    6  N3  UNL     1     -34.897 -17.796 -16.549  1.00  0.00    -0.275 N
ATOM      7  H3  UNL     1     -33.998 -18.033 -16.969  1.00  0.00     0.173 HD
HETATM    8  C3  UNL     1     -35.633 -18.831 -16.091  1.00  0.00     0.250 C
HETATM    9  O2  UNL     1     -35.150 -19.991 -16.253  1.00  0.00    -0.268 OA
HETATM   10  C4  UNL     1     -36.861 -18.819 -15.460  1.00  0.00     0.103 C
HETATM   11  C5  UNL     1     -37.618 -17.724 -15.091  1.00  0.00     0.128 C
ENDROOT
BRANCH  11  12
HETATM   12  S1  UNL     1     -39.254 -17.966 -14.565  1.00  0.00     0.260 S
HETATM   13  O3  UNL     1     -39.577 -19.427 -14.714  1.00  0.00    -0.201 OA
HETATM   14  O4  UNL     1     -39.450 -17.618 -13.119  1.00  0.00    -0.201 OA
BRANCH  12  15
HETATM   15  N4  UNL     1     -40.381 -17.096 -15.538  1.00  0.00    -0.324 N
ATOM     16  H42 UNL     1     -40.681 -16.144 -15.328  1.00  0.00     0.169 HD
ATOM     17  H41 UNL     1     -40.703 -17.646 -16.335  1.00  0.00     0.169 HD
ENDBRANCH  12  15
ENDBRANCH  11  12
BRANCH   1  18
HETATM   18  N1  UNL     1     -37.889 -15.644 -14.319  1.00  0.00    -0.384 N
ATOM     19  H12 UNL     1     -38.114 -16.071 -13.421  1.00  0.00     0.157 HD
ATOM     20  H11 UNL     1     -38.138 -14.717 -14.665  1.00  0.00     0.157 HD
ENDBRANCH   1  18
TORSDOF 3
ENDMDL