MODEL 1
REMARK VINA RESULT: -6.523780638      0.000      0.000
REMARK  1 active torsions:
REMARK  status: ('A' for Active; 'I' for Inactive)
REMARK    1  A    between atoms: C1_2  and  C2_4
ROOT
HETATM    1  C2  UNL     1     -36.443 -17.237 -15.553  1.00  0.00     0.173 A
HETATM    2  N2  UNL     1     -37.187 -16.254 -14.972  1.00  0.00    -0.332 N
ATOM      3  H2  UNL     1     -36.880 -15.292 -14.829  1.00  0.00     0.168 HD
HETATM    4  C3  UNL     1     -38.386 -16.745 -14.615  1.00  0.00     0.135 A
HETATM    5  C4  UNL     1     -39.397 -16.024 -13.997  1.00  0.00     0.278 C
HETATM    6  O2  UNL     1     -39.260 -14.774 -14.000  1.00  0.00    -0.265 OA
HETATM    7  N3  UNL     1     -40.506 -16.484 -13.395  1.00  0.00    -0.273 N
ATOM      8  H3  UNL     1     -41.076 -15.793 -12.908  1.00  0.00     0.173 HD
HETATM    9  C5  UNL     1     -40.952 -17.761 -13.363  1.00  0.00     0.330 C
HETATM   10  O3  UNL     1     -41.967 -17.895 -12.631  1.00  0.00    -0.246 OA
HETATM   11  N4  UNL     1     -40.471 -18.860 -13.986  1.00  0.00    -0.273 N
ATOM     12  H4  UNL     1     -40.977 -19.728 -13.807  1.00  0.00     0.173 HD
HETATM   13  C6  UNL     1     -39.412 -18.962 -14.812  1.00  0.00     0.278 C
HETATM   14  O4  UNL     1     -39.335 -19.998 -15.538  1.00  0.00    -0.265 OA
HETATM   15  C7  UNL     1     -38.362 -18.087 -14.999  1.00  0.00     0.135 A
HETATM   16  N5  UNL     1     -37.174 -18.365 -15.567  1.00  0.00    -0.332 N
ATOM     17  H5  UNL     1     -36.882 -19.268 -15.940  1.00  0.00     0.168 HD
ENDROOT
BRANCH   1  18
HETATM   18  C1  UNL     1     -35.088 -17.034 -16.053  1.00  0.00     0.298 C
HETATM   19  N1  UNL     1     -34.736 -15.880 -16.799  1.00  0.00    -0.054 NA
HETATM   20  O1  UNL     1     -34.238 -17.932 -15.793  1.00  0.00    -0.268 OA
ENDBRANCH   1  18
TORSDOF 1
ENDMDL