MODEL 4
REMARK VINA RESULT: -6.111953501      3.844      4.718
REMARK  0 active torsions:
REMARK  status: ('A' for Active; 'I' for Inactive)
ROOT
HETATM    1  O1  UNL     1     -40.873 -20.317 -15.211  1.00  0.00    -0.247 OA
HETATM    2  C1  UNL     1     -40.068 -19.381 -14.942  1.00  0.00     0.328 A
HETATM    3  N1  UNL     1     -38.840 -19.385 -15.476  1.00  0.00    -0.293 N
ATOM      4  H1  UNL     1     -38.578 -20.152 -16.094  1.00  0.00     0.172 HD
HETATM    5  C2  UNL     1     -37.926 -18.406 -15.227  1.00  0.00     0.137 A
HETATM    6  C3  UNL     1     -38.246 -17.361 -14.402  1.00  0.00     0.093 A
HETATM    7  C4  UNL     1     -39.535 -17.379 -13.855  1.00  0.00     0.264 A
HETATM    8  O2  UNL     1     -39.932 -16.468 -13.084  1.00  0.00    -0.267 OA
HETATM    9  N2  UNL     1     -40.405 -18.365 -14.128  1.00  0.00    -0.275 N
ATOM     10  H2  UNL     1     -41.336 -18.343 -13.712  1.00  0.00     0.173 HD
HETATM   11  C5  UNL     1     -37.409 -16.232 -14.020  1.00  0.00     0.122 C
HETATM   12  N3  UNL     1     -36.040 -16.267 -14.353  1.00  0.00    -0.277 N
ATOM     13  H3  UNL     1     -35.316 -15.855 -13.764  1.00  0.00     0.179 HD
HETATM   14  S1  UNL     1     -35.694 -17.063 -15.839  1.00  0.00     0.324 S
HETATM   15  O3  UNL     1     -34.233 -17.352 -15.897  1.00  0.00    -0.182 OA
HETATM   16  O4  UNL     1     -36.148 -16.173 -16.969  1.00  0.00    -0.182 OA
HETATM   17  N4  UNL     1     -36.649 -18.500 -15.840  1.00  0.00    -0.252 N
ATOM     18  H4  UNL     1     -36.316 -19.368 -16.257  1.00  0.00     0.182 HD
ENDROOT
TORSDOF 0
ENDMDL