MODEL 1
REMARK VINA RESULT: -7.113854364      0.000      0.000
REMARK  2 active torsions:
REMARK  status: ('A' for Active; 'I' for Inactive)
REMARK    1  A    between atoms: C3_6  and  N2_7
REMARK    2  A    between atoms: N2_7  and  N3_9
ROOT
HETATM    1  N3  UNL     1     -35.844 -16.648 -16.730  1.00  0.00    -0.278 N
ATOM      2  H3  UNL     1     -36.118 -16.284 -17.642  1.00  0.00     0.189 HD
HETATM    3  C4  UNL     1     -35.016 -17.648 -16.644  1.00  0.00     0.192 A
HETATM    4  N4  UNL     1     -34.388 -18.362 -17.700  1.00  0.00    -0.314 N
ATOM      5  H4  UNL     1     -34.518 -18.165 -18.692  1.00  0.00     0.170 HD
HETATM    6  C5  UNL     1     -33.550 -19.390 -17.179  1.00  0.00     0.180 A
HETATM    7  S1  UNL     1     -32.638 -20.455 -18.028  1.00  0.00    -0.040 SA
HETATM    8  N5  UNL     1     -33.637 -19.342 -15.755  1.00  0.00    -0.297 N
ATOM      9  H5  UNL     1     -33.150 -19.954 -15.100  1.00  0.00     0.171 HD
HETATM   10  C6  UNL     1     -34.527 -18.284 -15.414  1.00  0.00     0.293 A
HETATM   11  O2  UNL     1     -34.819 -17.980 -14.228  1.00  0.00    -0.264 OA
ENDROOT
BRANCH   1  12
HETATM   12  N2  UNL     1     -36.350 -16.085 -15.574  1.00  0.00    -0.269 N
ATOM     13  H2  UNL     1     -35.816 -15.353 -15.103  1.00  0.00     0.190 HD
BRANCH  12  14
HETATM   14  C3  UNL     1     -37.602 -16.499 -15.021  1.00  0.00     0.197 A
HETATM   15  N1  UNL     1     -38.461 -15.744 -14.459  1.00  0.00    -0.352 N
HETATM   16  C2  UNL     1     -39.624 -16.451 -14.002  1.00  0.00     0.225 A
ATOM     17  H1  UNL     1     -38.335 -14.738 -14.347  1.00  0.00     0.163 HD
HETATM   18  C1  UNL     1     -39.345 -17.850 -14.387  1.00  0.00     0.242 A
HETATM   19  O1  UNL     1     -40.084 -18.864 -14.195  1.00  0.00    -0.271 OA
HETATM   20  N6  UNL     1     -38.077 -17.848 -15.020  1.00  0.00    -0.296 N
ATOM     21  H6  UNL     1     -37.592 -18.659 -15.405  1.00  0.00     0.172 HD
ENDBRANCH  12  14
ENDBRANCH   1  12
TORSDOF 2
ENDMDL