MODEL 3
REMARK VINA RESULT: -7.417774369      1.579      2.215
REMARK  2 active torsions:
REMARK  status: ('A' for Active; 'I' for Inactive)
REMARK    1  A    between atoms: C4_8  and  N2_9
REMARK    2  A    between atoms: N2_9  and  C5_11
ROOT
HETATM    1  N2  UNL     1     -35.813 -16.820 -14.580  1.00  0.00    -0.199 N
ATOM      2  H2  UNL     1     -35.337 -15.922 -14.673  1.00  0.00     0.183 HD
ENDROOT
BRANCH   1   3
HETATM    3  C4  UNL     1     -35.080 -18.026 -14.504  1.00  0.00     0.141 C
HETATM    4  C3  UNL     1     -34.457 -18.453 -15.616  1.00  0.00     0.121 A
HETATM    5  C2  UNL     1     -34.440 -17.817 -16.919  1.00  0.00     0.277 A
HETATM    6  N5  UNL     1     -33.687 -19.635 -15.701  1.00  0.00    -0.303 N
HETATM    7  N1  UNL     1     -33.661 -18.612 -17.795  1.00  0.00    -0.274 N
HETATM    8  O2  UNL     1     -35.024 -16.740 -17.208  1.00  0.00    -0.266 OA
HETATM    9  C1  UNL     1     -33.208 -19.719 -17.035  1.00  0.00     0.327 A
ATOM     10  H1  UNL     1     -33.465 -18.425 -18.778  1.00  0.00     0.173 HD
HETATM   11  O1  UNL     1     -32.483 -20.668 -17.440  1.00  0.00    -0.247 OA
ATOM     12  H5  UNL     1     -33.509 -20.299 -14.949  1.00  0.00     0.171 HD
ENDBRANCH   1   3
BRANCH   1  13
HETATM   13  C5  UNL     1     -37.093 -16.885 -14.528  1.00  0.00     0.684 A
HETATM   14  N3  UNL     1     -37.811 -17.965 -14.874  1.00  0.00    -0.201 N
HETATM   15  C6  UNL     1     -39.146 -18.006 -14.810  1.00  0.00     0.111 A
ATOM     16  H3  UNL     1     -37.315 -18.794 -15.202  1.00  0.00     0.183 HD
HETATM   17  C7  UNL     1     -39.830 -16.901 -14.372  1.00  0.00     0.092 A
HETATM   18  C8  UNL     1     -39.103 -15.799 -14.019  1.00  0.00     0.260 A
HETATM   19  O3  UNL     1     -39.657 -14.749 -13.607  1.00  0.00    -0.268 OA
HETATM   20  N4  UNL     1     -37.761 -15.801 -14.099  1.00  0.00    -0.156 N
ATOM     21  H4  UNL     1     -37.241 -14.965 -13.829  1.00  0.00     0.187 HD
ENDBRANCH   1  13
TORSDOF 2
ENDMDL