MODEL 3
REMARK VINA RESULT: -6.599042094      1.404      1.412
REMARK  1 active torsions:
REMARK  status: ('A' for Active; 'I' for Inactive)
REMARK    1  A    between atoms: C1_2  and  C2_4
ROOT
HETATM    1  C2  UNL     1     -35.944 -18.026 -15.669  1.00  0.00     0.167 A
HETATM    2  N2  UNL     1     -37.069 -18.748 -15.548  1.00  0.00    -0.340 N
ATOM      3  H2  UNL     1     -37.080 -19.714 -15.875  1.00  0.00     0.166 HD
HETATM    4  C3  UNL     1     -38.183 -18.222 -15.002  1.00  0.00     0.146 A
HETATM    5  C4  UNL     1     -39.349 -18.949 -14.869  1.00  0.00     0.280 A
HETATM    6  O2  UNL     1     -39.424 -20.142 -15.255  1.00  0.00    -0.265 OA
HETATM    7  N3  UNL     1     -40.452 -18.409 -14.322  1.00  0.00    -0.273 N
ATOM      8  H3  UNL     1     -41.314 -18.946 -14.224  1.00  0.00     0.173 HD
HETATM    9  C5  UNL     1     -40.373 -17.127 -13.907  1.00  0.00     0.328 A
HETATM   10  O3  UNL     1     -41.380 -16.567 -13.384  1.00  0.00    -0.247 OA
HETATM   11  N4  UNL     1     -39.243 -16.400 -14.028  1.00  0.00    -0.292 N
ATOM     12  H4  UNL     1     -39.242 -15.436 -13.697  1.00  0.00     0.172 HD
HETATM   13  C6  UNL     1     -38.116 -16.900 -14.570  1.00  0.00     0.145 A
HETATM   14  N5  UNL     1     -36.987 -16.172 -14.690  1.00  0.00    -0.305 N
ATOM     15  H5  UNL     1     -36.975 -15.206 -14.362  1.00  0.00     0.170 HD
HETATM   16  C7  UNL     1     -35.878 -16.700 -15.236  1.00  0.00     0.279 A
HETATM   17  O4  UNL     1     -34.825 -16.030 -15.351  1.00  0.00    -0.265 OA
ENDROOT
BRANCH   1  18
HETATM   18  C1  UNL     1     -34.725 -18.570 -16.256  1.00  0.00     0.287 C
HETATM   19  N1  UNL     1     -33.769 -19.292 -15.497  1.00  0.00    -0.056 NA
HETATM   20  O1  UNL     1     -34.555 -18.364 -17.504  1.00  0.00    -0.269 OA
ENDBRANCH   1  18
TORSDOF 1
ENDMDL