MODEL 3
REMARK VINA RESULT: -5.795674709      1.534      2.920
REMARK  1 active torsions:
REMARK  status: ('A' for Active; 'I' for Inactive)
REMARK    1  A    between atoms: C1_2  and  C2_4
ROOT
HETATM    1  C2  UNL     1     -40.400 -17.338 -14.349  1.00  0.00     0.117 A
HETATM    2  C3  UNL     1     -40.863 -16.047 -13.967  1.00  0.00     0.276 A
HETATM    3  O2  UNL     1     -42.072 -15.951 -13.645  1.00  0.00    -0.266 OA
HETATM    4  N2  UNL     1     -40.060 -14.986 -13.949  1.00  0.00    -0.264 N
ATOM      5  H2  UNL     1     -40.440 -14.082 -13.667  1.00  0.00     0.190 HD
HETATM    6  N3  UNL     1     -38.793 -15.068 -14.281  1.00  0.00    -0.282 N
ATOM      7  H3  UNL     1     -38.207 -14.234 -14.253  1.00  0.00     0.188 HD
HETATM    8  C4  UNL     1     -38.266 -16.236 -14.656  1.00  0.00     0.141 A
HETATM    9  N4  UNL     1     -36.960 -16.246 -15.007  1.00  0.00    -0.292 N
ATOM     10  H4  UNL     1     -36.401 -15.393 -14.966  1.00  0.00     0.172 HD
HETATM   11  C5  UNL     1     -36.418 -17.404 -15.409  1.00  0.00     0.328 A
HETATM   12  O3  UNL     1     -35.204 -17.419 -15.737  1.00  0.00    -0.247 OA
HETATM   13  N5  UNL     1     -37.163 -18.519 -15.459  1.00  0.00    -0.275 N
ATOM     14  H5  UNL     1     -36.726 -19.387 -15.769  1.00  0.00     0.173 HD
HETATM   15  C6  UNL     1     -38.484 -18.540 -15.110  1.00  0.00     0.264 A
HETATM   16  O4  UNL     1     -39.111 -19.612 -15.187  1.00  0.00    -0.267 OA
HETATM   17  C7  UNL     1     -39.060 -17.382 -14.695  1.00  0.00     0.098 A
ENDROOT
BRANCH   1  18
HETATM   18  C1  UNL     1     -41.333 -18.413 -14.352  1.00  0.00     0.271 C
HETATM   19  N1  UNL     1     -42.079 -18.580 -15.598  1.00  0.00    -0.057 NA
HETATM   20  O1  UNL     1     -41.605 -19.213 -13.491  1.00  0.00    -0.271 OA
ENDBRANCH   1  18
TORSDOF 1
ENDMDL