MODEL 1
REMARK VINA RESULT: -7.157047836      0.000      0.000
REMARK  2 active torsions:
REMARK  status: ('A' for Active; 'I' for Inactive)
REMARK    1  A    between atoms: C1_2  and  N1_3
REMARK    2  A    between atoms: N1_3  and  C2_5
ROOT
HETATM    1  C2  UNL     1     -34.186 -17.602 -17.333  1.00  0.00     0.131 A
HETATM    2  N2  UNL     1     -33.611 -18.753 -17.729  1.00  0.00    -0.293 N
ATOM      3  H2  UNL     1     -33.321 -18.857 -18.701  1.00  0.00     0.172 HD
HETATM    4  C3  UNL     1     -33.411 -19.770 -16.868  1.00  0.00     0.327 A
HETATM    5  O2  UNL     1     -32.869 -20.822 -17.291  1.00  0.00    -0.247 OA
HETATM    6  N3  UNL     1     -33.775 -19.691 -15.572  1.00  0.00    -0.293 N
ATOM      7  H3  UNL     1     -33.614 -20.476 -14.940  1.00  0.00     0.172 HD
HETATM    8  C4  UNL     1     -34.356 -18.559 -15.124  1.00  0.00     0.132 A
HETATM    9  N4  UNL     1     -34.724 -18.477 -13.818  1.00  0.00    -0.293 N
ATOM     10  H4  UNL     1     -34.572 -19.249 -13.168  1.00  0.00     0.172 HD
HETATM   11  C5  UNL     1     -35.296 -17.330 -13.426  1.00  0.00     0.328 A
HETATM   12  O3  UNL     1     -35.645 -17.229 -12.222  1.00  0.00    -0.247 OA
HETATM   13  N5  UNL     1     -35.511 -16.294 -14.259  1.00  0.00    -0.275 N
ATOM     14  H5  UNL     1     -35.952 -15.447 -13.901  1.00  0.00     0.173 HD
HETATM   15  C6  UNL     1     -35.153 -16.358 -15.557  1.00  0.00     0.267 A
HETATM   16  O4  UNL     1     -35.337 -15.412 -16.362  1.00  0.00    -0.267 OA
HETATM   17  C7  UNL     1     -34.564 -17.508 -16.007  1.00  0.00     0.120 A
ENDROOT
BRANCH   1  18
HETATM   18  N1  UNL     1     -34.396 -16.616 -18.102  1.00  0.00    -0.319 N
ATOM     19  H1  UNL     1     -35.353 -16.267 -18.162  1.00  0.00     0.169 HD
BRANCH  18  20
HETATM   20  C1  UNL     1     -33.424 -15.963 -18.880  1.00  0.00     0.354 C
HETATM   21  O1  UNL     1     -33.209 -14.731 -18.885  1.00  0.00    -0.283 OA
ENDBRANCH  18  20
ENDBRANCH   1  18
TORSDOF 2
ENDMDL