MODEL 3
REMARK VINA RESULT: -6.625615374      1.476      1.588
REMARK  2 active torsions:
REMARK  status: ('A' for Active; 'I' for Inactive)
REMARK    1  A    between atoms: N1_1  and  S1_4
REMARK    2  A    between atoms: S1_4  and  C1_7
ROOT
HETATM    1  C1  UNL     1     -34.959 -17.513 -14.720  1.00  0.00     0.228 A
HETATM    2  N2  UNL     1     -34.434 -18.717 -14.896  1.00  0.00    -0.315 N
ATOM      3  H2  UNL     1     -34.469 -19.380 -14.121  1.00  0.00     0.169 HD
HETATM    4  C2  UNL     1     -33.853 -19.111 -16.053  1.00  0.00     0.144 A
HETATM    5  N3  UNL     1     -33.262 -20.240 -16.483  1.00  0.00    -0.292 N
ATOM      6  H3  UNL     1     -33.147 -21.086 -15.926  1.00  0.00     0.172 HD
HETATM    7  C3  UNL     1     -32.844 -20.096 -17.754  1.00  0.00     0.326 A
HETATM    8  O3  UNL     1     -32.248 -20.962 -18.467  1.00  0.00    -0.247 OA
HETATM    9  N4  UNL     1     -33.190 -18.846 -18.106  1.00  0.00    -0.301 N
ATOM     10  H4  UNL     1     -33.005 -18.437 -19.022  1.00  0.00     0.171 HD
HETATM   11  C4  UNL     1     -33.811 -18.201 -17.102  1.00  0.00     0.149 A
HETATM   12  C5  UNL     1     -34.353 -16.945 -16.930  1.00  0.00     0.278 A
HETATM   13  O4  UNL     1     -34.315 -16.132 -17.866  1.00  0.00    -0.265 OA
HETATM   14  N5  UNL     1     -34.916 -16.629 -15.742  1.00  0.00    -0.296 N
ATOM     15  H5  UNL     1     -35.319 -15.701 -15.614  1.00  0.00     0.171 HD
ENDROOT
BRANCH   1  16
HETATM   16  S1  UNL     1     -35.691 -17.084 -13.192  1.00  0.00     0.289 S
HETATM   17  O1  UNL     1     -35.186 -18.006 -12.102  1.00  0.00    -0.198 OA
HETATM   18  O2  UNL     1     -37.165 -17.166 -13.344  1.00  0.00    -0.198 OA
BRANCH  16  19
HETATM   19  N1  UNL     1     -35.173 -15.487 -12.763  1.00  0.00    -0.322 N
ATOM     20  H12 UNL     1     -34.987 -15.150 -11.819  1.00  0.00     0.169 HD
ATOM     21  H11 UNL     1     -35.095 -14.964 -13.636  1.00  0.00     0.169 HD
ENDBRANCH  16  19
ENDBRANCH   1  16
TORSDOF 2
ENDMDL