MODEL 5
REMARK VINA RESULT: -7.010002652      2.023      2.326
REMARK  9 active torsions:
REMARK  status: ('A' for Active; 'I' for Inactive)
REMARK    1  A    between atoms: S1_2  and  N1_5
REMARK    2  A    between atoms: N1_5  and  C2_7
REMARK    3  A    between atoms: C4_11  and  N3_12
REMARK    4  A    between atoms: N3_12  and  C5_14
REMARK    5  A    between atoms: C5_14  and  C6_15
REMARK    6  A    between atoms: C6_15  and  C7_16
REMARK    7  A    between atoms: C7_16  and  N4_17
REMARK    8  A    between atoms: N4_17  and  C8_19
REMARK    9  A    between atoms: C11_25  and  N7_26
ROOT
HETATM    1  N3  UNL     1      40.144 -17.362  15.076  1.00  0.00    -0.374 N
ATOM      2  H3  UNL     1      39.773 -17.102  15.989  1.00  0.00     0.161 HD
ENDROOT
BRANCH   1   3
HETATM    3  C4  UNL     1      40.418 -16.444  14.253  1.00  0.00     0.132 A
HETATM    4  C3  UNL     1      41.423 -16.626  13.313  1.00  0.00     0.155 A
HETATM    5  N2  UNL     1      41.735 -15.664  12.427  1.00  0.00    -0.196 N
HETATM    6  C2  UNL     1      41.076 -14.504  12.433  1.00  0.00     0.706 A
ATOM      7  H2  UNL     1      42.478 -15.822  11.746  1.00  0.00     0.183 HD
HETATM    8  N10 UNL     1      40.106 -14.337  13.346  1.00  0.00    -0.130 N
HETATM    9  N9  UNL     1      39.771 -15.279  14.246  1.00  0.00    -0.270 N
ATOM     10  H10 UNL     1      39.598 -13.453  13.357  1.00  0.00     0.205 HD
ATOM     11  H9  UNL     1      39.026 -15.102  14.919  1.00  0.00     0.189 HD
BRANCH   6  12
HETATM   12  N1  UNL     1      41.316 -13.532  11.615  1.00  0.00    -0.115 N
ATOM     13  H1  UNL     1      40.615 -12.799  11.513  1.00  0.00     0.197 HD
BRANCH  12  14
HETATM   14  S1  UNL     1      42.758 -13.417  10.694  1.00  0.00     0.240 S
HETATM   15  C1  UNL     1      42.821 -11.976   9.690  1.00  0.00     0.186 C
HETATM   16  O1  UNL     1      43.914 -13.382  11.659  1.00  0.00    -0.206 OA
HETATM   17  O2  UNL     1      42.902 -14.616   9.810  1.00  0.00    -0.206 OA
ENDBRANCH  12  14
ENDBRANCH   6  12
ENDBRANCH   1   3
BRANCH   1  18
HETATM   18  C5  UNL     1      40.329 -18.740  14.787  1.00  0.00     0.123 C
BRANCH  18  19
HETATM   19  C6  UNL     1      39.226 -19.596  15.430  1.00  0.00     0.039 C
BRANCH  19  20
HETATM   20  C7  UNL     1      38.142 -18.590  15.837  1.00  0.00     0.123 C
BRANCH  20  21
HETATM   21  N4  UNL     1      36.873 -19.209  15.575  1.00  0.00    -0.376 N
ATOM     22  H4  UNL     1      36.789 -19.903  14.831  1.00  0.00     0.161 HD
BRANCH  21  23
HETATM   23  C8  UNL     1      35.845 -18.892  16.275  1.00  0.00     0.120 A
HETATM   24  C9  UNL     1      35.586 -17.549  16.582  1.00  0.00     0.094 A
HETATM   25  C10 UNL     1      34.499 -17.163  17.328  1.00  0.00     0.135 A
HETATM   26  N5  UNL     1      34.240 -15.785  17.639  1.00  0.00    -0.082 NA
HETATM   27  N6  UNL     1      33.651 -18.113  17.780  1.00  0.00    -0.179 N
HETATM   28  C11 UNL     1      33.885 -19.401  17.495  1.00  0.00     0.678 A
ATOM     29  H6  UNL     1      32.837 -17.852  18.336  1.00  0.00     0.185 HD
HETATM   30  N8  UNL     1      34.955 -19.774  16.761  1.00  0.00    -0.177 N
ATOM     31  H8  UNL     1      35.094 -20.766  16.567  1.00  0.00     0.185 HD
BRANCH  28  32
HETATM   32  N7  UNL     1      33.050 -20.282  17.947  1.00  0.00    -0.234 N
ATOM     33  H72 UNL     1      32.362 -20.035  18.658  1.00  0.00     0.174 HD
ATOM     34  H71 UNL     1      33.104 -21.228  17.569  1.00  0.00     0.174 HD
ENDBRANCH  28  32
ENDBRANCH  21  23
ENDBRANCH  20  21
ENDBRANCH  19  20
ENDBRANCH  18  19
ENDBRANCH   1  18
TORSDOF 9
ENDMDL