MODEL 5
REMARK VINA RESULT: -5.982911045      5.416      8.452
REMARK  5 active torsions:
REMARK  status: ('A' for Active; 'I' for Inactive)
REMARK       I    between atoms: C1_2  and  N1_3
REMARK    1  A    between atoms: C1_2  and  C9_16
REMARK    2  A    between atoms: N1_3  and  C2_5
REMARK    3  A    between atoms: C2_5  and  C3_6
REMARK    4  A    between atoms: C3_6  and  C4_7
REMARK    5  A    between atoms: C4_7  and  N2_8
ROOT
HETATM    1  C9  UNL     1      41.577 -17.597  13.579  1.00  0.00     0.195 C
HETATM    2  C10 UNL     1      41.812 -17.495  12.066  1.00  0.00     0.266 C
HETATM    3  N4  UNL     1      43.216 -17.185  11.877  1.00  0.00    -0.073 N
ATOM      4  H41 UNL     1      43.723 -17.989  11.508  1.00  0.00     0.277 HD
ATOM      5  H42 UNL     1      43.695 -17.088  12.772  1.00  0.00     0.277 HD
HETATM    6  C11 UNL     1      43.419 -16.009  11.043  1.00  0.00     0.234 C
HETATM    7  C12 UNL     1      44.831 -15.516  11.228  1.00  0.00     0.055 C
HETATM    8  C13 UNL     1      44.918 -14.015  11.390  1.00  0.00     0.234 C
HETATM    9  N5  UNL     1      44.328 -13.574  12.629  1.00  0.00    -0.073 N
ATOM     10  H51 UNL     1      43.410 -13.998  12.762  1.00  0.00     0.277 HD
ATOM     11  H52 UNL     1      44.054 -12.593  12.568  1.00  0.00     0.277 HD
HETATM   12  C14 UNL     1      45.164 -13.798  13.779  1.00  0.00     0.259 C
HETATM   13  C15 UNL     1      44.373 -14.249  14.990  1.00  0.00     0.259 C
HETATM   14  N6  UNL     1      44.432 -15.692  15.112  1.00  0.00    -0.072 N
ATOM     15  H61 UNL     1      45.382 -15.993  15.327  1.00  0.00     0.277 HD
ATOM     16  H62 UNL     1      44.312 -16.132  14.199  1.00  0.00     0.277 HD
HETATM   17  C16 UNL     1      43.511 -16.239  16.054  1.00  0.00     0.251 C
HETATM   18  C17 UNL     1      42.078 -16.307  15.572  1.00  0.00     0.142 C
HETATM   19  N7  UNL     1      42.073 -16.399  14.154  1.00  0.00    -0.406 N
ATOM     20  H7  UNL     1      42.413 -15.633  13.573  1.00  0.00     0.154 HD
ENDROOT
BRANCH   1  21
HETATM   21  C1  UNL     1      40.168 -17.886  13.879  1.00  0.00     0.241 C
HETATM   22  O1  UNL     1      39.856 -19.042  14.328  1.00  0.00    -0.271 OA
HETATM   23  N1  UNL     1      39.134 -16.931  13.689  1.00  0.00    -0.359 N
ATOM     24  H1  UNL     1      39.387 -16.010  13.330  1.00  0.00     0.162 HD
BRANCH  23  25
HETATM   25  C2  UNL     1      37.749 -17.193  13.977  1.00  0.00     0.124 C
BRANCH  25  26
HETATM   26  C3  UNL     1      37.454 -17.248  15.470  1.00  0.00     0.050 C
BRANCH  26  27
HETATM   27  C4  UNL     1      36.677 -18.481  15.829  1.00  0.00     0.274 C
BRANCH  27  28
HETATM   28  N2  UNL     1      35.299 -18.353  15.501  1.00  0.00     0.091 N
HETATM   29  C5  UNL     1      34.564 -19.580  15.832  1.00  0.00     0.300 C
HETATM   30  C6  UNL     1      34.322 -19.637  17.336  1.00  0.00     0.262 C
HETATM   31  N3  UNL     1      33.554 -18.478  17.744  1.00  0.00    -0.072 N
HETATM   32  C7  UNL     1      34.396 -17.298  17.518  1.00  0.00     0.262 C
ATOM     33  H32 UNL     1      32.647 -18.417  17.280  1.00  0.00     0.277 HD
ATOM     34  H31 UNL     1      33.208 -18.545  18.701  1.00  0.00     0.277 HD
HETATM   35  C8  UNL     1      34.633 -17.199  16.014  1.00  0.00     0.300 C
ENDBRANCH  27  28
ENDBRANCH  26  27
ENDBRANCH  25  26
ENDBRANCH  23  25
ENDBRANCH   1  21
TORSDOF 5
ENDMDL