MODEL 1
REMARK VINA RESULT: -7.596970054      0.000      0.000
REMARK  9 active torsions:
REMARK  status: ('A' for Active; 'I' for Inactive)
REMARK    1  A    between atoms: C2_2  and  N1_3
REMARK    2  A    between atoms: N1_3  and  C3_5
REMARK    3  A    between atoms: C6_13  and  C7_14
REMARK    4  A    between atoms: C7_14  and  O2_15
REMARK    5  A    between atoms: N4_17  and  C8_18
REMARK    6  A    between atoms: C8_18  and  C9_19
REMARK    7  A    between atoms: C9_19  and  N5_20
REMARK    8  A    between atoms: N5_20  and  C10_22
REMARK    9  A    between atoms: C11_25  and  N7_26
ROOT
HETATM    1  C3  UNL     1      39.333 -21.125  15.649  1.00  0.00     0.682 A
HETATM    2  N2  UNL     1      40.505 -21.536  15.133  1.00  0.00    -0.154 N
ATOM      3  H2  UNL     1      40.842 -22.486  15.285  1.00  0.00     0.187 HD
HETATM    4  C4  UNL     1      41.216 -20.657  14.412  1.00  0.00     0.290 A
HETATM    5  O1  UNL     1      42.324 -21.004  13.910  1.00  0.00    -0.265 OA
HETATM    6  C5  UNL     1      40.743 -19.376  14.218  1.00  0.00     0.148 A
HETATM    7  N3  UNL     1      41.247 -18.314  13.549  1.00  0.00    -0.336 N
ATOM      8  H3  UNL     1      42.128 -18.281  13.038  1.00  0.00     0.167 HD
HETATM    9  C6  UNL     1      40.353 -17.297  13.689  1.00  0.00     0.109 A
HETATM   10  N4  UNL     1      39.312 -17.667  14.413  1.00  0.00    -0.317 N
HETATM   11  C13 UNL     1      39.542 -18.974  14.754  1.00  0.00     0.157 A
HETATM   12  N10 UNL     1      38.854 -19.860  15.464  1.00  0.00    -0.174 N
ATOM     13  H10 UNL     1      37.959 -19.594  15.874  1.00  0.00     0.186 HD
ENDROOT
BRANCH  10  14
HETATM   14  C8  UNL     1      38.163 -16.919  14.801  1.00  0.00     0.152 C
BRANCH  14  15
HETATM   15  C9  UNL     1      37.005 -16.962  13.862  1.00  0.00     0.158 C
BRANCH  15  16
HETATM   16  N5  UNL     1      35.742 -16.586  14.381  1.00  0.00    -0.224 N
ATOM     17  H5  UNL     1      35.251 -15.850  13.874  1.00  0.00     0.177 HD
BRANCH  16  18
HETATM   18  C10 UNL     1      35.146 -17.052  15.397  1.00  0.00     0.696 A
HETATM   19  N6  UNL     1      34.690 -18.312  15.507  1.00  0.00    -0.022 N
HETATM   20  C11 UNL     1      34.057 -18.735  16.639  1.00  0.00     0.694 A
ATOM     21  H6  UNL     1      34.821 -18.962  14.732  1.00  0.00     0.203 HD
HETATM   22  N8  UNL     1      33.871 -17.911  17.666  1.00  0.00    -0.141 N
HETATM   23  C12 UNL     1      34.317 -16.655  17.572  1.00  0.00     0.352 A
ATOM     24  H8  UNL     1      33.396 -18.231  18.511  1.00  0.00     0.189 HD
HETATM   25  O3  UNL     1      34.158 -15.851  18.524  1.00  0.00    -0.246 OA
HETATM   26  N9  UNL     1      34.946 -16.236  16.448  1.00  0.00    -0.140 N
ATOM     27  H9  UNL     1      35.279 -15.273  16.397  1.00  0.00     0.189 HD
BRANCH  20  28
HETATM   28  N7  UNL     1      33.622 -19.958  16.733  1.00  0.00    -0.234 N
ATOM     29  H72 UNL     1      32.706 -20.183  16.344  1.00  0.00     0.174 HD
ATOM     30  H71 UNL     1      34.189 -20.675  17.185  1.00  0.00     0.174 HD
ENDBRANCH  20  28
ENDBRANCH  16  18
ENDBRANCH  15  16
ENDBRANCH  14  15
ENDBRANCH  10  14
BRANCH   9  31
HETATM   31  C7  UNL     1      40.566 -15.955  13.065  1.00  0.00     0.241 C
BRANCH  31  32
HETATM   32  O2  UNL     1      41.270 -16.098  11.843  1.00  0.00    -0.393 OA
ATOM     33  H2  UNL     1      40.860 -15.568  11.170  1.00  0.00     0.209 HD
ENDBRANCH  31  32
ENDBRANCH   9  31
BRANCH   1  34
HETATM   34  N1  UNL     1      38.642 -21.949  16.338  1.00  0.00    -0.226 N
ATOM     35  H1  UNL     1      37.731 -21.639  16.677  1.00  0.00     0.177 HD
BRANCH  34  36
HETATM   36  C2  UNL     1      39.059 -23.274  16.666  1.00  0.00     0.133 C
HETATM   37  C1  UNL     1      39.291 -23.498  18.139  1.00  0.00     0.027 C
ENDBRANCH  34  36
ENDBRANCH   1  34
TORSDOF 9
ENDMDL