MODEL 3
REMARK VINA RESULT: -7.079062192      1.730      1.742
REMARK  5 active torsions:
REMARK  status: ('A' for Active; 'I' for Inactive)
REMARK    1  A    between atoms: C7_18  and  N5_19
REMARK    2  A    between atoms: N5_19  and  C8_22
REMARK    3  A    between atoms: C8_22  and  C9_23
REMARK    4  A    between atoms: C9_23  and  N6_24
REMARK    5  A    between atoms: C14_32  and  C15_33
ROOT
HETATM    1  N1  UNL     1      41.393 -16.591  10.962  1.00  0.00    -0.234 N
ATOM      2  H11 UNL     1      42.051 -16.262  10.255  1.00  0.00     0.174 HD
ATOM      3  H12 UNL     1      40.396 -16.391  10.886  1.00  0.00     0.174 HD
HETATM    4  C1  UNL     1      41.807 -17.267  11.977  1.00  0.00     0.679 A
HETATM    5  N2  UNL     1      40.925 -17.708  12.925  1.00  0.00    -0.192 N
ATOM      6  H2  UNL     1      39.935 -17.491  12.820  1.00  0.00     0.184 HD
HETATM    7  C2  UNL     1      41.323 -18.409  13.978  1.00  0.00     0.079 A
HETATM    8  C3  UNL     1      42.653 -18.702  14.124  1.00  0.00     0.054 A
HETATM    9  C4  UNL     1      43.541 -18.237  13.136  1.00  0.00     0.269 A
HETATM   10  O1  UNL     1      44.751 -18.503  13.270  1.00  0.00    -0.267 OA
HETATM   11  N3  UNL     1      43.115 -17.529  12.076  1.00  0.00    -0.156 N
ATOM     12  H3  UNL     1      43.771 -17.200  11.366  1.00  0.00     0.187 HD
HETATM   13  C5  UNL     1      43.185 -19.463  15.275  1.00  0.00     0.169 C
HETATM   14  N4  UNL     1      42.212 -20.450  15.688  1.00  0.00    -0.354 N
ATOM     15  H4  UNL     1      42.493 -21.232  16.278  1.00  0.00     0.162 HD
HETATM   16  C6  UNL     1      40.847 -20.320  15.263  1.00  0.00     0.255 C
HETATM   17  O2  UNL     1      40.125 -21.317  15.112  1.00  0.00    -0.271 OA
HETATM   18  C7  UNL     1      40.378 -18.917  15.019  1.00  0.00     0.327 C
ENDROOT
BRANCH  18  19
HETATM   19  N5  UNL     1      39.013 -18.817  14.679  1.00  0.00    -0.055 N
ATOM     20  H52 UNL     1      38.871 -18.144  13.927  1.00  0.00     0.278 HD
ATOM     21  H51 UNL     1      38.689 -19.661  14.208  1.00  0.00     0.278 HD
BRANCH  19  22
HETATM   22  C8  UNL     1      38.187 -18.509  15.812  1.00  0.00     0.264 C
BRANCH  22  23
HETATM   23  C9  UNL     1      36.871 -19.254  15.766  1.00  0.00     0.300 C
BRANCH  23  24
HETATM   24  N6  UNL     1      35.772 -18.605  15.173  1.00  0.00     0.102 N
HETATM   25  C10 UNL     1      34.486 -19.013  15.667  1.00  0.00     0.300 C
HETATM   26  C11 UNL     1      34.564 -19.201  17.157  1.00  0.00     0.262 C
HETATM   27  N7  UNL     1      34.787 -17.957  17.815  1.00  0.00    -0.073 N
HETATM   28  C12 UNL     1      34.364 -16.842  17.047  1.00  0.00     0.235 C
ATOM     29  H72 UNL     1      34.354 -17.950  18.738  1.00  0.00     0.277 HD
ATOM     30  H71 UNL     1      35.765 -17.860  18.090  1.00  0.00     0.277 HD
HETATM   31  C13 UNL     1      35.304 -16.302  16.041  1.00  0.00     0.070 C
HETATM   32  C14 UNL     1      35.889 -17.185  15.023  1.00  0.00     0.285 C
BRANCH  32  33
HETATM   33  C15 UNL     1      35.382 -16.807  13.672  1.00  0.00     0.267 C
HETATM   34  O3  UNL     1      35.406 -17.483  12.688  1.00  0.00    -0.305 OA
ENDBRANCH  32  33
ENDBRANCH  23  24
ENDBRANCH  22  23
ENDBRANCH  19  22
ENDBRANCH  18  19
TORSDOF 5
ENDMDL