MODEL 2
REMARK VINA RESULT: -6.634441872      1.142      1.719
REMARK  7 active torsions:
REMARK  status: ('A' for Active; 'I' for Inactive)
REMARK    1  A    between atoms: N1_1  and  C1_4
REMARK    2  A    between atoms: C2_7  and  N3_8
REMARK       I    between atoms: N3_8  and  C3_10
REMARK    3  A    between atoms: C3_10  and  C4_12
REMARK    4  A    between atoms: C4_12  and  N4_13
REMARK    5  A    between atoms: C10_25  and  C11_26
REMARK    6  A    between atoms: N8_27  and  C12_29
REMARK    7  A    between atoms: C12_29  and  C13_30
ROOT
HETATM    1  C1  UNL     1      41.356 -16.918  12.204  1.00  0.00     0.129 A
HETATM    2  N2  UNL     1      40.402 -16.854  13.141  1.00  0.00    -0.176 N
ATOM      3  H2  UNL     1      40.033 -17.716  13.542  1.00  0.00     0.186 HD
HETATM    4  C2  UNL     1      39.913 -15.650  13.570  1.00  0.00     0.687 A
HETATM    5  N6  UNL     1      40.432 -14.556  13.015  1.00  0.00    -0.177 N
ATOM      6  H6  UNL     1      40.077 -13.653  13.329  1.00  0.00     0.185 HD
HETATM    7  C9  UNL     1      41.398 -14.553  12.065  1.00  0.00     0.147 A
HETATM    8  N7  UNL     1      41.910 -13.360  11.514  1.00  0.00    -0.081 NA
HETATM    9  C10 UNL     1      41.881 -15.769  11.641  1.00  0.00     0.065 A
ENDROOT
BRANCH   4  10
HETATM   10  N3  UNL     1      38.993 -15.661  14.472  1.00  0.00    -0.158 N
HETATM   11  C3  UNL     1      38.458 -16.930  14.871  1.00  0.00     0.264 C
HETATM   12  O1  UNL     1      39.155 -17.759  15.483  1.00  0.00    -0.271 OA
ATOM     13  H3  UNL     1      38.655 -14.794  14.889  1.00  0.00     0.187 HD
BRANCH  11  14
HETATM   14  C4  UNL     1      37.058 -17.194  14.521  1.00  0.00     0.375 C
BRANCH  14  15
HETATM   15  N4  UNL     1      36.291 -17.771  15.588  1.00  0.00     0.100 N
HETATM   16  C5  UNL     1      35.250 -18.587  15.101  1.00  0.00     0.300 C
HETATM   17  C6  UNL     1      34.245 -19.006  16.151  1.00  0.00     0.262 C
HETATM   18  N5  UNL     1      34.525 -18.403  17.437  1.00  0.00    -0.072 N
HETATM   19  C7  UNL     1      34.588 -16.959  17.190  1.00  0.00     0.262 C
ATOM     20  H52 UNL     1      33.862 -18.665  18.166  1.00  0.00     0.277 HD
ATOM     21  H51 UNL     1      35.358 -18.776  17.892  1.00  0.00     0.277 HD
HETATM   22  C8  UNL     1      35.873 -16.705  16.467  1.00  0.00     0.300 C
ENDBRANCH  14  15
ENDBRANCH  11  14
ENDBRANCH   4  10
BRANCH   1  23
HETATM   23  N1  UNL     1      41.831 -18.049  11.784  1.00  0.00    -0.384 N
ATOM     24  H12 UNL     1      42.810 -18.245  11.992  1.00  0.00     0.157 HD
ATOM     25  H11 UNL     1      41.259 -18.718  11.270  1.00  0.00     0.157 HD
ENDBRANCH   1  23
BRANCH   9  26
HETATM   26  C11 UNL     1      42.913 -15.901  10.622  1.00  0.00     0.101 C
HETATM   27  N8  UNL     1      42.874 -15.266   9.510  1.00  0.00    -0.396 N
ATOM     28  H8  UNL     1      42.073 -14.652   9.367  1.00  0.00     0.158 HD
BRANCH  27  29
HETATM   29  C12 UNL     1      43.825 -15.322   8.451  1.00  0.00     0.152 C
BRANCH  29  30
HETATM   30  C13 UNL     1      43.470 -16.400   7.478  1.00  0.00     0.203 C
HETATM   31  C14 UNL     1      44.279 -16.294   6.196  1.00  0.00     0.036 C
HETATM   32  C15 UNL     1      43.487 -15.275   5.410  1.00  0.00     0.029 C
HETATM   33  C16 UNL     1      42.077 -15.546   5.823  1.00  0.00     0.233 C
HETATM   34  N9  UNL     1      42.111 -16.257   7.064  1.00  0.00    -0.069 N
ATOM     35  H92 UNL     1      41.623 -17.152   7.014  1.00  0.00     0.277 HD
ATOM     36  H91 UNL     1      41.530 -15.819   7.780  1.00  0.00     0.277 HD
ENDBRANCH  29  30
ENDBRANCH  27  29
ENDBRANCH   9  26
TORSDOF 7
ENDMDL