MODEL 4
REMARK VINA RESULT: -6.671071355      1.747      2.331
REMARK  10 active torsions:
REMARK  status: ('A' for Active; 'I' for Inactive)
REMARK    1  A    between atoms: N1_2  and  C2_4
REMARK    2  A    between atoms: C3_7  and  N3_8
REMARK    3  A    between atoms: C6_12  and  N4_13
REMARK    4  A    between atoms: C8_18  and  N6_19
REMARK    5  A    between atoms: N6_19  and  C9_21
REMARK    6  A    between atoms: C9_21  and  C10_22
REMARK    7  A    between atoms: C10_22  and  C11_23
REMARK    8  A    between atoms: C11_23  and  N7_24
REMARK    9  A    between atoms: N7_24  and  C12_27
REMARK   10  A    between atoms: C12_27  and  O1_28
ROOT
HETATM    1  C12 UNL     1      34.599 -19.074  17.239  1.00  0.00     0.427 C
HETATM    2  C13 UNL     1      33.388 -19.847  17.493  1.00  0.00     0.121 C
HETATM    3  N8  UNL     1      32.413 -20.447  17.695  1.00  0.00    -0.193 NA
ENDROOT
BRANCH   1   4
HETATM    4  N7  UNL     1      34.227 -17.859  16.521  1.00  0.00    -0.036 N
ATOM      5  H72 UNL     1      34.632 -17.018  16.932  1.00  0.00     0.281 HD
ATOM      6  H71 UNL     1      33.246 -17.611  16.647  1.00  0.00     0.281 HD
BRANCH   4   7
HETATM    7  C11 UNL     1      34.591 -18.036  15.111  1.00  0.00     0.238 C
BRANCH   7   8
HETATM    8  C10 UNL     1      35.303 -16.797  14.646  1.00  0.00     0.048 C
BRANCH   8   9
HETATM    9  C9  UNL     1      36.727 -17.088  14.222  1.00  0.00     0.139 C
BRANCH   9  10
HETATM   10  N6  UNL     1      37.496 -17.572  15.348  1.00  0.00    -0.226 N
ATOM     11  H6  UNL     1      37.303 -17.228  16.289  1.00  0.00     0.177 HD
BRANCH  10  12
HETATM   12  C8  UNL     1      38.433 -18.449  15.148  1.00  0.00     0.681 A
HETATM   13  N5  UNL     1      39.490 -18.095  14.392  1.00  0.00    -0.176 N
HETATM   14  C6  UNL     1      40.473 -19.020  14.184  1.00  0.00     0.134 A
ATOM     15  H5  UNL     1      39.554 -17.161  13.985  1.00  0.00     0.186 HD
HETATM   16  C5  UNL     1      40.396 -20.283  14.728  1.00  0.00     0.098 A
HETATM   17  C3  UNL     1      41.366 -21.244  14.542  1.00  0.00     0.134 A
HETATM   18  C14 UNL     1      39.312 -20.623  15.494  1.00  0.00     0.154 A
HETATM   19  N2  UNL     1      41.251 -22.481  15.097  1.00  0.00    -0.176 N
HETATM   20  C2  UNL     1      40.183 -22.804  15.847  1.00  0.00     0.680 A
ATOM     21  H2  UNL     1      41.985 -23.172  14.943  1.00  0.00     0.186 HD
HETATM   22  N10 UNL     1      39.240 -21.847  16.018  1.00  0.00    -0.175 N
ATOM     23  H10 UNL     1      38.423 -22.076  16.584  1.00  0.00     0.186 HD
HETATM   24  N9  UNL     1      38.357 -19.682  15.679  1.00  0.00    -0.175 N
ATOM     25  H9  UNL     1      37.543 -19.920  16.246  1.00  0.00     0.186 HD
BRANCH  14  26
HETATM   26  N4  UNL     1      41.501 -18.744  13.476  1.00  0.00    -0.379 N
HETATM   27  C7  UNL     1      41.427 -17.686  12.490  1.00  0.00     0.147 C
ATOM     28  H4  UNL     1      42.368 -19.266  13.606  1.00  0.00     0.160 HD
ENDBRANCH  14  26
BRANCH  17  29
HETATM   29  N3  UNL     1      42.379 -20.929  13.829  1.00  0.00    -0.379 N
HETATM   30  C4  UNL     1      43.241 -21.880  13.165  1.00  0.00     0.147 C
ATOM     31  H3  UNL     1      42.593 -19.937  13.721  1.00  0.00     0.160 HD
ENDBRANCH  17  29
BRANCH  20  32
HETATM   32  N1  UNL     1      40.034 -23.977  16.397  1.00  0.00    -0.230 N
HETATM   33  C1  UNL     1      38.786 -24.349  16.987  1.00  0.00     0.165 C
ATOM     34  H1  UNL     1      40.813 -24.634  16.407  1.00  0.00     0.177 HD
ENDBRANCH  20  32
ENDBRANCH  10  12
ENDBRANCH   9  10
ENDBRANCH   8   9
ENDBRANCH   7   8
ENDBRANCH   4   7
ENDBRANCH   1   4
BRANCH   1  35
HETATM   35  O1  UNL     1      35.552 -19.803  16.534  1.00  0.00    -0.359 OA
ATOM     36  H1  UNL     1      36.293 -19.257  16.294  1.00  0.00     0.213 HD
ENDBRANCH   1  35
TORSDOF 10
ENDMDL