MODEL 3
REMARK VINA RESULT: -6.840548535      2.157      4.698
REMARK  10 active torsions:
REMARK  status: ('A' for Active; 'I' for Inactive)
REMARK    1  A    between atoms: C2_5  and  N2_6
REMARK    2  A    between atoms: N2_6  and  C3_8
REMARK    3  A    between atoms: C3_8  and  C4_9
REMARK    4  A    between atoms: C4_9  and  O2_10
REMARK    5  A    between atoms: C6_17  and  N5_18
REMARK    6  A    between atoms: N5_18  and  C7_20
REMARK    7  A    between atoms: N6_21  and  O3_23
REMARK    8  A    between atoms: C8_27  and  N8_28
REMARK    9  A    between atoms: N8_28  and  C9_30
REMARK   10  A    between atoms: C9_30  and  C10_31
ROOT
HETATM    1  O1  UNL     1      39.687 -20.318  15.074  1.00  0.00    -0.266 OA
HETATM    2  C1  UNL     1      38.799 -19.430  15.245  1.00  0.00     0.277 A
HETATM    3  N1  UNL     1      37.634 -19.693  15.838  1.00  0.00    -0.155 N
ATOM      4  H1  UNL     1      37.431 -20.636  16.173  1.00  0.00     0.187 HD
HETATM    5  C2  UNL     1      36.716 -18.698  15.995  1.00  0.00     0.682 A
HETATM    6  N3  UNL     1      36.965 -17.452  15.560  1.00  0.00    -0.175 N
ATOM      7  H3  UNL     1      36.262 -16.724  15.689  1.00  0.00     0.186 HD
HETATM    8  C5  UNL     1      38.142 -17.149  14.951  1.00  0.00     0.156 A
HETATM    9  N4  UNL     1      38.381 -15.893  14.519  1.00  0.00    -0.175 N
ATOM     10  H4  UNL     1      37.690 -15.154  14.640  1.00  0.00     0.186 HD
HETATM   11  C6  UNL     1      39.552 -15.652  13.929  1.00  0.00     0.686 A
HETATM   12  N7  UNL     1      40.473 -16.634  13.768  1.00  0.00    -0.175 N
ATOM     13  H7  UNL     1      41.355 -16.403  13.312  1.00  0.00     0.186 HD
HETATM   14  C8  UNL     1      40.278 -17.897  14.181  1.00  0.00     0.136 A
HETATM   15  C14 UNL     1      39.071 -18.165  14.794  1.00  0.00     0.122 A
ENDROOT
BRANCH  14  16
HETATM   16  N8  UNL     1      41.140 -18.838  14.032  1.00  0.00    -0.372 N
ATOM     17  H8  UNL     1      40.861 -19.750  13.670  1.00  0.00     0.161 HD
BRANCH  16  18
HETATM   18  C9  UNL     1      42.507 -18.574  14.388  1.00  0.00     0.153 C
BRANCH  18  19
HETATM   19  C10 UNL     1      43.403 -18.228  13.255  1.00  0.00     0.139 C
HETATM   20  C11 UNL     1      43.066 -18.919  11.955  1.00  0.00     0.035 C
HETATM   21  C12 UNL     1      44.021 -18.162  11.020  1.00  0.00     0.029 C
HETATM   22  C13 UNL     1      44.186 -16.864  11.747  1.00  0.00     0.168 C
HETATM   23  O4  UNL     1      43.347 -16.893  12.868  1.00  0.00    -0.384 OA
ENDBRANCH  18  19
ENDBRANCH  16  18
ENDBRANCH  14  16
BRANCH  11  24
HETATM   24  N5  UNL     1      39.820 -14.481  13.500  1.00  0.00    -0.186 N
ATOM     25  H5  UNL     1      39.423 -13.707  14.032  1.00  0.00     0.185 HD
BRANCH  24  26
HETATM   26  C7  UNL     1      40.594 -14.128  12.382  1.00  0.00     0.221 C
HETATM   27  N6  UNL     1      41.866 -14.026  12.500  1.00  0.00    -0.264 N
ATOM     28  H6  UNL     1      42.283 -14.206  13.413  1.00  0.00     0.194 HD
BRANCH  27  29
HETATM   29  O3  UNL     1      42.693 -13.688  11.469  1.00  0.00    -0.289 OA
ATOM     30  H3  UNL     1      42.873 -12.791  11.212  1.00  0.00     0.244 HD
ENDBRANCH  27  29
ENDBRANCH  24  26
ENDBRANCH  11  24
BRANCH   5  31
HETATM   31  N2  UNL     1      35.609 -18.991  16.571  1.00  0.00    -0.224 N
ATOM     32  H2  UNL     1      35.575 -19.816  17.168  1.00  0.00     0.177 HD
BRANCH  31  33
HETATM   33  C3  UNL     1      34.415 -18.210  16.414  1.00  0.00     0.164 C
BRANCH  33  34
HETATM   34  C4  UNL     1      34.312 -17.113  17.475  1.00  0.00     0.184 C
BRANCH  34  35
HETATM   35  O2  UNL     1      34.654 -15.883  16.911  1.00  0.00    -0.399 OA
ATOM     36  H2  UNL     1      35.215 -15.403  17.508  1.00  0.00     0.209 HD
ENDBRANCH  34  35
ENDBRANCH  33  34
ENDBRANCH  31  33
ENDBRANCH   5  31
TORSDOF 10
ENDMDL