MODEL 2
REMARK VINA RESULT: -6.437936263      1.110      1.203
REMARK  10 active torsions:
REMARK  status: ('A' for Active; 'I' for Inactive)
REMARK    1  A    between atoms: N1_1  and  C1_4
REMARK    2  A    between atoms: C3_8  and  C4_9
REMARK    3  A    between atoms: C4_9  and  N3_10
REMARK    4  A    between atoms: N4_13  and  C7_14
REMARK    5  A    between atoms: C7_14  and  C8_15
REMARK    6  A    between atoms: C8_15  and  O1_16
REMARK    7  A    between atoms: C13_25  and  N6_26
REMARK    8  A    between atoms: N6_26  and  C14_28
REMARK    9  A    between atoms: C14_28  and  C15_29
REMARK   10  A    between atoms: C15_29  and  O3_30
ROOT
HETATM    1  C1  UNL     1      39.796 -20.735  15.357  1.00  0.00     0.127 A
HETATM    2  N2  UNL     1      41.037 -20.663  14.890  1.00  0.00    -0.350 N
ATOM      3  H2  UNL     1      41.618 -21.500  14.920  1.00  0.00     0.166 HD
HETATM    4  C2  UNL     1      41.563 -19.528  14.377  1.00  0.00     0.099 A
HETATM    5  C3  UNL     1      40.828 -18.363  14.308  1.00  0.00     0.004 A
HETATM    6  C11 UNL     1      39.521 -18.406  14.793  1.00  0.00     0.073 A
HETATM    7  C12 UNL     1      38.663 -17.337  14.802  1.00  0.00     0.272 A
HETATM    8  O2  UNL     1      39.042 -16.237  14.352  1.00  0.00    -0.267 OA
HETATM    9  N5  UNL     1      37.395 -17.373  15.274  1.00  0.00    -0.155 N
ATOM     10  H5  UNL     1      36.807 -16.539  15.252  1.00  0.00     0.187 HD
HETATM   11  C13 UNL     1      36.928 -18.524  15.770  1.00  0.00     0.681 A
HETATM   12  N7  UNL     1      37.739 -19.613  15.784  1.00  0.00    -0.187 N
ATOM     13  H7  UNL     1      37.372 -20.485  16.164  1.00  0.00     0.184 HD
HETATM   14  C16 UNL     1      39.005 -19.601  15.320  1.00  0.00     0.109 A
ENDROOT
BRANCH   5  15
HETATM   15  C4  UNL     1      41.315 -17.098  13.784  1.00  0.00     0.313 C
BRANCH  15  16
HETATM   16  N3  UNL     1      41.624 -17.125  12.328  1.00  0.00     0.096 N
HETATM   17  C5  UNL     1      43.085 -17.370  12.337  1.00  0.00     0.303 C
HETATM   18  C6  UNL     1      43.723 -17.298  11.008  1.00  0.00     0.302 C
HETATM   19  N4  UNL     1      43.399 -16.042  10.313  1.00  0.00     0.093 N
HETATM   20  C9  UNL     1      42.675 -15.183  11.203  1.00  0.00     0.302 C
HETATM   21  C10 UNL     1      41.415 -15.821  11.730  1.00  0.00     0.303 C
BRANCH  19  22
HETATM   22  C7  UNL     1      42.741 -16.433   9.113  1.00  0.00     0.298 C
BRANCH  22  23
HETATM   23  C8  UNL     1      42.410 -17.862   8.911  1.00  0.00     0.194 C
BRANCH  23  24
HETATM   24  O1  UNL     1      41.092 -18.204   9.027  1.00  0.00    -0.399 OA
ATOM     25  H1  UNL     1      40.893 -19.132   9.013  1.00  0.00     0.209 HD
ENDBRANCH  23  24
ENDBRANCH  22  23
ENDBRANCH  19  22
ENDBRANCH  15  16
ENDBRANCH   5  15
BRANCH   1  26
HETATM   26  N1  UNL     1      39.278 -21.814  15.849  1.00  0.00    -0.384 N
ATOM     27  H12 UNL     1      39.253 -22.642  15.254  1.00  0.00     0.157 HD
ATOM     28  H11 UNL     1      38.897 -21.876  16.793  1.00  0.00     0.157 HD
ENDBRANCH   1  26
BRANCH  11  29
HETATM   29  N6  UNL     1      35.727 -18.578  16.226  1.00  0.00    -0.224 N
ATOM     30  H6  UNL     1      35.534 -19.222  16.994  1.00  0.00     0.177 HD
BRANCH  29  31
HETATM   31  C14 UNL     1      34.643 -17.789  15.720  1.00  0.00     0.164 C
BRANCH  31  32
HETATM   32  C15 UNL     1      34.624 -16.506  16.552  1.00  0.00     0.184 C
BRANCH  32  33
HETATM   33  O3  UNL     1      35.075 -15.452  15.778  1.00  0.00    -0.399 OA
ATOM     34  H3  UNL     1      34.334 -15.029  15.360  1.00  0.00     0.209 HD
ENDBRANCH  32  33
ENDBRANCH  31  32
ENDBRANCH  29  31
ENDBRANCH  11  29
TORSDOF 10
ENDMDL