MODEL 5
REMARK VINA RESULT: -7.197008336      3.974      7.382
REMARK  7 active torsions:
REMARK  status: ('A' for Active; 'I' for Inactive)
REMARK    1  A    between atoms: C4_11  and  N4_12
REMARK    2  A    between atoms: N4_12  and  C5_14
REMARK    3  A    between atoms: C5_14  and  C6_15
REMARK    4  A    between atoms: C6_15  and  C7_16
REMARK    5  A    between atoms: C7_16  and  N5_17
REMARK    6  A    between atoms: C10_20  and  N6_21
REMARK    7  A    between atoms: C16_30  and  N8_31
ROOT
HETATM    1  N1  UNL     1      35.456 -16.808  12.496  1.00  0.00    -0.235 N
ATOM      2  H11 UNL     1      35.432 -17.502  11.749  1.00  0.00     0.174 HD
ATOM      3  H12 UNL     1      35.656 -15.846  12.223  1.00  0.00     0.174 HD
HETATM    4  C1  UNL     1      35.252 -17.098  13.724  1.00  0.00     0.670 C
HETATM    5  N2  UNL     1      35.286 -16.140  14.757  1.00  0.00    -0.220 N
ATOM      6  H2  UNL     1      35.547 -15.185  14.512  1.00  0.00     0.178 HD
HETATM    7  C2  UNL     1      34.973 -16.420  16.145  1.00  0.00     0.121 C
HETATM    8  C3  UNL     1      36.226 -16.572  16.991  1.00  0.00     0.146 C
HETATM    9  N3  UNL     1      36.962 -17.771  16.647  1.00  0.00    -0.374 N
ATOM     10  H3  UNL     1      37.939 -17.839  16.935  1.00  0.00     0.160 HD
HETATM   11  C4  UNL     1      36.448 -18.753  15.998  1.00  0.00     0.131 C
HETATM   12  C16 UNL     1      35.045 -18.769  15.523  1.00  0.00     0.269 C
HETATM   13  C17 UNL     1      34.220 -17.715  16.237  1.00  0.00     0.097 C
HETATM   14  N9  UNL     1      34.974 -18.442  14.106  1.00  0.00    -0.185 N
ATOM     15  H9  UNL     1      34.733 -19.149  13.412  1.00  0.00     0.180 HD
ENDROOT
BRANCH  11  16
HETATM   16  N4  UNL     1      37.266 -19.873  15.719  1.00  0.00    -0.376 N
ATOM     17  H4  UNL     1      36.840 -20.656  15.222  1.00  0.00     0.160 HD
BRANCH  16  18
HETATM   18  C5  UNL     1      38.664 -19.996  16.085  1.00  0.00     0.123 C
BRANCH  18  19
HETATM   19  C6  UNL     1      39.471 -19.715  14.867  1.00  0.00     0.050 C
BRANCH  19  20
HETATM   20  C7  UNL     1      40.055 -18.362  14.740  1.00  0.00     0.274 C
BRANCH  20  21
HETATM   21  N5  UNL     1      39.646 -17.564  13.639  1.00  0.00     0.090 N
HETATM   22  C8  UNL     1      38.987 -16.339  13.997  1.00  0.00     0.274 C
HETATM   23  C9  UNL     1      39.958 -15.200  13.816  1.00  0.00     0.057 C
HETATM   24  C10 UNL     1      41.270 -15.934  13.617  1.00  0.00     0.109 C
HETATM   25  C15 UNL     1      40.851 -17.162  12.895  1.00  0.00     0.297 C
BRANCH  24  26
HETATM   26  N6  UNL     1      42.171 -15.098  12.918  1.00  0.00    -0.403 N
HETATM   27  C11 UNL     1      41.625 -14.248  11.919  1.00  0.00     0.144 C
HETATM   28  C12 UNL     1      42.602 -14.231  10.756  1.00  0.00     0.251 C
HETATM   29  N7  UNL     1      43.901 -14.712  11.187  1.00  0.00    -0.072 N
HETATM   30  C13 UNL     1      44.305 -14.177  12.477  1.00  0.00     0.251 C
ATOM     31  H72 UNL     1      43.929 -15.732  11.190  1.00  0.00     0.277 HD
ATOM     32  H71 UNL     1      44.611 -14.527  10.478  1.00  0.00     0.277 HD
HETATM   33  C14 UNL     1      43.340 -14.653  13.578  1.00  0.00     0.144 C
ENDBRANCH  24  26
ENDBRANCH  20  21
ENDBRANCH  19  20
ENDBRANCH  18  19
ENDBRANCH  16  18
ENDBRANCH  11  16
BRANCH  12  34
HETATM   34  N8  UNL     1      34.465 -20.055  15.746  1.00  0.00    -0.045 N
ATOM     35  H83 UNL     1      34.646 -20.397  16.689  1.00  0.00     0.277 HD
ATOM     36  H82 UNL     1      33.447 -20.011  15.796  1.00  0.00     0.277 HD
ATOM     37  H81 UNL     1      34.784 -20.713  15.034  1.00  0.00     0.277 HD
ENDBRANCH  12  34
TORSDOF 7
ENDMDL