MODEL 2
REMARK VINA RESULT: -6.673993084      3.576      4.801
REMARK  5 active torsions:
REMARK  status: ('A' for Active; 'I' for Inactive)
REMARK    1  A    between atoms: C1_2  and  C2_3
REMARK       I    between atoms: C1_2  and  N1_5
REMARK    2  A    between atoms: N1_5  and  C3_7
REMARK    3  A    between atoms: C3_7  and  C4_8
REMARK    4  A    between atoms: C4_8  and  C5_9
REMARK    5  A    between atoms: C4_8  and  N6_24
ROOT
HETATM    1  C4  UNL     1      39.954 -17.645  14.916  1.00  0.00     0.165 C
ENDROOT
BRANCH   1   2
HETATM    2  C3  UNL     1      39.915 -17.195  13.443  1.00  0.00     0.155 C
BRANCH   2   3
HETATM    3  N1  UNL     1      40.622 -15.978  13.252  1.00  0.00    -0.358 N
HETATM    4  C1  UNL     1      41.335 -15.747  12.054  1.00  0.00     0.227 C
HETATM    5  O1  UNL     1      41.364 -16.616  11.118  1.00  0.00    -0.273 OA
ATOM      6  H1  UNL     1      40.616 -15.267  13.983  1.00  0.00     0.162 HD
BRANCH   4   7
HETATM    7  C2  UNL     1      42.091 -14.491  11.806  1.00  0.00     0.188 C
HETATM    8  S1  UNL     1      43.212 -14.679  10.393  1.00  0.00    -0.088 SA
ENDBRANCH   4   7
ENDBRANCH   2   3
ENDBRANCH   1   2
BRANCH   1   9
HETATM    9  C5  UNL     1      38.549 -17.865  15.293  1.00  0.00     0.108 A
HETATM   10  N2  UNL     1      37.600 -16.937  15.429  1.00  0.00    -0.337 N
HETATM   11  C6  UNL     1      36.435 -17.501  15.782  1.00  0.00     0.147 A
ATOM     12  H2  UNL     1      37.741 -15.937  15.284  1.00  0.00     0.167 HD
HETATM   13  C7  UNL     1      35.157 -16.999  16.048  1.00  0.00     0.280 A
HETATM   14  C9  UNL     1      36.684 -18.855  15.868  1.00  0.00     0.143 A
HETATM   15  O2  UNL     1      34.950 -15.761  15.965  1.00  0.00    -0.265 OA
HETATM   16  N3  UNL     1      34.206 -17.887  16.382  1.00  0.00    -0.273 N
HETATM   17  C8  UNL     1      34.471 -19.203  16.460  1.00  0.00     0.328 A
ATOM     18  H3  UNL     1      33.261 -17.555  16.580  1.00  0.00     0.173 HD
HETATM   19  O3  UNL     1      33.502 -19.965  16.786  1.00  0.00    -0.247 OA
HETATM   20  N4  UNL     1      35.693 -19.703  16.208  1.00  0.00    -0.292 N
ATOM     21  H4  UNL     1      35.868 -20.706  16.274  1.00  0.00     0.172 HD
HETATM   22  N5  UNL     1      37.993 -19.054  15.562  1.00  0.00    -0.328 N
ATOM     23  H5  UNL     1      38.470 -19.955  15.541  1.00  0.00     0.169 HD
ENDBRANCH   1   9
BRANCH   1  24
HETATM   24  N6  UNL     1      40.849 -18.715  15.113  1.00  0.00    -0.397 N
HETATM   25  C10 UNL     1      42.014 -18.505  15.887  1.00  0.00     0.145 C
HETATM   26  C11 UNL     1      42.640 -19.849  16.219  1.00  0.00     0.251 C
HETATM   27  N7  UNL     1      42.976 -20.584  15.018  1.00  0.00    -0.072 N
HETATM   28  C12 UNL     1      41.789 -20.799  14.239  1.00  0.00     0.251 C
ATOM     29  H72 UNL     1      43.713 -20.128  14.481  1.00  0.00     0.277 HD
ATOM     30  H71 UNL     1      43.465 -21.456  15.225  1.00  0.00     0.277 HD
HETATM   31  C13 UNL     1      41.007 -19.532  13.960  1.00  0.00     0.145 C
ENDBRANCH   1  24
TORSDOF 5
ENDMDL