MODEL 4
REMARK VINA RESULT: -6.644933150      0.811      1.349
REMARK  8 active torsions:
REMARK  status: ('A' for Active; 'I' for Inactive)
REMARK    1  A    between atoms: N1_1  and  C1_4
REMARK    2  A    between atoms: N4_13  and  C5_14
REMARK    3  A    between atoms: C5_14  and  C6_15
REMARK    4  A    between atoms: C6_15  and  N5_16
REMARK    5  A    between atoms: N5_16  and  C7_18
REMARK    6  A    between atoms: N7_23  and  N8_24
REMARK    7  A    between atoms: N9_30  and  C12_31
REMARK    8  A    between atoms: C12_31  and  C13_32
ROOT
HETATM    1  C1  UNL     1      39.083  21.129 -15.779  1.00  0.00     0.680 A
HETATM    2  N2  UNL     1      38.225  20.071 -15.843  1.00  0.00    -0.174 N
ATOM      3  H2  UNL     1      37.336  20.152 -16.334  1.00  0.00     0.186 HD
HETATM    4  C2  UNL     1      38.573  18.917 -15.246  1.00  0.00     0.152 A
HETATM    5  C3  UNL     1      39.803  18.822 -14.573  1.00  0.00     0.151 A
HETATM    6  C4  UNL     1      40.643  19.913 -14.528  1.00  0.00     0.290 A
HETATM    7  O1  UNL     1      41.726  19.839 -13.936  1.00  0.00    -0.265 OA
HETATM    8  N3  UNL     1      40.268  21.050 -15.133  1.00  0.00    -0.154 N
ATOM      9  H3  UNL     1      40.884  21.863 -15.106  1.00  0.00     0.187 HD
HETATM   10  N4  UNL     1      40.222  17.609 -13.962  1.00  0.00    -0.307 N
HETATM   11  C10 UNL     1      39.272  16.524 -14.116  1.00  0.00     0.242 C
HETATM   12  O2  UNL     1      39.636  15.328 -14.071  1.00  0.00    -0.271 OA
HETATM   13  C11 UNL     1      37.826  16.801 -14.331  1.00  0.00     0.227 C
HETATM   14  N9  UNL     1      37.639  17.839 -15.319  1.00  0.00    -0.356 N
ENDROOT
BRANCH  10  15
HETATM   15  C5  UNL     1      41.431  17.393 -13.242  1.00  0.00     0.153 C
BRANCH  15  16
HETATM   16  C6  UNL     1      41.229  16.691 -11.916  1.00  0.00     0.158 C
BRANCH  16  17
HETATM   17  N5  UNL     1      41.825  15.400 -11.925  1.00  0.00    -0.223 N
ATOM     18  H5  UNL     1      41.469  14.727 -11.246  1.00  0.00     0.177 HD
BRANCH  17  19
HETATM   19  C7  UNL     1      42.850  14.960 -12.770  1.00  0.00     0.690 C
HETATM   20  N6  UNL     1      42.733  14.320 -13.897  1.00  0.00    -0.223 N
HETATM   21  C8  UNL     1      43.998  14.031 -14.489  1.00  0.00     0.160 C
ATOM     22  H6  UNL     1      41.838  14.054 -14.309  1.00  0.00     0.177 HD
HETATM   23  C9  UNL     1      44.935  15.021 -13.790  1.00  0.00     0.187 C
HETATM   24  N7  UNL     1      44.233  15.157 -12.518  1.00  0.00    -0.129 N
BRANCH  24  25
HETATM   25  N8  UNL     1      44.831  15.425 -11.317  1.00  0.00    -0.329 N
ATOM     26  H82 UNL     1      45.328  14.741 -10.746  1.00  0.00     0.177 HD
ATOM     27  H81 UNL     1      44.869  16.320 -10.828  1.00  0.00     0.177 HD
ENDBRANCH  24  25
ENDBRANCH  17  19
ENDBRANCH  16  17
ENDBRANCH  15  16
ENDBRANCH  10  15
BRANCH  14  28
HETATM   28  C12 UNL     1      36.599  17.751 -16.291  1.00  0.00     0.129 C
BRANCH  28  29
HETATM   29  C13 UNL     1      35.198  17.873 -15.877  1.00  0.00     0.004 A
HETATM   30  C14 UNL     1      34.427  19.137 -15.926  1.00  0.00     0.007 A
HETATM   31  C15 UNL     1      34.704  18.447 -14.608  1.00  0.00     0.007 A
ENDBRANCH  28  29
ENDBRANCH  14  28
BRANCH   1  32
HETATM   32  N1  UNL     1      38.723  22.208 -16.358  1.00  0.00    -0.234 N
ATOM     33  H12 UNL     1      39.338  22.675 -17.025  1.00  0.00     0.174 HD
ATOM     34  H11 UNL     1      37.801  22.578 -16.127  1.00  0.00     0.174 HD
ENDBRANCH   1  32
TORSDOF 8
ENDMDL