MODEL 1
REMARK VINA RESULT: -8.232411120      0.000      0.000
REMARK  7 active torsions:
REMARK  status: ('A' for Active; 'I' for Inactive)
REMARK    1  A    between atoms: N1_1  and  C1_4
REMARK    2  A    between atoms: C2_7  and  N3_8
REMARK    3  A    between atoms: C7_18  and  N6_19
REMARK    4  A    between atoms: N6_19  and  C8_21
REMARK    5  A    between atoms: C8_21  and  C9_22
REMARK    6  A    between atoms: C9_22  and  C10_23
REMARK    7  A    between atoms: C10_23  and  C11_24
ROOT
HETATM    1  C1  UNL     1      41.057  16.477 -15.148  1.00  0.00     0.705 A
HETATM    2  N2  UNL     1      41.196  17.814 -15.139  1.00  0.00    -0.022 N
ATOM      3  H2  UNL     1      42.118  18.207 -15.326  1.00  0.00     0.203 HD
HETATM    4  C2  UNL     1      40.161  18.671 -14.892  1.00  0.00     0.709 A
HETATM    5  N5  UNL     1      38.969  18.115 -14.653  1.00  0.00    -0.021 N
ATOM      6  H5  UNL     1      38.160  18.706 -14.463  1.00  0.00     0.203 HD
HETATM    7  C7  UNL     1      38.831  16.752 -14.663  1.00  0.00     0.707 A
HETATM    8  N9  UNL     1      39.857  15.920 -14.907  1.00  0.00    -0.022 N
ATOM      9  H9  UNL     1      39.731  14.908 -14.910  1.00  0.00     0.203 HD
ENDROOT
BRANCH   7  10
HETATM   10  N6  UNL     1      37.661  16.228 -14.427  1.00  0.00    -0.225 N
ATOM     11  H6  UNL     1      37.265  15.554 -15.082  1.00  0.00     0.177 HD
BRANCH  10  12
HETATM   12  C8  UNL     1      36.914  16.603 -13.228  1.00  0.00     0.138 C
BRANCH  12  13
HETATM   13  C9  UNL     1      35.458  16.681 -13.591  1.00  0.00     0.026 C
BRANCH  13  14
HETATM   14  C10 UNL     1      35.082  18.087 -13.923  1.00  0.00     0.059 C
BRANCH  14  15
HETATM   15  C11 UNL     1      34.606  18.179 -15.309  1.00  0.00     0.019 A
HETATM   16  C12 UNL     1      34.138  19.286 -15.943  1.00  0.00     0.099 A
HETATM   17  C13 UNL     1      33.744  19.202 -17.257  1.00  0.00     0.251 A
HETATM   18  O1  UNL     1      33.310  20.234 -17.843  1.00  0.00    -0.268 OA
HETATM   19  N7  UNL     1      33.814  18.048 -17.913  1.00  0.00    -0.275 N
HETATM   20  C14 UNL     1      34.275  16.934 -17.305  1.00  0.00     0.327 A
ATOM     21  H7  UNL     1      33.517  18.003 -18.888  1.00  0.00     0.173 HD
HETATM   22  O2  UNL     1      34.315  15.879 -17.983  1.00  0.00    -0.247 OA
HETATM   23  N8  UNL     1      34.654  17.023 -16.034  1.00  0.00    -0.312 N
ATOM     24  H8  UNL     1      35.001  16.181 -15.576  1.00  0.00     0.170 HD
ENDBRANCH  14  15
ENDBRANCH  13  14
ENDBRANCH  12  13
ENDBRANCH  10  12
ENDBRANCH   7  10
BRANCH   4  25
HETATM   25  N3  UNL     1      40.352  20.070 -14.896  1.00  0.00    -0.213 N
HETATM   26  C3  UNL     1      41.500  20.675 -14.299  1.00  0.00     0.168 C
HETATM   27  C4  UNL     1      41.942  21.884 -15.116  1.00  0.00     0.252 C
HETATM   28  N4  UNL     1      40.865  22.774 -15.411  1.00  0.00    -0.072 N
HETATM   29  C5  UNL     1      39.956  22.027 -16.296  1.00  0.00     0.252 C
ATOM     30  H42 UNL     1      40.407  23.150 -14.580  1.00  0.00     0.277 HD
ATOM     31  H41 UNL     1      41.169  23.667 -15.798  1.00  0.00     0.277 HD
HETATM   32  C6  UNL     1      39.344  20.898 -15.515  1.00  0.00     0.168 C
ENDBRANCH   4  25
BRANCH   1  33
HETATM   33  N1  UNL     1      42.042  15.677 -15.383  1.00  0.00    -0.234 N
ATOM     34  H12 UNL     1      42.375  15.619 -16.346  1.00  0.00     0.174 HD
ATOM     35  H11 UNL     1      42.482  15.119 -14.653  1.00  0.00     0.174 HD
ENDBRANCH   1  33
TORSDOF 7
ENDMDL