MODEL 3
REMARK VINA RESULT: -6.935654894      4.804      6.695
REMARK  6 active torsions:
REMARK  status: ('A' for Active; 'I' for Inactive)
REMARK    1  A    between atoms: N2_5  and  C4_6
REMARK    2  A    between atoms: C4_6  and  C5_7
REMARK    3  A    between atoms: C5_7  and  C6_8
REMARK    4  A    between atoms: C6_8  and  N3_9
REMARK    5  A    between atoms: N3_9  and  C7_11
REMARK    6  A    between atoms: C10_17  and  C11_18
REMARK       I    between atoms: C11_18  and  N6_20
REMARK       I    between atoms: N6_20  and  C12_22
ROOT
HETATM    1  C7  UNL     1      39.010  19.722 -15.341  1.00  0.00     0.680 A
HETATM    2  N4  UNL     1      38.743  20.859 -15.974  1.00  0.00    -0.181 N
ATOM      3  H4  UNL     1      37.863  20.926 -16.487  1.00  0.00     0.185 HD
HETATM    4  C8  UNL     1      39.547  21.911 -15.982  1.00  0.00     0.149 A
HETATM    5  C9  UNL     1      39.183  23.097 -16.701  1.00  0.00     0.119 C
HETATM    6  N5  UNL     1      38.869  24.055 -17.305  1.00  0.00    -0.190 NA
HETATM    7  C10 UNL     1      40.771  21.831 -15.273  1.00  0.00     0.114 A
HETATM    8  C13 UNL     1      41.068  20.676 -14.610  1.00  0.00     0.133 A
HETATM    9  N9  UNL     1      42.090  20.542 -13.883  1.00  0.00    -0.384 N
ATOM     10  H91 UNL     1      42.312  19.679 -13.387  1.00  0.00     0.157 HD
ATOM     11  H92 UNL     1      42.760  21.310 -13.841  1.00  0.00     0.157 HD
HETATM   12  N10 UNL     1      40.164  19.639 -14.666  1.00  0.00    -0.176 N
ATOM     13  H10 UNL     1      40.382  18.772 -14.175  1.00  0.00     0.186 HD
ENDROOT
BRANCH   7  14
HETATM   14  C11 UNL     1      41.587  23.025 -15.298  1.00  0.00     0.264 C
HETATM   15  O1  UNL     1      42.621  23.039 -16.061  1.00  0.00    -0.267 OA
HETATM   16  N6  UNL     1      41.376  24.199 -14.560  1.00  0.00    -0.297 N
HETATM   17  C12 UNL     1      42.239  25.342 -14.665  1.00  0.00     0.188 C
ATOM     18  H6  UNL     1      40.579  24.242 -13.925  1.00  0.00     0.171 HD
HETATM   19  N7  UNL     1      41.977  26.387 -13.951  1.00  0.00    -0.373 N
HETATM   20  N8  UNL     1      43.360  25.349 -15.526  1.00  0.00    -0.064 NA
ATOM     21  H72 UNL     1      41.168  26.382 -13.330  1.00  0.00     0.158 HD
ATOM     22  H71 UNL     1      42.590  27.199 -14.025  1.00  0.00     0.158 HD
ENDBRANCH   7  14
BRANCH   1  23
HETATM   23  N3  UNL     1      38.207  18.716 -15.352  1.00  0.00    -0.226 N
ATOM     24  H3  UNL     1      37.441  18.692 -16.025  1.00  0.00     0.177 HD
BRANCH  23  25
HETATM   25  C6  UNL     1      38.373  17.619 -14.424  1.00  0.00     0.140 C
BRANCH  25  26
HETATM   26  C5  UNL     1      37.363  16.517 -14.762  1.00  0.00     0.050 C
BRANCH  26  27
HETATM   27  C4  UNL     1      36.110  16.776 -13.999  1.00  0.00     0.274 C
BRANCH  27  28
HETATM   28  N2  UNL     1      34.991  17.234 -14.773  1.00  0.00     0.094 N
HETATM   29  C3  UNL     1      35.100  16.786 -16.113  1.00  0.00     0.316 C
HETATM   30  C2  UNL     1      34.294  17.571 -17.116  1.00  0.00     0.087 C
HETATM   31  N1  UNL     1      34.391  18.972 -17.006  1.00  0.00    -0.394 N
HETATM   32  C1  UNL     1      33.321  19.719 -17.565  1.00  0.00     0.148 C
HETATM   33  C15 UNL     1      34.936  19.478 -15.789  1.00  0.00     0.151 C
HETATM   34  C14 UNL     1      34.680  18.614 -14.588  1.00  0.00     0.292 C
ENDBRANCH  27  28
ENDBRANCH  26  27
ENDBRANCH  25  26
ENDBRANCH  23  25
ENDBRANCH   1  23
TORSDOF 6
ENDMDL