MODEL 5
REMARK VINA RESULT: -7.328828587      2.242      4.499
REMARK  9 active torsions:
REMARK  status: ('A' for Active; 'I' for Inactive)
REMARK    1  A    between atoms: N1_1  and  C1_4
REMARK    2  A    between atoms: C5_14  and  N5_15
REMARK    3  A    between atoms: N5_15  and  C6_17
REMARK    4  A    between atoms: C8_24  and  N8_25
REMARK    5  A    between atoms: N8_25  and  C9_27
REMARK    6  A    between atoms: C9_27  and  C10_28
REMARK    7  A    between atoms: C10_28  and  C11_29
REMARK    8  A    between atoms: C11_29  and  C12_30
REMARK    9  A    between atoms: C12_30  and  N9_31
ROOT
HETATM    1  C6  UNL     1      39.014  15.988 -14.477  1.00  0.00     0.697 A
HETATM    2  N6  UNL     1      39.726  16.956 -15.077  1.00  0.00    -0.140 N
ATOM      3  H6  UNL     1      39.232  17.677 -15.603  1.00  0.00     0.189 HD
HETATM    4  C7  UNL     1      41.077  17.007 -15.008  1.00  0.00     0.352 A
HETATM    5  O2  UNL     1      41.753  17.912 -15.567  1.00  0.00    -0.246 OA
HETATM    6  N7  UNL     1      41.730  16.046 -14.310  1.00  0.00    -0.140 N
ATOM      7  H7  UNL     1      42.748  16.067 -14.248  1.00  0.00     0.189 HD
HETATM    8  C8  UNL     1      41.042  15.062 -13.698  1.00  0.00     0.696 A
HETATM    9  N10 UNL     1      39.685  15.047 -13.791  1.00  0.00    -0.022 N
ATOM     10  H10 UNL     1      39.163  14.302 -13.329  1.00  0.00     0.203 HD
ENDROOT
BRANCH   1  11
HETATM   11  N5  UNL     1      37.751  15.958 -14.555  1.00  0.00    -0.219 N
ATOM     12  H5  UNL     1      37.295  15.181 -14.077  1.00  0.00     0.178 HD
BRANCH  11  13
HETATM   13  C5  UNL     1      36.887  16.870 -15.221  1.00  0.00     0.118 C
HETATM   14  C4  UNL     1      35.603  16.237 -15.708  1.00  0.00     0.161 C
HETATM   15  N3  UNL     1      34.807  17.296 -16.290  1.00  0.00    -0.286 N
HETATM   16  C2  UNL     1      34.574  18.379 -15.521  1.00  0.00     0.103 A
HETATM   17  C3  UNL     1      34.298  17.257 -17.533  1.00  0.00     0.342 A
HETATM   18  N2  UNL     1      33.848  19.423 -15.956  1.00  0.00    -0.180 N
HETATM   19  C14 UNL     1      35.164  18.360 -14.157  1.00  0.00     0.079 C
HETATM   20  C1  UNL     1      33.338  19.378 -17.209  1.00  0.00     0.681 A
ATOM     21  H2  UNL     1      33.684  20.231 -15.354  1.00  0.00     0.185 HD
HETATM   22  N4  UNL     1      33.561  18.305 -17.990  1.00  0.00    -0.141 N
ATOM     23  H4  UNL     1      33.175  18.276 -18.933  1.00  0.00     0.189 HD
HETATM   24  C13 UNL     1      36.632  18.043 -14.297  1.00  0.00     0.035 C
HETATM   25  O1  UNL     1      34.521  16.251 -18.233  1.00  0.00    -0.246 OA
BRANCH  20  26
HETATM   26  N1  UNL     1      32.627  20.380 -17.659  1.00  0.00    -0.234 N
ATOM     27  H12 UNL     1      31.616  20.289 -17.753  1.00  0.00     0.174 HD
ATOM     28  H11 UNL     1      33.086  21.255 -17.913  1.00  0.00     0.174 HD
ENDBRANCH  20  26
ENDBRANCH  11  13
ENDBRANCH   1  11
BRANCH   8  29
HETATM   29  N8  UNL     1      41.712  14.175 -13.048  1.00  0.00    -0.225 N
ATOM     30  H8  UNL     1      42.052  13.339 -13.525  1.00  0.00     0.177 HD
BRANCH  29  31
HETATM   31  C9  UNL     1      41.975  14.363 -11.667  1.00  0.00     0.138 C
BRANCH  31  32
HETATM   32  C10 UNL     1      43.003  13.523 -11.030  1.00  0.00     0.022 C
BRANCH  32  33
HETATM   33  C11 UNL     1      42.700  12.834  -9.750  1.00  0.00     0.029 C
BRANCH  33  34
HETATM   34  C12 UNL     1      41.946  11.558  -9.957  1.00  0.00     0.229 C
BRANCH  34  35
HETATM   35  N9  UNL     1      42.823  10.533 -10.560  1.00  0.00    -0.079 N
ATOM     36  H93 UNL     1      42.344  10.006 -11.291  1.00  0.00     0.274 HD
ATOM     37  H92 UNL     1      43.557  10.950 -11.132  1.00  0.00     0.274 HD
ATOM     38  H91 UNL     1      43.204   9.922  -9.839  1.00  0.00     0.274 HD
ENDBRANCH  34  35
ENDBRANCH  33  34
ENDBRANCH  32  33
ENDBRANCH  31  32
ENDBRANCH  29  31
ENDBRANCH   8  29
TORSDOF 9
ENDMDL