MODEL 5
REMARK VINA RESULT: -6.361720101      3.875      8.502
REMARK  9 active torsions:
REMARK  status: ('A' for Active; 'I' for Inactive)
REMARK    1  A    between atoms: N1_2  and  C2_4
REMARK    2  A    between atoms: C3_7  and  N3_8
REMARK    3  A    between atoms: N3_8  and  C4_10
REMARK    4  A    between atoms: C4_10  and  C5_11
REMARK    5  A    between atoms: C5_11  and  O1_12
REMARK    6  A    between atoms: N5_17  and  C7_19
REMARK    7  A    between atoms: C9_21  and  N6_22
REMARK    8  A    between atoms: N6_22  and  C10_24
REMARK    9  A    between atoms: C10_24  and  C11_25
ROOT
HETATM    1  C2  UNL     1      44.140  15.666 -16.277  1.00  0.00     0.706 A
HETATM    2  N2  UNL     1      45.032  14.666 -16.088  1.00  0.00    -0.022 N
ATOM      3  H2  UNL     1      45.857  14.622 -16.685  1.00  0.00     0.203 HD
HETATM    4  C3  UNL     1      44.866  13.729 -15.138  1.00  0.00     0.707 A
HETATM    5  N4  UNL     1      43.764  13.812 -14.363  1.00  0.00    -0.021 N
ATOM      6  H4  UNL     1      43.618  13.111 -13.636  1.00  0.00     0.203 HD
HETATM    7  C6  UNL     1      42.857  14.783 -14.514  1.00  0.00     0.713 A
HETATM    8  N5  UNL     1      41.829  14.829 -13.764  1.00  0.00    -0.175 N
ATOM      9  H5  UNL     1      41.721  14.110 -13.050  1.00  0.00     0.186 HD
HETATM   10  N10 UNL     1      43.043  15.701 -15.464  1.00  0.00    -0.021 N
ATOM     11  H10 UNL     1      42.354  16.444 -15.585  1.00  0.00     0.203 HD
ENDROOT
BRANCH   8  12
HETATM   12  C7  UNL     1      40.824  15.832 -13.868  1.00  0.00     0.125 A
HETATM   13  C8  UNL     1      39.554  15.495 -14.308  1.00  0.00     0.097 A
HETATM   14  C9  UNL     1      38.595  16.480 -14.400  1.00  0.00     0.105 A
HETATM   15  N8  UNL     1      38.921  17.746 -14.061  1.00  0.00    -0.339 N
HETATM   16  C15 UNL     1      40.157  18.084 -13.632  1.00  0.00     0.183 A
ATOM     17  H8  UNL     1      38.209  18.473 -14.131  1.00  0.00     0.168 HD
HETATM   18  N9  UNL     1      41.075  17.101 -13.550  1.00  0.00    -0.338 N
ATOM     19  H9  UNL     1      42.012  17.342 -13.227  1.00  0.00     0.168 HD
BRANCH  14  20
HETATM   20  N6  UNL     1      37.420  16.147 -14.811  1.00  0.00    -0.374 N
ATOM     21  H6  UNL     1      37.025  15.265 -14.481  1.00  0.00     0.161 HD
BRANCH  20  22
HETATM   22  C10 UNL     1      36.634  16.950 -15.708  1.00  0.00     0.154 C
BRANCH  22  23
HETATM   23  C11 UNL     1      35.150  16.850 -15.421  1.00  0.00     0.203 C
HETATM   24  C12 UNL     1      34.751  18.073 -14.652  1.00  0.00     0.036 C
HETATM   25  C13 UNL     1      34.602  19.120 -15.748  1.00  0.00     0.029 C
HETATM   26  C14 UNL     1      34.421  18.321 -17.009  1.00  0.00     0.233 C
HETATM   27  N7  UNL     1      34.376  16.933 -16.625  1.00  0.00    -0.069 N
ATOM     28  H72 UNL     1      34.684  16.293 -17.358  1.00  0.00     0.277 HD
ATOM     29  H71 UNL     1      33.431  16.562 -16.534  1.00  0.00     0.277 HD
ENDBRANCH  22  23
ENDBRANCH  20  22
ENDBRANCH  14  20
ENDBRANCH   8  12
BRANCH   4  30
HETATM   30  N3  UNL     1      45.688  12.761 -14.924  1.00  0.00    -0.223 N
ATOM     31  H3  UNL     1      46.048  12.648 -13.976  1.00  0.00     0.177 HD
BRANCH  30  32
HETATM   32  C4  UNL     1      46.134  11.834 -15.917  1.00  0.00     0.164 C
BRANCH  32  33
HETATM   33  C5  UNL     1      46.082  10.396 -15.425  1.00  0.00     0.184 C
BRANCH  33  34
HETATM   34  O1  UNL     1      44.873  10.242 -14.746  1.00  0.00    -0.399 OA
ATOM     35  H1  UNL     1      45.083  10.157 -13.823  1.00  0.00     0.209 HD
ENDBRANCH  33  34
ENDBRANCH  32  33
ENDBRANCH  30  32
ENDBRANCH   4  30
BRANCH   1  36
HETATM   36  N1  UNL     1      44.282  16.575 -17.183  1.00  0.00    -0.229 N
HETATM   37  C1  UNL     1      44.899  16.255 -18.447  1.00  0.00     0.165 C
ATOM     38  H1  UNL     1      43.955  17.524 -17.004  1.00  0.00     0.177 HD
ENDBRANCH   1  36
TORSDOF 9
ENDMDL