MODEL 1
REMARK VINA RESULT: -7.790076100      0.000      0.000
REMARK  7 active torsions:
REMARK  status: ('A' for Active; 'I' for Inactive)
REMARK    1  A    between atoms: C1_2  and  C2_4
REMARK    2  A    between atoms: C2_4  and  C3_5
REMARK    3  A    between atoms: C3_5  and  N1_6
REMARK    4  A    between atoms: N1_6  and  C4_8
REMARK    5  A    between atoms: C5_11  and  N3_12
REMARK    6  A    between atoms: N3_12  and  C6_14
REMARK    7  A    between atoms: C6_14  and  C7_15
ROOT
HETATM    1  C4  UNL     1      39.069  18.517 -14.772  1.00  0.00     0.137 A
HETATM    2  N2  UNL     1      37.742  18.431 -14.967  1.00  0.00    -0.176 N
ATOM      3  H2  UNL     1      37.245  19.253 -15.309  1.00  0.00     0.186 HD
HETATM    4  C5  UNL     1      37.037  17.300 -14.727  1.00  0.00     0.682 A
HETATM    5  N7  UNL     1      37.637  16.186 -14.276  1.00  0.00    -0.169 N
ATOM      6  H7  UNL     1      37.101  15.336 -14.099  1.00  0.00     0.186 HD
HETATM    7  C9  UNL     1      38.976  16.225 -14.065  1.00  0.00     0.187 A
HETATM    8  O4  UNL     1      39.630  15.176 -13.624  1.00  0.00    -0.242 OA
HETATM    9  C10 UNL     1      40.919  15.156 -13.402  1.00  0.00     0.374 A
HETATM   10  O5  UNL     1      41.519  14.117 -12.974  1.00  0.00    -0.238 OA
HETATM   11  N8  UNL     1      41.656  16.269 -13.630  1.00  0.00    -0.268 N
ATOM     12  H8  UNL     1      42.661  16.255 -13.458  1.00  0.00     0.174 HD
HETATM   13  C11 UNL     1      41.079  17.384 -14.079  1.00  0.00     0.268 A
HETATM   14  O6  UNL     1      41.704  18.447 -14.309  1.00  0.00    -0.267 OA
HETATM   15  C12 UNL     1      39.708  17.373 -14.305  1.00  0.00     0.128 A
ENDROOT
BRANCH   4  16
HETATM   16  N3  UNL     1      35.765  17.279 -14.934  1.00  0.00    -0.219 N
ATOM     17  H3  UNL     1      35.322  16.400 -15.199  1.00  0.00     0.178 HD
BRANCH  16  18
HETATM   18  C6  UNL     1      34.943  18.467 -14.802  1.00  0.00     0.216 C
BRANCH  18  19
HETATM   19  C7  UNL     1      34.538  18.991 -16.128  1.00  0.00     0.118 A
HETATM   20  N4  UNL     1      35.201  18.988 -17.278  1.00  0.00    -0.283 N
HETATM   21  N5  UNL     1      34.447  19.564 -18.205  1.00  0.00    -0.250 N
ATOM     22  H4  UNL     1      36.135  18.607 -17.424  1.00  0.00     0.188 HD
HETATM   23  C8  UNL     1      33.278  19.944 -17.641  1.00  0.00     0.340 A
ATOM     24  H5  UNL     1      34.706  19.697 -19.182  1.00  0.00     0.192 HD
HETATM   25  O3  UNL     1      32.343  20.521 -18.253  1.00  0.00    -0.245 OA
HETATM   26  N6  UNL     1      33.348  19.581 -16.349  1.00  0.00    -0.294 N
ATOM     27  H6  UNL     1      32.621  19.730 -15.650  1.00  0.00     0.172 HD
ENDBRANCH  18  19
ENDBRANCH  16  18
ENDBRANCH   4  16
BRANCH   1  28
HETATM   28  N1  UNL     1      39.802  19.529 -14.965  1.00  0.00    -0.374 N
ATOM     29  H1  UNL     1      40.790  19.450 -14.724  1.00  0.00     0.161 HD
BRANCH  28  30
HETATM   30  C3  UNL     1      39.343  20.783 -15.500  1.00  0.00     0.132 C
BRANCH  30  31
HETATM   31  C2  UNL     1      40.512  21.614 -15.992  1.00  0.00     0.132 C
BRANCH  31  32
HETATM   32  C1  UNL     1      41.086  21.115 -17.259  1.00  0.00     0.174 C
HETATM   33  O1  UNL     1      41.847  20.118 -17.215  1.00  0.00    -0.648 OA
HETATM   34  O2  UNL     1      40.762  21.767 -18.443  1.00  0.00    -0.648 OA
ENDBRANCH  31  32
ENDBRANCH  30  31
ENDBRANCH  28  30
ENDBRANCH   1  28
TORSDOF 7
ENDMDL