MODEL 1
REMARK VINA RESULT: -6.553007398      0.000      0.000
REMARK  7 active torsions:
REMARK  status: ('A' for Active; 'I' for Inactive)
REMARK    1  A    between atoms: N1_2  and  C2_3
REMARK    2  A    between atoms: N1_2  and  S1_27
REMARK    3  A    between atoms: C2_3  and  C3_4
REMARK    4  A    between atoms: C3_4  and  N2_5
REMARK    5  A    between atoms: C3_4  and  C9_22
REMARK    6  A    between atoms: C5_11  and  N5_12
REMARK    7  A    between atoms: C9_22  and  O3_25
ROOT
HETATM    1  N2  UNL     1      38.463  18.231 -15.364  1.00  0.00    -0.242 N
HETATM    2  N3  UNL     1      37.803  19.337 -15.676  1.00  0.00    -0.278 N
ATOM      3  H3  UNL     1      38.208  20.274 -15.669  1.00  0.00     0.189 HD
HETATM    4  C4  UNL     1      36.531  19.061 -16.000  1.00  0.00     0.157 A
HETATM    5  N4  UNL     1      35.461  19.792 -16.384  1.00  0.00    -0.174 N
ATOM      6  H4  UNL     1      35.544  20.805 -16.475  1.00  0.00     0.186 HD
HETATM    7  C5  UNL     1      34.289  19.193 -16.644  1.00  0.00     0.680 A
HETATM    8  N6  UNL     1      34.168  17.848 -16.524  1.00  0.00    -0.155 N
ATOM      9  H6  UNL     1      33.268  17.413 -16.725  1.00  0.00     0.187 HD
HETATM   10  C6  UNL     1      35.190  17.078 -16.149  1.00  0.00     0.279 A
HETATM   11  O1  UNL     1      35.114  15.833 -16.028  1.00  0.00    -0.266 OA
HETATM   12  C7  UNL     1      36.402  17.699 -15.881  1.00  0.00     0.147 A
HETATM   13  C8  UNL     1      37.614  17.194 -15.483  1.00  0.00     0.282 A
HETATM   14  O2  UNL     1      37.849  15.958 -15.276  1.00  0.00    -0.265 OA
ENDROOT
BRANCH   1  15
HETATM   15  C3  UNL     1      39.850  18.088 -14.959  1.00  0.00     0.184 C
BRANCH  15  16
HETATM   16  C2  UNL     1      39.988  17.938 -13.465  1.00  0.00     0.108 C
BRANCH  16  17
HETATM   17  N1  UNL     1      40.919  16.991 -13.051  1.00  0.00    -0.274 N
HETATM   18  C1  UNL     1      40.710  15.631 -13.339  1.00  0.00     0.171 C
BRANCH  17  19
HETATM   19  S1  UNL     1      41.957  17.374 -11.791  1.00  0.00     0.210 S
HETATM   20  O4  UNL     1      42.605  18.721 -12.086  1.00  0.00    -0.578 OA
HETATM   21  O5  UNL     1      43.006  16.312 -11.637  1.00  0.00    -0.578 OA
HETATM   22  O6  UNL     1      41.063  17.532 -10.367  1.00  0.00    -0.578 OA
ENDBRANCH  17  19
ENDBRANCH  16  17
ENDBRANCH  15  16
BRANCH  15  23
HETATM   23  C9  UNL     1      40.648  19.262 -15.486  1.00  0.00     0.078 C
HETATM   24  C10 UNL     1      42.022  18.831 -15.907  1.00  0.00     0.048 C
HETATM   25  C11 UNL     1      40.660  20.427 -14.538  1.00  0.00     0.048 C
BRANCH  23  26
HETATM   26  O3  UNL     1      39.982  19.686 -16.658  1.00  0.00    -0.388 OA
ATOM     27  H3  UNL     1      39.867  20.624 -16.566  1.00  0.00     0.210 HD
ENDBRANCH  23  26
ENDBRANCH  15  23
ENDBRANCH   1  15
BRANCH   7  28
HETATM   28  N5  UNL     1      33.271  19.909 -17.011  1.00  0.00    -0.234 N
ATOM     29  H52 UNL     1      32.355  19.755 -16.587  1.00  0.00     0.174 HD
ATOM     30  H51 UNL     1      33.393  20.628 -17.724  1.00  0.00     0.174 HD
ENDBRANCH   7  28
TORSDOF 7
ENDMDL