MODEL 4
REMARK VINA RESULT: -6.601502970      3.791      7.357
REMARK  6 active torsions:
REMARK  status: ('A' for Active; 'I' for Inactive)
REMARK    1  A    between atoms: N1_2  and  C3_4
REMARK    2  A    between atoms: C3_4  and  C4_5
REMARK    3  A    between atoms: C4_5  and  N2_6
REMARK    4  A    between atoms: C5_8  and  C6_9
REMARK    5  A    between atoms: C10_19  and  C11_20
REMARK    6  A    between atoms: C12_21  and  O2_22
ROOT
HETATM    1  C6  UNL     1      39.770  19.110 -14.541  1.00  0.00     0.047 A
HETATM    2  C7  UNL     1      40.094  20.360 -14.917  1.00  0.00     0.134 A
HETATM    3  N3  UNL     1      39.152  21.090 -15.672  1.00  0.00    -0.082 NA
HETATM    4  N4  UNL     1      41.327  20.976 -14.598  1.00  0.00    -0.296 N
ATOM      5  H4  UNL     1      41.518  21.928 -14.909  1.00  0.00     0.171 HD
HETATM    6  C8  UNL     1      42.282  20.272 -13.851  1.00  0.00     0.326 A
HETATM    7  O1  UNL     1      43.415  20.789 -13.537  1.00  0.00    -0.247 OA
HETATM    8  N5  UNL     1      41.972  18.956 -13.438  1.00  0.00    -0.308 N
ATOM      9  H5  UNL     1      42.661  18.437 -12.892  1.00  0.00     0.170 HD
HETATM   10  C9  UNL     1      40.712  18.318 -13.762  1.00  0.00     0.052 A
HETATM   11  C10 UNL     1      40.447  17.119 -13.314  1.00  0.00     0.052 C
ENDROOT
BRANCH   1  12
HETATM   12  C5  UNL     1      38.483  18.604 -14.936  1.00  0.00     0.100 C
HETATM   13  N2  UNL     1      37.966  18.414 -16.063  1.00  0.00    -0.396 N
ATOM     14  H2  UNL     1      38.553  18.657 -16.860  1.00  0.00     0.158 HD
BRANCH  13  15
HETATM   15  C4  UNL     1      36.684  17.910 -16.384  1.00  0.00     0.149 C
BRANCH  15  16
HETATM   16  C3  UNL     1      36.273  16.666 -15.675  1.00  0.00     0.290 C
BRANCH  16  17
HETATM   17  N1  UNL     1      35.208  16.851 -14.739  1.00  0.00     0.081 N
HETATM   18  C1  UNL     1      34.661  18.193 -14.982  1.00  0.00     0.309 C
HETATM   19  C2  UNL     1      35.594  16.781 -13.361  1.00  0.00     0.309 C
ENDBRANCH  16  17
ENDBRANCH  15  16
ENDBRANCH  13  15
ENDBRANCH   1  12
BRANCH  11  20
HETATM   20  C11 UNL     1      41.405  16.339 -12.547  1.00  0.00     0.085 A
HETATM   21  C12 UNL     1      42.149  15.312 -13.117  1.00  0.00     0.160 A
HETATM   22  N6  UNL     1      43.034  14.656 -12.350  1.00  0.00    -0.288 N
HETATM   23  C13 UNL     1      43.243  14.930 -11.065  1.00  0.00     0.329 A
ATOM     24  H6  UNL     1      43.577  13.905 -12.776  1.00  0.00     0.172 HD
HETATM   25  O3  UNL     1      44.072  14.313 -10.348  1.00  0.00    -0.247 OA
HETATM   26  N7  UNL     1      42.548  15.910 -10.476  1.00  0.00    -0.275 N
HETATM   27  C14 UNL     1      41.652  16.595 -11.204  1.00  0.00     0.264 A
ATOM     28  H7  UNL     1      42.696  16.132  -9.491  1.00  0.00     0.173 HD
HETATM   29  O4  UNL     1      41.005  17.512 -10.640  1.00  0.00    -0.267 OA
BRANCH  21  30
HETATM   30  O2  UNL     1      42.008  14.939 -14.450  1.00  0.00    -0.345 OA
ATOM     31  H2  UNL     1      42.463  14.192 -14.821  1.00  0.00     0.219 HD
ENDBRANCH  21  30
ENDBRANCH  11  20
TORSDOF 6
ENDMDL