MODEL 3
REMARK VINA RESULT: -6.352186722      2.633      6.584
REMARK  8 active torsions:
REMARK  status: ('A' for Active; 'I' for Inactive)
REMARK    1  A    between atoms: N1_1  and  C1_4
REMARK    2  A    between atoms: C4_13  and  C5_14
REMARK       I    between atoms: C5_14  and  N5_16
REMARK    3  A    between atoms: N5_16  and  C6_18
REMARK    4  A    between atoms: C6_18  and  C12_27
REMARK    5  A    between atoms: C7_19  and  O3_20
REMARK    6  A    between atoms: C7_19  and  N6_22
REMARK    7  A    between atoms: C12_27  and  N7_28
REMARK    8  A    between atoms: C12_27  and  C13_32
ROOT
HETATM    1  C5  UNL     1      41.598  18.030 -14.166  1.00  0.00     0.263 C
HETATM    2  O2  UNL     1      42.552  18.335 -14.963  1.00  0.00    -0.267 OA
HETATM    3  N5  UNL     1      40.507  18.857 -13.964  1.00  0.00    -0.320 N
ATOM      4  H5  UNL     1      40.486  19.382 -13.089  1.00  0.00     0.169 HD
ENDROOT
BRANCH   3   5
HETATM    5  C6  UNL     1      39.486  19.037 -14.790  1.00  0.00     0.102 C
HETATM    6  C7  UNL     1      38.394  18.161 -14.590  1.00  0.00     0.164 C
BRANCH   6   7
HETATM    7  O3  UNL     1      38.586  17.303 -13.583  1.00  0.00    -0.345 OA
ATOM      8  H3  UNL     1      38.791  16.423 -13.877  1.00  0.00     0.219 HD
ENDBRANCH   6   7
BRANCH   6   9
HETATM    9  N6  UNL     1      37.147  17.988 -15.212  1.00  0.00    -0.360 N
HETATM   10  C8  UNL     1      36.625  17.702 -16.507  1.00  0.00     0.125 C
HETATM   11  C9  UNL     1      35.437  16.763 -16.239  1.00  0.00     0.021 C
HETATM   12  C10 UNL     1      35.179  16.865 -14.763  1.00  0.00     0.021 C
HETATM   13  C11 UNL     1      35.871  18.152 -14.412  1.00  0.00     0.125 C
ENDBRANCH   6   9
BRANCH   5  14
HETATM   14  C12 UNL     1      39.631  20.102 -15.768  1.00  0.00     0.325 C
BRANCH  14  15
HETATM   15  N7  UNL     1      38.465  20.921 -15.991  1.00  0.00    -0.061 N
ATOM     16  H73 UNL     1      37.651  20.329 -16.147  1.00  0.00     0.275 HD
ATOM     17  H72 UNL     1      38.194  21.380 -15.121  1.00  0.00     0.275 HD
ATOM     18  H71 UNL     1      38.539  21.612 -16.738  1.00  0.00     0.275 HD
ENDBRANCH  14  15
BRANCH  14  19
HETATM   19  C13 UNL     1      40.817  20.975 -15.597  1.00  0.00     0.268 C
HETATM   20  N8  UNL     1      41.742  21.127 -16.640  1.00  0.00    -0.060 NA
HETATM   21  O4  UNL     1      40.983  21.568 -14.517  1.00  0.00    -0.274 OA
ENDBRANCH  14  19
ENDBRANCH   5  14
ENDBRANCH   3   5
BRANCH   1  22
HETATM   22  C4  UNL     1      41.721  16.757 -13.478  1.00  0.00     0.117 A
HETATM   23  C1  UNL     1      41.766  15.599 -14.209  1.00  0.00     0.122 A
HETATM   24  N2  UNL     1      41.871  14.432 -13.505  1.00  0.00    -0.294 N
HETATM   25  C2  UNL     1      41.929  14.424 -12.161  1.00  0.00     0.327 A
ATOM     26  H2  UNL     1      41.908  13.547 -14.011  1.00  0.00     0.172 HD
HETATM   27  O1  UNL     1      42.026  13.335 -11.541  1.00  0.00    -0.247 OA
HETATM   28  N3  UNL     1      41.882  15.574 -11.466  1.00  0.00    -0.296 N
HETATM   29  C3  UNL     1      41.778  16.756 -12.093  1.00  0.00     0.139 A
ATOM     30  H3  UNL     1      41.927  15.547 -10.448  1.00  0.00     0.171 HD
HETATM   31  N4  UNL     1      41.732  17.953 -11.334  1.00  0.00    -0.081 NA
BRANCH  23  32
HETATM   32  N1  UNL     1      41.707  15.534 -15.501  1.00  0.00    -0.384 N
ATOM     33  H12 UNL     1      42.388  15.062 -16.094  1.00  0.00     0.157 HD
ATOM     34  H11 UNL     1      40.928  15.993 -15.974  1.00  0.00     0.157 HD
ENDBRANCH  23  32
ENDBRANCH   1  22
TORSDOF 8
ENDMDL