MODEL 3
REMARK VINA RESULT: -6.857126335      0.967      1.553
REMARK  7 active torsions:
REMARK  status: ('A' for Active; 'I' for Inactive)
REMARK    1  A    between atoms: C2_2  and  N1_4
REMARK    2  A    between atoms: N1_4  and  C4_6
REMARK    3  A    between atoms: C5_9  and  N3_10
REMARK    4  A    between atoms: N3_10  and  N4_12
REMARK       I    between atoms: N4_12  and  C6_14
REMARK    5  A    between atoms: N9_26  and  C9_28
REMARK    6  A    between atoms: C9_28  and  C10_29
REMARK    7  A    between atoms: C10_29  and  N10_30
ROOT
HETATM    1  C4  UNL     1      37.012  18.066 -15.432  1.00  0.00     0.694 C
HETATM    2  N2  UNL     1      37.503  16.853 -15.073  1.00  0.00    -0.021 N
ATOM      3  H2  UNL     1      36.880  16.064 -15.245  1.00  0.00     0.203 HD
HETATM    4  C5  UNL     1      38.708  16.532 -14.515  1.00  0.00     0.713 C
HETATM    5  N7  UNL     1      39.802  17.314 -14.371  1.00  0.00    -0.171 N
ATOM      6  H7  UNL     1      40.645  16.866 -14.012  1.00  0.00     0.186 HD
HETATM    7  C7  UNL     1      39.887  18.658 -14.664  1.00  0.00     0.159 C
HETATM    8  N8  UNL     1      40.700  19.326 -13.977  1.00  0.00    -0.382 N
ATOM      9  H81 UNL     1      40.763  20.321 -14.193  1.00  0.00     0.157 HD
ATOM     10  H82 UNL     1      41.252  18.845 -13.267  1.00  0.00     0.157 HD
HETATM   11  C8  UNL     1      39.147  19.304 -15.616  1.00  0.00     0.161 C
HETATM   12  N9  UNL     1      39.679  20.081 -16.421  1.00  0.00    -0.371 N
ATOM     13  H9  UNL     1      39.035  20.511 -17.084  1.00  0.00     0.161 HD
HETATM   14  N11 UNL     1      37.780  19.133 -15.790  1.00  0.00    -0.173 N
ATOM     15  H11 UNL     1      37.289  19.903 -16.243  1.00  0.00     0.186 HD
ENDROOT
BRANCH   4  16
HETATM   16  N3  UNL     1      38.861  15.341 -14.054  1.00  0.00    -0.129 N
ATOM     17  H3  UNL     1      38.027  14.842 -13.743  1.00  0.00     0.205 HD
BRANCH  16  18
HETATM   18  N4  UNL     1      40.069  14.691 -13.951  1.00  0.00    -0.260 N
HETATM   19  C6  UNL     1      40.725  14.629 -12.689  1.00  0.00     0.201 C
HETATM   20  N5  UNL     1      40.797  13.500 -12.083  1.00  0.00    -0.372 N
HETATM   21  N6  UNL     1      41.287  15.793 -12.111  1.00  0.00    -0.062 NA
ATOM     22  H52 UNL     1      40.392  12.662 -12.499  1.00  0.00     0.158 HD
ATOM     23  H51 UNL     1      41.267  13.456 -11.178  1.00  0.00     0.158 HD
ATOM     24  H4  UNL     1      40.491  14.258 -14.771  1.00  0.00     0.190 HD
ENDBRANCH  16  18
ENDBRANCH   4  16
BRANCH   1  25
HETATM   25  N1  UNL     1      35.752  18.277 -15.449  1.00  0.00    -0.222 N
ATOM     26  H1  UNL     1      35.246  18.337 -14.565  1.00  0.00     0.178 HD
BRANCH  25  27
HETATM   27  C2  UNL     1      35.029  18.432 -16.686  1.00  0.00     0.091 C
HETATM   28  C1  UNL     1      34.452  17.071 -17.073  1.00  0.00     0.032 C
HETATM   29  C3  UNL     1      33.931  19.464 -16.555  1.00  0.00     0.032 C
ENDBRANCH  25  27
ENDBRANCH   1  25
BRANCH  12  30
HETATM   30  C9  UNL     1      41.015  20.468 -16.573  1.00  0.00     0.151 C
BRANCH  30  31
HETATM   31  C10 UNL     1      41.047  22.014 -16.497  1.00  0.00     0.292 C
BRANCH  31  32
HETATM   32  N10 UNL     1      41.218  22.561 -17.829  1.00  0.00     0.090 N
HETATM   33  C11 UNL     1      40.008  23.083 -18.378  1.00  0.00     0.272 C
HETATM   34  C12 UNL     1      40.226  22.959 -19.870  1.00  0.00     0.032 C
HETATM   35  C13 UNL     1      40.854  21.560 -19.946  1.00  0.00     0.032 C
HETATM   36  C14 UNL     1      41.800  21.641 -18.745  1.00  0.00     0.272 C
ENDBRANCH  31  32
ENDBRANCH  30  31
ENDBRANCH  12  30
TORSDOF 7
ENDMDL