MODEL 4
REMARK VINA RESULT: -6.258067553      2.561      5.334
REMARK  5 active torsions:
REMARK  status: ('A' for Active; 'I' for Inactive)
REMARK    1  A    between atoms: C2_2  and  N1_3
REMARK    2  A    between atoms: C2_2  and  C3_7
REMARK    3  A    between atoms: C3_7  and  N4_13
REMARK    4  A    between atoms: N2_8  and  N3_10
REMARK    5  A    between atoms: N4_13  and  C4_15
ROOT
HETATM    1  N4  UNL     1      36.231  18.342 -16.684  1.00  0.00    -0.177 N
ATOM      2  H4  UNL     1      36.709  19.159 -17.062  1.00  0.00     0.185 HD
ENDROOT
BRANCH   1   3
HETATM    3  C3  UNL     1      34.989  17.964 -17.234  1.00  0.00     0.141 C
HETATM    4  N2  UNL     1      34.900  16.821 -17.802  1.00  0.00    -0.293 N
ATOM      5  H2  UNL     1      35.710  16.202 -17.848  1.00  0.00     0.187 HD
BRANCH   3   6
HETATM    6  C2  UNL     1      33.797  18.839 -17.184  1.00  0.00     0.248 C
HETATM    7  C1  UNL     1      33.651  19.559 -15.855  1.00  0.00     0.048 C
BRANCH   6   8
HETATM    8  N1  UNL     1      33.798  19.841 -18.222  1.00  0.00    -0.069 N
ATOM      9  H13 UNL     1      33.950  20.784 -17.864  1.00  0.00     0.275 HD
ATOM     10  H12 UNL     1      34.621  19.791 -18.822  1.00  0.00     0.275 HD
ATOM     11  H11 UNL     1      32.923  19.748 -18.737  1.00  0.00     0.275 HD
ENDBRANCH   6   8
ENDBRANCH   3   6
BRANCH   4  12
HETATM   12  N3  UNL     1      33.684  16.433 -18.358  1.00  0.00    -0.344 N
ATOM     13  H32 UNL     1      32.844  16.439 -17.780  1.00  0.00     0.176 HD
ATOM     14  H31 UNL     1      33.653  16.149 -19.338  1.00  0.00     0.176 HD
ENDBRANCH   4  12
ENDBRANCH   1   3
BRANCH   1  15
HETATM   15  C4  UNL     1      36.777  17.693 -15.726  1.00  0.00     0.691 A
HETATM   16  N5  UNL     1      38.066  17.334 -15.751  1.00  0.00    -0.141 N
HETATM   17  C5  UNL     1      38.652  16.651 -14.747  1.00  0.00     0.342 A
ATOM     18  H5  UNL     1      38.629  17.588 -16.564  1.00  0.00     0.189 HD
HETATM   19  O1  UNL     1      39.866  16.353 -14.850  1.00  0.00    -0.246 OA
HETATM   20  N6  UNL     1      37.921  16.319 -13.689  1.00  0.00    -0.260 N
HETATM   21  C6  UNL     1      36.613  16.662 -13.621  1.00  0.00     0.342 A
ATOM     22  H6  UNL     1      38.349  15.800 -12.922  1.00  0.00     0.175 HD
HETATM   23  O2  UNL     1      35.951  16.329 -12.598  1.00  0.00    -0.246 OA
HETATM   24  N7  UNL     1      36.044  17.342 -14.629  1.00  0.00    -0.141 N
ATOM     25  H7  UNL     1      35.058  17.598 -14.574  1.00  0.00     0.189 HD
ENDBRANCH   1  15
TORSDOF 5
ENDMDL