MODEL 1
REMARK VINA RESULT: -6.437920729      0.000      0.000
REMARK  4 active torsions:
REMARK  status: ('A' for Active; 'I' for Inactive)
REMARK    1  A    between atoms: N1_1  and  N2_4
REMARK    2  A    between atoms: N2_4  and  S1_6
REMARK    3  A    between atoms: S1_6  and  N3_9
REMARK    4  A    between atoms: N3_9  and  C1_11
ROOT
HETATM    1  N3  UNL     1      37.627  17.926 -15.867  1.00  0.00    -0.252 N
ATOM      2  H3  UNL     1      38.330  18.520 -16.308  1.00  0.00     0.182 HD
ENDROOT
BRANCH   1   3
HETATM    3  S1  UNL     1      38.114  16.932 -14.551  1.00  0.00     0.337 S
HETATM    4  O1  UNL     1      36.918  16.739 -13.652  1.00  0.00    -0.181 OA
HETATM    5  O2  UNL     1      39.213  17.591 -13.790  1.00  0.00    -0.181 OA
BRANCH   3   6
HETATM    6  N2  UNL     1      38.638  15.384 -15.053  1.00  0.00    -0.216 N
ATOM      7  H2  UNL     1      38.364  14.932 -15.925  1.00  0.00     0.201 HD
BRANCH   6   8
HETATM    8  N1  UNL     1      39.505  14.819 -14.091  1.00  0.00    -0.335 N
ATOM      9  H12 UNL     1      39.268  14.010 -13.516  1.00  0.00     0.177 HD
ATOM     10  H11 UNL     1      40.386  15.332 -14.058  1.00  0.00     0.177 HD
ENDBRANCH   6   8
ENDBRANCH   3   6
ENDBRANCH   1   3
BRANCH   1  11
HETATM   11  C1  UNL     1      36.443  17.962 -16.320  1.00  0.00     0.121 A
HETATM   12  C2  UNL     1      35.657  19.108 -16.321  1.00  0.00     0.066 A
HETATM   13  C3  UNL     1      34.376  19.057 -16.835  1.00  0.00     0.096 A
HETATM   14  N4  UNL     1      33.861  17.924 -17.340  1.00  0.00    -0.319 N
HETATM   15  C4  UNL     1      34.628  16.828 -17.333  1.00  0.00     0.325 A
ATOM     16  H4  UNL     1      32.914  17.900 -17.717  1.00  0.00     0.170 HD
HETATM   17  O3  UNL     1      34.183  15.745 -17.798  1.00  0.00    -0.247 OA
HETATM   18  N5  UNL     1      35.882  16.858 -16.835  1.00  0.00    -0.294 N
ATOM     19  H5  UNL     1      36.431  15.998 -16.852  1.00  0.00     0.172 HD
ENDBRANCH   1  11
TORSDOF 4
ENDMDL