MODEL 1
REMARK VINA RESULT: -6.177691883      0.000      0.000
REMARK  1 active torsions:
REMARK  status: ('A' for Active; 'I' for Inactive)
REMARK    1  A    between atoms: C5_14  and  C6_15
ROOT
HETATM    1  N1  UNL     1      39.618  14.587 -14.271  1.00  0.00    -0.234 N
ATOM      2  H11 UNL     1      38.977  13.856 -14.580  1.00  0.00     0.174 HD
ATOM      3  H12 UNL     1      40.552  14.506 -13.870  1.00  0.00     0.174 HD
HETATM    4  C1  UNL     1      39.210  15.826 -14.395  1.00  0.00     0.680 C
HETATM    5  N2  UNL     1      40.104  16.845 -13.965  1.00  0.00    -0.152 N
ATOM      6  H2  UNL     1      40.874  16.534 -13.374  1.00  0.00     0.188 HD
HETATM    7  C2  UNL     1      40.069  18.239 -14.248  1.00  0.00     0.328 C
HETATM    8  O1  UNL     1      40.973  18.960 -13.767  1.00  0.00    -0.261 OA
HETATM    9  C3  UNL     1      39.062  18.952 -15.067  1.00  0.00     0.315 C
HETATM   10  O2  UNL     1      39.215  20.190 -15.218  1.00  0.00    -0.262 OA
HETATM   11  N3  UNL     1      37.913  18.370 -15.715  1.00  0.00    -0.304 N
ATOM     12  H3  UNL     1      37.552  18.868 -16.530  1.00  0.00     0.171 HD
HETATM   13  C4  UNL     1      37.224  17.176 -15.345  1.00  0.00     0.128 C
HETATM   14  C5  UNL     1      35.935  17.167 -15.328  1.00  0.00     0.120 C
HETATM   15  N5  UNL     1      37.896  15.939 -14.960  1.00  0.00    -0.177 N
ATOM     16  H5  UNL     1      37.381  15.070 -15.106  1.00  0.00     0.185 HD
ENDROOT
BRANCH  14  17
HETATM   17  C6  UNL     1      35.047  18.244 -15.640  1.00  0.00     0.258 C
HETATM   18  N4  UNL     1      35.256  19.088 -16.794  1.00  0.00    -0.058 NA
HETATM   19  O3  UNL     1      34.023  18.543 -14.947  1.00  0.00    -0.272 OA
ENDBRANCH  14  17
TORSDOF 1
ENDMDL