MODEL 3
REMARK VINA RESULT: -5.527798618      2.242      5.025
REMARK  1 active torsions:
REMARK  status: ('A' for Active; 'I' for Inactive)
REMARK    1  A    between atoms: N3_11  and  C5_12
ROOT
HETATM    1  N1  UNL     1      36.511  20.176 -16.010  1.00  0.00    -0.388 N
ATOM      2  H11 UNL     1      37.209  20.148 -15.266  1.00  0.00     0.157 HD
ATOM      3  H12 UNL     1      36.251  21.052 -16.463  1.00  0.00     0.157 HD
HETATM    4  C1  UNL     1      35.956  19.044 -16.369  1.00  0.00     0.093 C
HETATM    5  C2  UNL     1      34.949  19.084 -17.443  1.00  0.00     0.198 C
HETATM    6  N2  UNL     1      34.696  17.795 -18.027  1.00  0.00    -0.353 N
ATOM      7  H2  UNL     1      34.495  17.699 -19.022  1.00  0.00     0.162 HD
HETATM    8  C3  UNL     1      34.734  16.670 -17.181  1.00  0.00     0.235 C
HETATM    9  O1  UNL     1      34.164  15.605 -17.520  1.00  0.00    -0.272 OA
HETATM   10  C4  UNL     1      35.438  16.699 -15.883  1.00  0.00     0.229 C
HETATM   11  N3  UNL     1      36.319  17.823 -15.737  1.00  0.00    -0.338 N
ENDROOT
BRANCH  11  12
HETATM   12  C5  UNL     1      37.540  17.803 -14.994  1.00  0.00     0.205 C
HETATM   13  C6  UNL     1      37.702  16.665 -14.037  1.00  0.00     0.169 C
HETATM   14  N4  UNL     1      39.168  16.733 -13.855  1.00  0.00    -0.361 N
HETATM   15  C7  UNL     1      39.646  17.167 -15.142  1.00  0.00     0.185 C
ATOM     16  H4  UNL     1      39.711  16.523 -13.018  1.00  0.00     0.162 HD
HETATM   17  N5  UNL     1      40.957  16.967 -15.659  1.00  0.00    -0.064 NA
HETATM   18  N6  UNL     1      38.720  17.772 -15.785  1.00  0.00    -0.342 N
ATOM     19  H6  UNL     1      38.815  18.170 -16.720  1.00  0.00     0.164 HD
ENDBRANCH  11  12
TORSDOF 1
ENDMDL