MODEL 3
REMARK VINA RESULT: -6.199740408      2.307      4.882
REMARK  3 active torsions:
REMARK  status: ('A' for Active; 'I' for Inactive)
REMARK    1  A    between atoms: N1_1  and  C1_5
REMARK    2  A    between atoms: C1_5  and  C2_6
REMARK    3  A    between atoms: C2_6  and  C3_7
ROOT
HETATM    1  C3  UNL     1      38.726  17.241 -15.157  1.00  0.00     0.294 C
HETATM    2  N2  UNL     1      37.858  17.228 -13.993  1.00  0.00    -0.328 N
ATOM      3  H2  UNL     1      38.127  17.400 -13.024  1.00  0.00     0.164 HD
HETATM    4  C4  UNL     1      36.565  16.928 -14.475  1.00  0.00     0.298 C
HETATM    5  O1  UNL     1      35.621  16.383 -13.825  1.00  0.00    -0.266 OA
HETATM    6  C5  UNL     1      36.519  17.370 -15.887  1.00  0.00     0.364 A
HETATM    7  N3  UNL     1      35.905  16.287 -16.664  1.00  0.00    -0.295 N
ATOM      8  H3  UNL     1      36.264  15.335 -16.732  1.00  0.00     0.167 HD
HETATM    9  C6  UNL     1      34.723  16.772 -17.309  1.00  0.00     0.313 A
HETATM   10  O2  UNL     1      33.994  16.075 -18.041  1.00  0.00    -0.262 OA
HETATM   11  C7  UNL     1      34.575  18.180 -16.943  1.00  0.00     0.313 A
HETATM   12  O3  UNL     1      33.626  18.922 -17.343  1.00  0.00    -0.262 OA
HETATM   13  N4  UNL     1      35.663  18.502 -16.090  1.00  0.00    -0.295 N
ATOM     14  H4  UNL     1      35.817  19.421 -15.674  1.00  0.00     0.167 HD
HETATM   15  N5  UNL     1      37.875  17.599 -16.268  1.00  0.00     0.001 N
ATOM     16  H51 UNL     1      38.129  17.114 -17.129  1.00  0.00     0.285 HD
ATOM     17  H52 UNL     1      38.036  18.552 -16.593  1.00  0.00     0.285 HD
ENDROOT
BRANCH   1  18
HETATM   18  C2  UNL     1      39.773  18.299 -14.915  1.00  0.00     0.082 C
BRANCH  18  19
HETATM   19  C1  UNL     1      39.261  19.695 -15.191  1.00  0.00     0.233 C
BRANCH  19  20
HETATM   20  N1  UNL     1      40.223  20.318 -16.097  1.00  0.00    -0.079 N
ATOM     21  H13 UNL     1      41.192  20.089 -15.876  1.00  0.00     0.274 HD
ATOM     22  H12 UNL     1      40.210  19.920 -17.036  1.00  0.00     0.274 HD
ATOM     23  H11 UNL     1      40.031  21.319 -16.080  1.00  0.00     0.274 HD
ENDBRANCH  19  20
ENDBRANCH  18  19
ENDBRANCH   1  18
TORSDOF 3
ENDMDL