MODEL 2
REMARK VINA RESULT: -5.825973027      2.828      5.530
REMARK  3 active torsions:
REMARK  status: ('A' for Active; 'I' for Inactive)
REMARK       I    between atoms: C1_2  and  N3_4
REMARK    1  A    between atoms: N3_4  and  N4_6
REMARK    2  A    between atoms: N4_6  and  C2_8
REMARK    3  A    between atoms: N8_18  and  C5_20
ROOT
HETATM    1  C2  UNL     1      38.131  17.614 -15.388  1.00  0.00     0.170 A
HETATM    2  N5  UNL     1      38.240  16.340 -14.932  1.00  0.00    -0.289 N
ATOM      3  H5  UNL     1      37.545  15.632 -15.168  1.00  0.00     0.172 HD
HETATM    4  C3  UNL     1      39.301  16.049 -14.157  1.00  0.00     0.340 A
HETATM    5  O1  UNL     1      39.422  14.861 -13.720  1.00  0.00    -0.245 OA
HETATM    6  N6  UNL     1      40.225  16.993 -13.847  1.00  0.00    -0.250 N
ATOM      7  H6  UNL     1      41.021  16.748 -13.259  1.00  0.00     0.192 HD
HETATM    8  N7  UNL     1      40.098  18.240 -14.307  1.00  0.00    -0.278 N
ATOM      9  H7  UNL     1      40.799  18.939 -14.064  1.00  0.00     0.189 HD
HETATM   10  C4  UNL     1      39.058  18.587 -15.084  1.00  0.00     0.168 A
HETATM   11  N8  UNL     1      38.877  19.763 -15.558  1.00  0.00    -0.316 N
ATOM     12  H8  UNL     1      38.050  19.909 -16.137  1.00  0.00     0.170 HD
ENDROOT
BRANCH   1  13
HETATM   13  N4  UNL     1      37.135  17.902 -16.120  1.00  0.00    -0.280 N
ATOM     14  H4  UNL     1      36.879  18.886 -16.200  1.00  0.00     0.188 HD
BRANCH  13  15
HETATM   15  N3  UNL     1      36.370  16.981 -16.818  1.00  0.00    -0.274 N
HETATM   16  C1  UNL     1      35.086  16.913 -16.739  1.00  0.00     0.215 C
HETATM   17  N1  UNL     1      34.421  15.916 -17.514  1.00  0.00    -0.065 NA
HETATM   18  N2  UNL     1      34.310  17.765 -15.933  1.00  0.00    -0.065 NA
ATOM     19  H3  UNL     1      36.851  16.321 -17.429  1.00  0.00     0.189 HD
ENDBRANCH  13  15
ENDBRANCH   1  13
BRANCH  11  20
HETATM   20  C5  UNL     1      39.714  20.869 -15.351  1.00  0.00     0.354 C
HETATM   21  O2  UNL     1      40.897  20.818 -15.721  1.00  0.00    -0.283 OA
ENDBRANCH  11  20
TORSDOF 3
ENDMDL