MODEL 5
REMARK VINA RESULT: -6.181971892      2.175      5.093
REMARK  5 active torsions:
REMARK  status: ('A' for Active; 'I' for Inactive)
REMARK    1  A    between atoms: N1_1  and  C1_4
REMARK    2  A    between atoms: C3_11  and  N4_12
REMARK       I    between atoms: N4_12  and  C4_14
REMARK    3  A    between atoms: C4_14  and  C5_16
REMARK    4  A    between atoms: C5_16  and  N5_17
REMARK    5  A    between atoms: C5_16  and  C6_21
ROOT
HETATM    1  C1  UNL     1      35.858  16.484 -14.195  1.00  0.00     0.694 A
HETATM    2  N2  UNL     1      34.956  16.078 -15.109  1.00  0.00    -0.141 N
ATOM      3  H2  UNL     1      34.099  15.603 -14.826  1.00  0.00     0.189 HD
HETATM    4  C2  UNL     1      35.219  16.319 -16.406  1.00  0.00     0.352 A
HETATM    5  O1  UNL     1      34.388  15.948 -17.295  1.00  0.00    -0.246 OA
HETATM    6  N3  UNL     1      36.347  16.945 -16.784  1.00  0.00    -0.140 N
ATOM      7  H3  UNL     1      36.520  17.114 -17.776  1.00  0.00     0.189 HD
HETATM    8  C3  UNL     1      37.253  17.353 -15.872  1.00  0.00     0.703 A
HETATM    9  N6  UNL     1      36.981  17.108 -14.588  1.00  0.00    -0.022 N
ATOM     10  H6  UNL     1      37.651  17.407 -13.879  1.00  0.00     0.203 HD
ENDROOT
BRANCH   8  11
HETATM   11  N4  UNL     1      38.355  17.965 -16.237  1.00  0.00    -0.157 N
HETATM   12  C4  UNL     1      39.473  18.029 -15.383  1.00  0.00     0.273 C
HETATM   13  O2  UNL     1      40.136  17.004 -15.177  1.00  0.00    -0.270 OA
ATOM     14  H4  UNL     1      38.403  18.402 -17.157  1.00  0.00     0.187 HD
BRANCH  12  15
HETATM   15  C5  UNL     1      39.828  19.306 -14.755  1.00  0.00     0.336 C
BRANCH  15  16
HETATM   16  N5  UNL     1      39.154  20.368 -15.500  1.00  0.00    -0.060 N
ATOM     17  H53 UNL     1      39.767  20.835 -16.168  1.00  0.00     0.275 HD
ATOM     18  H52 UNL     1      38.472  20.011 -16.170  1.00  0.00     0.275 HD
ATOM     19  H51 UNL     1      38.744  21.009 -14.821  1.00  0.00     0.275 HD
ENDBRANCH  15  16
BRANCH  15  20
HETATM   20  C6  UNL     1      41.294  19.543 -14.731  1.00  0.00     0.273 C
HETATM   21  O3  UNL     1      41.868  19.457 -13.668  1.00  0.00    -0.304 OA
ENDBRANCH  15  20
ENDBRANCH  12  15
ENDBRANCH   8  11
BRANCH   1  22
HETATM   22  N1  UNL     1      35.609  16.253 -12.937  1.00  0.00    -0.234 N
ATOM     23  H12 UNL     1      34.922  15.557 -12.646  1.00  0.00     0.174 HD
ATOM     24  H11 UNL     1      36.122  16.789 -12.236  1.00  0.00     0.174 HD
ENDBRANCH   1  22
TORSDOF 5
ENDMDL