MODEL 3
REMARK VINA RESULT: -6.324904873      2.957      5.256
REMARK  4 active torsions:
REMARK  status: ('A' for Active; 'I' for Inactive)
REMARK    1  A    between atoms: C2_7  and  N3_8
REMARK    2  A    between atoms: N3_8  and  C3_10
REMARK    3  A    between atoms: C3_10  and  C4_11
REMARK    4  A    between atoms: N6_17  and  O3_18
ROOT
HETATM    1  N3  UNL     1      36.234  19.454 -16.624  1.00  0.00    -0.219 N
ATOM      2  H3  UNL     1      36.861  19.947 -17.259  1.00  0.00     0.178 HD
ENDROOT
BRANCH   1   3
HETATM    3  C2  UNL     1      34.969  19.591 -16.751  1.00  0.00     0.697 A
HETATM    4  N2  UNL     1      34.134  19.763 -15.718  1.00  0.00    -0.128 N
HETATM    5  N1  UNL     1      32.924  19.866 -16.238  1.00  0.00    -0.237 N
ATOM      6  H2  UNL     1      34.382  19.806 -14.730  1.00  0.00     0.205 HD
HETATM    7  C1  UNL     1      32.982  19.761 -17.574  1.00  0.00     0.353 A
ATOM      8  H1  UNL     1      32.068  20.004 -15.700  1.00  0.00     0.192 HD
HETATM    9  O1  UNL     1      32.023  19.812 -18.402  1.00  0.00    -0.245 OA
HETATM   10  N7  UNL     1      34.263  19.590 -17.887  1.00  0.00    -0.139 N
ATOM     11  H7  UNL     1      34.640  19.477 -18.828  1.00  0.00     0.189 HD
ENDBRANCH   1   3
BRANCH   1  12
HETATM   12  C3  UNL     1      36.779  18.616 -15.597  1.00  0.00     0.205 C
BRANCH  12  13
HETATM   13  C4  UNL     1      36.015  17.345 -15.475  1.00  0.00     0.143 A
HETATM   14  C5  UNL     1      35.658  16.739 -14.288  1.00  0.00     0.286 A
HETATM   15  O2  UNL     1      35.933  17.182 -13.162  1.00  0.00    -0.265 OA
HETATM   16  N4  UNL     1      34.991  15.633 -14.579  1.00  0.00    -0.246 N
HETATM   17  N5  UNL     1      34.925  15.538 -15.895  1.00  0.00     0.009 NA
ATOM     18  H4  UNL     1      34.600  14.973 -13.907  1.00  0.00     0.187 HD
HETATM   19  N6  UNL     1      35.544  16.573 -16.467  1.00  0.00    -0.144 N
BRANCH  19  20
HETATM   20  O3  UNL     1      35.669  16.796 -17.830  1.00  0.00    -0.269 OA
ATOM     21  H3  UNL     1      35.244  16.313 -18.530  1.00  0.00     0.246 HD
ENDBRANCH  19  20
ENDBRANCH  12  13
ENDBRANCH   1  12
TORSDOF 4
ENDMDL