MODEL 3
REMARK VINA RESULT: -6.336138063      2.365      4.564
REMARK  4 active torsions:
REMARK  status: ('A' for Active; 'I' for Inactive)
REMARK    1  A    between atoms: C3_3  and  C4_4
REMARK    2  A    between atoms: C3_3  and  N3_12
REMARK    3  A    between atoms: C4_4  and  N1_5
REMARK    4  A    between atoms: C4_4  and  C5_9
ROOT
HETATM    1  C1  UNL     1      35.486  16.417 -13.050  1.00  0.00     0.014 C
HETATM    2  C2  UNL     1      35.900  17.102 -13.954  1.00  0.00    -0.087 C
HETATM    3  C3  UNL     1      36.390  17.919 -15.069  1.00  0.00     0.230 C
ENDROOT
BRANCH   3   4
HETATM    4  C4  UNL     1      37.756  17.401 -15.444  1.00  0.00     0.308 C
BRANCH   4   5
HETATM    5  N1  UNL     1      37.957  16.026 -15.049  1.00  0.00    -0.064 N
ATOM      6  H13 UNL     1      37.187  15.695 -14.469  1.00  0.00     0.275 HD
ATOM      7  H12 UNL     1      37.847  15.396 -15.844  1.00  0.00     0.275 HD
ATOM      8  H11 UNL     1      38.854  15.877 -14.587  1.00  0.00     0.275 HD
ENDBRANCH   4   5
BRANCH   4   9
HETATM    9  C5  UNL     1      38.809  18.231 -14.815  1.00  0.00     0.264 C
HETATM   10  N2  UNL     1      39.689  17.651 -13.870  1.00  0.00    -0.060 NA
HETATM   11  O1  UNL     1      38.885  19.443 -15.148  1.00  0.00    -0.274 OA
ENDBRANCH   4   9
ENDBRANCH   3   4
BRANCH   3  12
HETATM   12  N3  UNL     1      35.485  17.965 -16.176  1.00  0.00    -0.219 N
HETATM   13  N4  UNL     1      35.527  17.198 -17.276  1.00  0.00    -0.233 N
HETATM   14  N5  UNL     1      34.519  17.567 -18.032  1.00  0.00    -0.247 N
ATOM     15  H4  UNL     1      36.210  16.470 -17.483  1.00  0.00     0.208 HD
HETATM   16  C6  UNL     1      33.813  18.557 -17.458  1.00  0.00     0.330 A
ATOM     17  H5  UNL     1      34.299  17.155 -18.939  1.00  0.00     0.192 HD
HETATM   18  O2  UNL     1      32.782  19.153 -17.902  1.00  0.00    -0.260 OA
HETATM   19  C7  UNL     1      34.445  18.809 -16.258  1.00  0.00     0.334 A
HETATM   20  O3  UNL     1      34.066  19.685 -15.430  1.00  0.00    -0.260 OA
ENDBRANCH   3  12
TORSDOF 4
ENDMDL