MODEL 4
REMARK VINA RESULT: -6.083101850      2.969      4.114
REMARK  5 active torsions:
REMARK  status: ('A' for Active; 'I' for Inactive)
REMARK       I    between atoms: C1_2  and  N2_4
REMARK    1  A    between atoms: N2_4  and  C2_6
REMARK    2  A    between atoms: C5_11  and  N4_12
REMARK    3  A    between atoms: N4_12  and  C6_14
REMARK    4  A    between atoms: C6_14  and  N5_15
REMARK    5  A    between atoms: C6_14  and  C7_19
ROOT
HETATM    1  C2  UNL     1      37.533  17.625 -15.588  1.00  0.00     0.687 A
HETATM    2  N3  UNL     1      37.269  17.118 -14.373  1.00  0.00    -0.201 N
ATOM      3  H3  UNL     1      38.033  17.008 -13.706  1.00  0.00     0.183 HD
HETATM    4  C3  UNL     1      36.030  16.753 -14.009  1.00  0.00     0.110 A
HETATM    5  C4  UNL     1      34.967  16.885 -14.878  1.00  0.00     0.066 A
HETATM    6  C5  UNL     1      35.223  17.403 -16.129  1.00  0.00     0.120 A
HETATM    7  N7  UNL     1      36.506  17.756 -16.438  1.00  0.00    -0.177 N
ATOM      8  H7  UNL     1      36.691  18.139 -17.364  1.00  0.00     0.186 HD
ENDROOT
BRANCH   6   9
HETATM    9  N4  UNL     1      34.305  17.560 -16.991  1.00  0.00    -0.341 N
ATOM     10  H4  UNL     1      33.745  16.728 -17.175  1.00  0.00     0.163 HD
BRANCH   9  11
HETATM   11  C6  UNL     1      33.934  18.700 -17.738  1.00  0.00     0.373 C
BRANCH  11  12
HETATM   12  N5  UNL     1      35.047  19.332 -18.432  1.00  0.00    -0.050 N
ATOM     13  H53 UNL     1      35.630  19.853 -17.779  1.00  0.00     0.277 HD
ATOM     14  H52 UNL     1      35.721  18.633 -18.743  1.00  0.00     0.277 HD
ATOM     15  H51 UNL     1      34.760  19.926 -19.211  1.00  0.00     0.277 HD
ENDBRANCH  11  12
BRANCH  11  16
HETATM   16  C7  UNL     1      33.121  19.695 -16.973  1.00  0.00     0.281 C
HETATM   17  N6  UNL     1      31.990  20.287 -17.554  1.00  0.00    -0.059 NA
HETATM   18  O2  UNL     1      33.478  19.981 -15.804  1.00  0.00    -0.273 OA
ENDBRANCH  11  16
ENDBRANCH   9  11
ENDBRANCH   6   9
BRANCH   1  19
HETATM   19  N2  UNL     1      38.742  17.968 -15.907  1.00  0.00    -0.143 N
HETATM   20  C1  UNL     1      39.498  18.794 -15.032  1.00  0.00     0.346 C
HETATM   21  N1  UNL     1      39.598  20.195 -15.177  1.00  0.00    -0.039 NA
HETATM   22  O1  UNL     1      40.120  18.267 -14.066  1.00  0.00    -0.250 OA
ATOM     23  H2  UNL     1      39.151  17.645 -16.785  1.00  0.00     0.188 HD
ENDBRANCH   1  19
TORSDOF 5
ENDMDL