MODEL 1
REMARK VINA RESULT: -6.117462168      0.000      0.000
REMARK  2 active torsions:
REMARK  status: ('A' for Active; 'I' for Inactive)
REMARK    1  A    between atoms: C6_9  and  N2_10
REMARK    2  A    between atoms: N2_10  and  N3_12
ROOT
HETATM    1  C1  UNL     1      34.802  16.554 -17.011  1.00  0.00     0.063 C
HETATM    2  C2  UNL     1      35.978  16.483 -16.419  1.00  0.00     0.098 A
HETATM    3  N1  UNL     1      36.043  16.639 -15.100  1.00  0.00    -0.309 N
ATOM      4  H1  UNL     1      35.190  16.810 -14.569  1.00  0.00     0.170 HD
HETATM    5  C3  UNL     1      37.233  16.572 -14.458  1.00  0.00     0.260 A
HETATM    6  O1  UNL     1      37.224  16.730 -13.198  1.00  0.00    -0.267 OA
HETATM    7  C4  UNL     1      38.386  16.342 -15.160  1.00  0.00     0.081 A
HETATM    8  C5  UNL     1      39.604  16.271 -14.524  1.00  0.00     0.067 A
HETATM    9  C6  UNL     1      39.786  16.409 -13.240  1.00  0.00     0.124 C
HETATM   10  C7  UNL     1      40.736  16.033 -15.308  1.00  0.00     0.261 A
HETATM   11  O2  UNL     1      41.854  15.963 -14.767  1.00  0.00    -0.267 OA
HETATM   12  N4  UNL     1      40.596  15.887 -16.628  1.00  0.00    -0.288 N
ATOM     13  H4  UNL     1      41.432  15.715 -17.187  1.00  0.00     0.172 HD
HETATM   14  C8  UNL     1      39.425  15.954 -17.252  1.00  0.00     0.276 A
HETATM   15  O3  UNL     1      39.292  15.813 -18.509  1.00  0.00    -0.266 OA
HETATM   16  C9  UNL     1      38.300  16.187 -16.494  1.00  0.00     0.119 A
HETATM   17  N5  UNL     1      37.112  16.258 -17.106  1.00  0.00    -0.338 N
ATOM     18  H5  UNL     1      37.066  16.138 -18.118  1.00  0.00     0.167 HD
ENDROOT
BRANCH   9  19
HETATM   19  N2  UNL     1      41.099  16.321 -12.641  1.00  0.00    -0.317 N
ATOM     20  H2  UNL     1      41.579  15.424 -12.572  1.00  0.00     0.185 HD
BRANCH  19  21
HETATM   21  N3  UNL     1      41.694  17.474 -12.163  1.00  0.00    -0.345 N
ATOM     22  H32 UNL     1      41.798  18.279 -12.779  1.00  0.00     0.176 HD
ATOM     23  H31 UNL     1      42.019  17.496 -11.197  1.00  0.00     0.176 HD
ENDBRANCH  19  21
ENDBRANCH   9  19
TORSDOF 2
ENDMDL