MODEL 3
REMARK VINA RESULT: -7.516347798      2.541      5.873
REMARK  3 active torsions:
REMARK  status: ('A' for Active; 'I' for Inactive)
REMARK    1  A    between atoms: C3_7  and  C4_8
REMARK    2  A    between atoms: C4_8  and  C5_9
REMARK    3  A    between atoms: C7_16  and  O2_17
ROOT
HETATM    1  C1  UNL     1      40.789  14.216 -12.793  1.00  0.00     0.049 C
HETATM    2  C2  UNL     1      40.120  14.983 -13.609  1.00  0.00     0.093 A
HETATM    3  N1  UNL     1      39.462  14.463 -14.649  1.00  0.00    -0.297 N
ATOM      4  H1  UNL     1      39.494  13.454 -14.792  1.00  0.00     0.187 HD
HETATM    5  N2  UNL     1      38.772  15.200 -15.501  1.00  0.00    -0.296 N
ATOM      6  H2  UNL     1      38.297  14.732 -16.273  1.00  0.00     0.187 HD
HETATM    7  C3  UNL     1      38.665  16.536 -15.403  1.00  0.00     0.104 A
HETATM    8  C8  UNL     1      39.318  17.142 -14.353  1.00  0.00     0.252 A
HETATM    9  O3  UNL     1      39.265  18.368 -14.199  1.00  0.00    -0.281 OA
HETATM   10  C9  UNL     1      40.043  16.365 -13.460  1.00  0.00     0.251 A
HETATM   11  O4  UNL     1      40.650  16.892 -12.490  1.00  0.00    -0.281 OA
ENDROOT
BRANCH   7  12
HETATM   12  C4  UNL     1      37.954  17.199 -16.299  1.00  0.00     0.069 C
BRANCH  12  13
HETATM   13  C5  UNL     1      36.582  17.645 -16.085  1.00  0.00     0.090 A
HETATM   14  N3  UNL     1      36.060  18.890 -16.197  1.00  0.00    -0.305 N
HETATM   15  C6  UNL     1      34.743  18.856 -15.909  1.00  0.00     0.326 A
ATOM     16  H3  UNL     1      36.583  19.726 -16.459  1.00  0.00     0.171 HD
HETATM   17  O1  UNL     1      33.922  19.819 -15.906  1.00  0.00    -0.247 OA
HETATM   18  N4  UNL     1      34.390  17.593 -15.607  1.00  0.00    -0.287 N
HETATM   19  C7  UNL     1      35.497  16.851 -15.710  1.00  0.00     0.171 A
ATOM     20  H4  UNL     1      33.458  17.265 -15.350  1.00  0.00     0.172 HD
BRANCH  19  21
HETATM   21  O2  UNL     1      35.528  15.475 -15.470  1.00  0.00    -0.344 OA
ATOM     22  H2  UNL     1      35.491  14.792 -16.128  1.00  0.00     0.219 HD
ENDBRANCH  19  21
ENDBRANCH  12  13
ENDBRANCH   7  12
TORSDOF 3
ENDMDL