MODEL 5
REMARK VINA RESULT: -6.039811717      2.149      3.347
REMARK  0 active torsions:
REMARK  status: ('A' for Active; 'I' for Inactive)
ROOT
HETATM    1  C1  UNL     1      38.978  17.071 -13.617  1.00  0.00     0.045 C
HETATM    2  C2  UNL     1      38.935  16.209 -14.609  1.00  0.00     0.057 A
HETATM    3  N1  UNL     1      39.781  15.113 -14.606  1.00  0.00    -0.298 N
ATOM      4  H1  UNL     1      40.512  14.927 -13.919  1.00  0.00     0.187 HD
HETATM    5  N2  UNL     1      39.491  14.356 -15.629  1.00  0.00    -0.265 N
ATOM      6  H2  UNL     1      39.952  13.480 -15.875  1.00  0.00     0.190 HD
HETATM    7  C3  UNL     1      38.480  14.928 -16.302  1.00  0.00     0.274 A
HETATM    8  O1  UNL     1      38.031  14.360 -17.331  1.00  0.00    -0.266 OA
HETATM    9  C4  UNL     1      38.096  16.124 -15.685  1.00  0.00     0.093 A
HETATM   10  C5  UNL     1      37.249  16.968 -16.181  1.00  0.00     0.123 C
HETATM   11  N3  UNL     1      36.482  16.519 -17.351  1.00  0.00    -0.303 N
ATOM     12  H3  UNL     1      36.985  16.016 -18.081  1.00  0.00     0.171 HD
HETATM   13  C6  UNL     1      35.063  16.739 -17.544  1.00  0.00     0.328 C
HETATM   14  O2  UNL     1      34.490  15.964 -18.357  1.00  0.00    -0.247 OA
HETATM   15  N4  UNL     1      34.269  17.745 -16.900  1.00  0.00    -0.260 N
ATOM     16  H4  UNL     1      33.336  17.855 -17.298  1.00  0.00     0.175 HD
HETATM   17  C7  UNL     1      34.543  18.625 -15.799  1.00  0.00     0.331 C
HETATM   18  O3  UNL     1      33.563  19.157 -15.225  1.00  0.00    -0.246 OA
HETATM   19  N5  UNL     1      35.873  18.931 -15.316  1.00  0.00    -0.273 N
ATOM     20  H5  UNL     1      35.933  19.654 -14.600  1.00  0.00     0.173 HD
HETATM   21  C8  UNL     1      37.109  18.347 -15.715  1.00  0.00     0.277 C
HETATM   22  O4  UNL     1      38.160  19.056 -15.678  1.00  0.00    -0.266 OA
ENDROOT
TORSDOF 0
ENDMDL