MODEL 5
REMARK VINA RESULT: -7.230126559      1.997      5.828
REMARK  3 active torsions:
REMARK  status: ('A' for Active; 'I' for Inactive)
REMARK    1  A    between atoms: C3_7  and  C4_8
REMARK    2  A    between atoms: C4_8  and  N2_9
REMARK    3  A    between atoms: N2_9  and  C5_11
ROOT
HETATM    1  C4  UNL     1      35.561  16.036 -15.405  1.00  0.00     0.129 C
ENDROOT
BRANCH   1   2
HETATM    2  C3  UNL     1      34.869  17.063 -15.877  1.00  0.00     0.116 A
HETATM    3  C2  UNL     1      34.496  18.145 -14.987  1.00  0.00     0.266 A
HETATM    4  N1  UNL     1      33.751  19.256 -15.487  1.00  0.00    -0.275 N
HETATM    5  O2  UNL     1      34.835  18.089 -13.789  1.00  0.00    -0.267 OA
HETATM    6  C1  UNL     1      33.355  19.339 -16.850  1.00  0.00     0.329 A
ATOM      7  H1  UNL     1      33.496  20.009 -14.850  1.00  0.00     0.173 HD
HETATM    8  O1  UNL     1      32.698  20.334 -17.253  1.00  0.00    -0.246 OA
HETATM    9  N6  UNL     1      33.716  18.282 -17.731  1.00  0.00    -0.275 N
HETATM   10  C7  UNL     1      34.462  17.154 -17.270  1.00  0.00     0.266 A
ATOM     11  H6  UNL     1      33.437  18.331 -18.711  1.00  0.00     0.173 HD
HETATM   12  O4  UNL     1      34.780  16.218 -18.056  1.00  0.00    -0.267 OA
ENDBRANCH   1   2
BRANCH   1  13
HETATM   13  N2  UNL     1      36.926  16.190 -15.034  1.00  0.00    -0.199 N
ATOM     14  H2  UNL     1      37.180  16.622 -14.146  1.00  0.00     0.183 HD
BRANCH  13  15
HETATM   15  C5  UNL     1      37.837  15.768 -15.853  1.00  0.00     0.700 A
HETATM   16  N3  UNL     1      38.932  15.035 -15.621  1.00  0.00    -0.128 N
HETATM   17  N4  UNL     1      39.608  14.816 -16.736  1.00  0.00    -0.237 N
ATOM     18  H3  UNL     1      39.209  14.688 -14.703  1.00  0.00     0.205 HD
HETATM   19  C6  UNL     1      38.938  15.425 -17.741  1.00  0.00     0.353 A
ATOM     20  H4  UNL     1      40.475  14.285 -16.823  1.00  0.00     0.192 HD
HETATM   21  O3  UNL     1      39.319  15.409 -18.946  1.00  0.00    -0.245 OA
HETATM   22  N5  UNL     1      37.855  16.006 -17.194  1.00  0.00    -0.139 N
ATOM     23  H5  UNL     1      37.155  16.543 -17.705  1.00  0.00     0.189 HD
ENDBRANCH  13  15
ENDBRANCH   1  13
TORSDOF 3
ENDMDL