MODEL 1
REMARK VINA RESULT: -7.120074587      0.000      0.000
REMARK  3 active torsions:
REMARK  status: ('A' for Active; 'I' for Inactive)
REMARK    1  A    between atoms: C1_2  and  C2_3
REMARK    2  A    between atoms: C3_6  and  C4_7
REMARK    3  A    between atoms: C4_7  and  C5_8
ROOT
HETATM    1  C2  UNL     1      37.925  16.366 -16.514  1.00  0.00     0.102 C
HETATM    2  N2  UNL     1      36.666  16.513 -16.963  1.00  0.00    -0.338 N
ATOM      3  H2  UNL     1      36.579  16.437 -17.976  1.00  0.00     0.167 HD
HETATM    4  C3  UNL     1      35.504  16.740 -16.334  1.00  0.00     0.110 C
HETATM    5  N5  UNL     1      35.270  16.674 -15.010  1.00  0.00    -0.306 N
ATOM      6  H5  UNL     1      34.290  16.628 -14.733  1.00  0.00     0.170 HD
HETATM    7  C7  UNL     1      36.176  16.661 -13.994  1.00  0.00     0.301 C
HETATM    8  O1  UNL     1      35.723  16.856 -12.837  1.00  0.00    -0.264 OA
HETATM    9  C8  UNL     1      37.535  16.463 -14.056  1.00  0.00     0.291 C
HETATM   10  O2  UNL     1      38.119  16.400 -12.958  1.00  0.00    -0.278 OA
HETATM   11  C9  UNL     1      38.322  16.328 -15.197  1.00  0.00     0.255 C
HETATM   12  O3  UNL     1      39.537  16.153 -14.929  1.00  0.00    -0.281 OA
ENDROOT
BRANCH   4  13
HETATM   13  C4  UNL     1      34.466  17.066 -17.108  1.00  0.00     0.081 C
BRANCH  13  14
HETATM   14  C5  UNL     1      33.879  18.388 -17.055  1.00  0.00     0.068 A
HETATM   15  C6  UNL     1      33.991  19.467 -16.210  1.00  0.00     0.138 A
HETATM   16  N3  UNL     1      33.108  20.108 -16.991  1.00  0.00    -0.309 N
HETATM   17  N4  UNL     1      32.986  19.065 -17.825  1.00  0.00    -0.300 N
ATOM     18  H3  UNL     1      32.688  21.038 -16.961  1.00  0.00     0.186 HD
ATOM     19  H4  UNL     1      32.454  18.866 -18.672  1.00  0.00     0.187 HD
ENDBRANCH  13  14
ENDBRANCH   4  13
BRANCH   1  20
HETATM   20  C1  UNL     1      38.912  16.242 -17.375  1.00  0.00     0.133 C
HETATM   21  N1  UNL     1      39.116  15.026 -18.089  1.00  0.00    -0.113 NA
ENDBRANCH   1  20
TORSDOF 3
ENDMDL