MODEL 3
REMARK VINA RESULT: -6.491008027      2.564      6.197
REMARK  3 active torsions:
REMARK  status: ('A' for Active; 'I' for Inactive)
REMARK    1  A    between atoms: C7_15  and  C8_16
REMARK    2  A    between atoms: C8_16  and  O3_17
REMARK    3  A    between atoms: C9_19  and  C10_20
ROOT
HETATM    1  C1  UNL     1      38.332  16.425 -14.357  1.00  0.00     0.027 C
HETATM    2  C2  UNL     1      38.572  17.691 -14.640  1.00  0.00    -0.003 A
HETATM    3  C3  UNL     1      37.760  18.490 -15.395  1.00  0.00     0.076 A
HETATM    4  C4  UNL     1      36.489  18.418 -15.787  1.00  0.00     0.133 A
HETATM    5  N1  UNL     1      35.894  19.431 -16.622  1.00  0.00    -0.302 N
ATOM      6  H1  UNL     1      36.413  20.214 -17.020  1.00  0.00     0.171 HD
HETATM    7  C5  UNL     1      34.519  19.221 -16.828  1.00  0.00     0.327 A
HETATM    8  O1  UNL     1      33.713  19.919 -17.504  1.00  0.00    -0.247 OA
HETATM    9  N2  UNL     1      34.178  18.053 -16.125  1.00  0.00    -0.274 N
ATOM     10  H2  UNL     1      33.251  17.631 -16.075  1.00  0.00     0.173 HD
HETATM   11  C6  UNL     1      35.387  17.552 -15.478  1.00  0.00     0.278 A
HETATM   12  O2  UNL     1      35.309  16.523 -14.792  1.00  0.00    -0.265 OA
HETATM   13  N3  UNL     1      38.502  19.633 -15.553  1.00  0.00    -0.351 N
ATOM     14  H3  UNL     1      38.178  20.442 -16.082  1.00  0.00     0.166 HD
HETATM   15  C7  UNL     1      39.672  19.582 -14.954  1.00  0.00     0.066 A
HETATM   16  C9  UNL     1      39.781  18.357 -14.343  1.00  0.00     0.018 A
ENDROOT
BRANCH  16  17
HETATM   17  C10 UNL     1      40.776  17.923 -13.638  1.00  0.00     0.114 C
HETATM   18  N4  UNL     1      42.066  17.583 -14.065  1.00  0.00    -0.114 NA
ENDBRANCH  16  17
BRANCH  15  19
HETATM   19  C8  UNL     1      40.542  20.552 -14.962  1.00  0.00     0.161 C
BRANCH  19  20
HETATM   20  O3  UNL     1      41.813  20.548 -15.462  1.00  0.00    -0.370 OA
ATOM     21  H3  UNL     1      42.262  21.236 -15.939  1.00  0.00     0.216 HD
ENDBRANCH  19  20
ENDBRANCH  15  19
TORSDOF 3
ENDMDL