MODEL 5
REMARK VINA RESULT: -6.975829107      2.072      2.555
REMARK  4 active torsions:
REMARK  status: ('A' for Active; 'I' for Inactive)
REMARK    1  A    between atoms: C4_7  and  C5_8
REMARK    2  A    between atoms: C5_8  and  C6_9
REMARK    3  A    between atoms: C7_10  and  O2_11
REMARK    4  A    between atoms: N4_16  and  O3_17
ROOT
HETATM    1  C1  UNL     1      32.935  19.469 -17.645  1.00  0.00     0.064 C
HETATM    2  C2  UNL     1      33.999  18.919 -17.060  1.00  0.00     0.101 A
HETATM    3  N1  UNL     1      35.068  19.658 -16.722  1.00  0.00    -0.309 N
ATOM      4  H1  UNL     1      35.066  20.660 -16.917  1.00  0.00     0.170 HD
HETATM    5  C3  UNL     1      36.141  19.103 -16.132  1.00  0.00     0.262 A
HETATM    6  O1  UNL     1      37.149  19.820 -15.817  1.00  0.00    -0.267 OA
HETATM    7  C4  UNL     1      36.215  17.756 -15.837  1.00  0.00     0.102 A
HETATM    8  C8  UNL     1      35.112  17.004 -16.189  1.00  0.00     0.262 A
HETATM    9  O4  UNL     1      35.111  15.781 -15.951  1.00  0.00    -0.267 OA
HETATM   10  N5  UNL     1      34.040  17.603 -16.787  1.00  0.00    -0.309 N
ATOM     11  H5  UNL     1      33.236  17.028 -17.037  1.00  0.00     0.170 HD
ENDROOT
BRANCH   7  12
HETATM   12  C5  UNL     1      37.286  17.241 -15.255  1.00  0.00     0.060 C
BRANCH  12  13
HETATM   13  C6  UNL     1      38.488  16.815 -15.945  1.00  0.00     0.132 A
HETATM   14  C7  UNL     1      38.736  15.556 -16.467  1.00  0.00     0.184 A
HETATM   15  N2  UNL     1      39.968  15.577 -17.032  1.00  0.00    -0.260 N
HETATM   16  N3  UNL     1      40.458  16.797 -16.866  1.00  0.00     0.009 NA
ATOM     17  H2  UNL     1      40.431  14.798 -17.500  1.00  0.00     0.186 HD
HETATM   18  N4  UNL     1      39.579  17.556 -16.212  1.00  0.00    -0.143 N
BRANCH  14  19
HETATM   19  O2  UNL     1      37.864  14.497 -16.405  1.00  0.00    -0.344 OA
ATOM     20  H2  UNL     1      37.030  14.508 -15.950  1.00  0.00     0.219 HD
ENDBRANCH  14  19
BRANCH  18  21
HETATM   21  O3  UNL     1      39.759  18.756 -15.908  1.00  0.00    -0.269 OA
ATOM     22  H3  UNL     1      39.520  19.514 -16.428  1.00  0.00     0.246 HD
ENDBRANCH  18  21
ENDBRANCH  12  13
ENDBRANCH   7  12
TORSDOF 4
ENDMDL