MODEL 2
REMARK VINA RESULT: -7.579797385      1.481      1.515
REMARK  2 active torsions:
REMARK  status: ('A' for Active; 'I' for Inactive)
REMARK    1  A    between atoms: N1_1  and  C1_4
REMARK    2  A    between atoms: C2_9  and  C3_10
ROOT
HETATM    1  C1  UNL     1      33.965  19.239 -17.253  1.00  0.00     0.693 A
HETATM    2  N2  UNL     1      34.929  18.544 -18.010  1.00  0.00    -0.132 N
ATOM      3  H2  UNL     1      35.022  18.737 -19.007  1.00  0.00     0.205 HD
HETATM    4  N3  UNL     1      35.745  17.610 -17.421  1.00  0.00    -0.281 N
ATOM      5  H3  UNL     1      36.425  17.137 -18.018  1.00  0.00     0.187 HD
HETATM    6  C2  UNL     1      35.720  17.241 -16.020  1.00  0.00     0.118 A
HETATM    7  C8  UNL     1      34.741  17.946 -15.245  1.00  0.00     0.287 A
HETATM    8  O3  UNL     1      34.624  17.722 -14.027  1.00  0.00    -0.265 OA
HETATM    9  N6  UNL     1      33.888  18.926 -15.873  1.00  0.00    -0.153 N
ATOM     10  H6  UNL     1      33.199  19.414 -15.299  1.00  0.00     0.187 HD
ENDROOT
BRANCH   6  11
HETATM   11  C3  UNL     1      36.580  16.364 -15.609  1.00  0.00     0.055 C
HETATM   12  C4  UNL     1      37.992  16.416 -15.416  1.00  0.00     0.050 A
HETATM   13  C5  UNL     1      38.574  17.325 -14.574  1.00  0.00     0.110 A
HETATM   14  C7  UNL     1      38.887  15.563 -16.075  1.00  0.00     0.261 A
HETATM   15  N4  UNL     1      39.930  17.358 -14.422  1.00  0.00    -0.318 N
HETATM   16  C6  UNL     1      40.737  16.511 -15.086  1.00  0.00     0.327 A
ATOM     17  H4  UNL     1      40.342  18.043 -13.788  1.00  0.00     0.170 HD
HETATM   18  O1  UNL     1      41.989  16.554 -14.936  1.00  0.00    -0.247 OA
HETATM   19  N5  UNL     1      40.201  15.607 -15.919  1.00  0.00    -0.275 N
ATOM     20  H5  UNL     1      40.801  14.958 -16.428  1.00  0.00     0.173 HD
HETATM   21  O2  UNL     1      38.345  14.724 -16.852  1.00  0.00    -0.267 OA
ENDBRANCH   6  11
BRANCH   1  22
HETATM   22  N1  UNL     1      33.175  20.128 -17.774  1.00  0.00    -0.233 N
ATOM     23  H12 UNL     1      32.753  19.975 -18.689  1.00  0.00     0.174 HD
ATOM     24  H11 UNL     1      32.945  21.002 -17.301  1.00  0.00     0.174 HD
ENDBRANCH   1  22
TORSDOF 2
ENDMDL