MODEL 5
REMARK VINA RESULT: -6.313593719      1.564      1.900
REMARK  2 active torsions:
REMARK  status: ('A' for Active; 'I' for Inactive)
REMARK    1  A    between atoms: N3_11  and  C5_12
REMARK    2  A    between atoms: C5_12  and  C6_13
ROOT
HETATM    1  C1  UNL     1      37.970  16.511 -13.583  1.00  0.00     0.050 C
HETATM    2  C2  UNL     1      38.836  16.812 -14.555  1.00  0.00     0.115 A
HETATM    3  C3  UNL     1      40.181  17.330 -14.370  1.00  0.00     0.286 A
HETATM    4  O1  UNL     1      40.777  17.588 -13.306  1.00  0.00    -0.265 OA
HETATM    5  N1  UNL     1      40.751  17.509 -15.675  1.00  0.00    -0.154 N
ATOM      6  H1  UNL     1      41.687  17.860 -15.875  1.00  0.00     0.187 HD
HETATM    7  C4  UNL     1      39.789  17.115 -16.638  1.00  0.00     0.685 A
HETATM    8  N2  UNL     1      39.933  17.132 -17.931  1.00  0.00    -0.234 N
ATOM      9  H21 UNL     1      39.241  16.848 -18.625  1.00  0.00     0.174 HD
ATOM     10  H22 UNL     1      40.771  17.436 -18.428  1.00  0.00     0.174 HD
HETATM   11  N3  UNL     1      38.607  16.686 -15.938  1.00  0.00    -0.151 N
ENDROOT
BRANCH  11  12
HETATM   12  C5  UNL     1      37.443  16.223 -16.579  1.00  0.00     0.151 C
BRANCH  12  13
HETATM   13  C6  UNL     1      36.291  16.907 -16.561  1.00  0.00     0.119 A
HETATM   14  N4  UNL     1      36.088  18.108 -17.126  1.00  0.00    -0.338 N
HETATM   15  C7  UNL     1      34.819  18.488 -16.908  1.00  0.00     0.098 A
ATOM     16  H4  UNL     1      36.786  18.646 -17.639  1.00  0.00     0.167 HD
HETATM   17  C8  UNL     1      34.233  19.605 -17.303  1.00  0.00     0.063 C
HETATM   18  N5  UNL     1      34.218  17.515 -16.200  1.00  0.00    -0.308 N
HETATM   19  C9  UNL     1      35.107  16.536 -15.976  1.00  0.00     0.275 A
ATOM     20  H5  UNL     1      33.248  17.520 -15.885  1.00  0.00     0.170 HD
HETATM   21  O2  UNL     1      34.916  15.444 -15.340  1.00  0.00    -0.266 OA
ENDBRANCH  12  13
ENDBRANCH  11  12
TORSDOF 2
ENDMDL