MODEL 4
REMARK VINA RESULT: -6.208609622      1.991      2.111
REMARK  3 active torsions:
REMARK  status: ('A' for Active; 'I' for Inactive)
REMARK    1  A    between atoms: C5_7  and  C6_8
REMARK    2  A    between atoms: N3_13  and  N4_14
REMARK    3  A    between atoms: C8_17  and  N5_18
ROOT
HETATM    1  C6  UNL     1      36.672  18.400 -15.791  1.00  0.00     0.118 C
HETATM    2  N2  UNL     1      37.708  19.346 -15.754  1.00  0.00    -0.317 N
ATOM      3  H2  UNL     1      37.575  20.258 -16.191  1.00  0.00     0.170 HD
HETATM    4  C7  UNL     1      38.961  19.040 -15.104  1.00  0.00     0.197 C
HETATM    5  S1  UNL     1      40.104  20.216 -15.110  1.00  0.00    -0.039 SA
HETATM    6  N3  UNL     1      39.183  17.793 -14.493  1.00  0.00    -0.224 N
HETATM    7  C8  UNL     1      38.343  16.702 -14.903  1.00  0.00     0.411 C
HETATM    8  N6  UNL     1      36.988  17.139 -15.126  1.00  0.00    -0.331 N
ATOM      9  H6  UNL     1      36.222  16.546 -14.809  1.00  0.00     0.165 HD
ENDROOT
BRANCH   1  10
HETATM   10  C5  UNL     1      35.490  18.539 -16.340  1.00  0.00     0.035 A
HETATM   11  C2  UNL     1      34.650  17.714 -17.013  1.00  0.00     0.036 A
HETATM   12  C1  UNL     1      34.833  16.464 -17.329  1.00  0.00     0.044 C
HETATM   13  N1  UNL     1      33.490  18.390 -17.359  1.00  0.00    -0.366 N
HETATM   14  C3  UNL     1      33.584  19.635 -16.915  1.00  0.00     0.089 A
ATOM     15  H1  UNL     1      32.700  17.996 -17.869  1.00  0.00     0.165 HD
HETATM   16  C4  UNL     1      34.794  19.768 -16.284  1.00  0.00     0.034 A
ENDBRANCH   1  10
BRANCH   7  17
HETATM   17  N5  UNL     1      38.315  15.743 -13.818  1.00  0.00    -0.039 N
ATOM     18  H53 UNL     1      39.047  15.904 -13.125  1.00  0.00     0.279 HD
ATOM     19  H52 UNL     1      37.515  15.867 -13.198  1.00  0.00     0.279 HD
ATOM     20  H51 UNL     1      38.357  14.811 -14.231  1.00  0.00     0.279 HD
ENDBRANCH   7  17
BRANCH   6  21
HETATM   21  N4  UNL     1      40.162  17.591 -13.539  1.00  0.00    -0.337 N
ATOM     22  H42 UNL     1      40.664  16.704 -13.504  1.00  0.00     0.177 HD
ATOM     23  H41 UNL     1      40.418  18.299 -12.851  1.00  0.00     0.177 HD
ENDBRANCH   6  21
TORSDOF 3
ENDMDL