MODEL 4
REMARK VINA RESULT: -5.293900148      2.079      2.669
REMARK  7 active torsions:
REMARK  status: ('A' for Active; 'I' for Inactive)
REMARK    1  A    between atoms: N1_2  and  C3_4
REMARK    2  A    between atoms: C3_4  and  C4_5
REMARK    3  A    between atoms: C4_5  and  N2_6
REMARK       I    between atoms: N2_6  and  C5_8
REMARK    4  A    between atoms: C5_8  and  C6_10
REMARK    5  A    between atoms: C12_16  and  C13_17
REMARK    6  A    between atoms: C13_17  and  S1_18
REMARK    7  A    between atoms: S1_18  and  N3_19
ROOT
HETATM    1  C6  UNL     1      17.856 -14.983  23.290  1.00  0.00     0.118 C
HETATM    2  C7  UNL     1      17.870 -13.958  24.437  1.00  0.00     0.051 C
HETATM    3  C8  UNL     1      19.305 -14.152  24.800  1.00  0.00     0.202 C
HETATM    4  C9  UNL     1      19.504 -15.671  24.685  1.00  0.00     0.017 C
HETATM    5  C10 UNL     1      20.795 -16.245  25.133  1.00  0.00     0.019 C
HETATM    6  C11 UNL     1      18.415 -16.530  25.245  1.00  0.00     0.019 C
HETATM    7  C12 UNL     1      19.346 -15.254  23.245  1.00  0.00     0.164 C
HETATM    8  N4  UNL     1      19.981 -13.981  23.510  1.00  0.00    -0.058 N
HETATM    9  C14 UNL     1      19.651 -12.875  22.681  1.00  0.00     0.273 C
HETATM   10  C15 UNL     1      21.402 -13.911  23.711  1.00  0.00     0.273 C
ENDROOT
BRANCH   1  11
HETATM   11  C5  UNL     1      17.194 -14.407  22.155  1.00  0.00     0.224 C
HETATM   12  N2  UNL     1      16.350 -13.288  22.391  1.00  0.00    -0.359 N
ATOM     13  H2  UNL     1      16.258 -12.953  23.350  1.00  0.00     0.162 HD
HETATM   14  O1  UNL     1      17.245 -14.754  20.942  1.00  0.00    -0.273 OA
BRANCH  12  15
HETATM   15  C4  UNL     1      15.617 -12.598  21.361  1.00  0.00     0.152 C
BRANCH  15  16
HETATM   16  C3  UNL     1      16.381 -11.372  20.940  1.00  0.00     0.290 C
BRANCH  16  17
HETATM   17  N1  UNL     1      16.900 -11.405  19.615  1.00  0.00     0.081 N
HETATM   18  C1  UNL     1      16.084 -12.090  18.666  1.00  0.00     0.309 C
HETATM   19  C2  UNL     1      18.280 -11.769  19.521  1.00  0.00     0.309 C
ENDBRANCH  16  17
ENDBRANCH  15  16
ENDBRANCH  12  15
ENDBRANCH   1  11
BRANCH   7  20
HETATM   20  C13 UNL     1      19.898 -16.018  22.160  1.00  0.00     0.204 C
BRANCH  20  21
HETATM   21  S1  UNL     1      19.380 -17.593  21.746  1.00  0.00     0.226 S
HETATM   22  O2  UNL     1      19.490 -18.659  22.766  1.00  0.00    -0.206 OA
HETATM   23  O3  UNL     1      20.324 -18.068  20.624  1.00  0.00    -0.206 OA
BRANCH  21  24
HETATM   24  N3  UNL     1      17.819 -17.708  21.022  1.00  0.00    -0.328 N
ATOM     25  H32 UNL     1      17.428 -16.933  20.488  1.00  0.00     0.168 HD
ATOM     26  H31 UNL     1      17.325 -18.589  21.162  1.00  0.00     0.168 HD
ENDBRANCH  21  24
ENDBRANCH  20  21
ENDBRANCH   7  20
TORSDOF 7
ENDMDL