MODEL 2
REMARK VINA RESULT: -7.961122532      0.815      1.046
REMARK  7 active torsions:
REMARK  status: ('A' for Active; 'I' for Inactive)
REMARK    1  A    between atoms: C3_3  and  N1_4
REMARK    2  A    between atoms: C15_17  and  C16_18
REMARK    3  A    between atoms: C16_18  and  N2_19
REMARK    4  A    between atoms: N2_19  and  C17_22
REMARK    5  A    between atoms: C17_22  and  C18_23
REMARK    6  A    between atoms: C19_24  and  C20_25
REMARK    7  A    between atoms: C20_25  and  N3_26
ROOT
HETATM    1  C1  UNL     1      20.807 -12.276  26.730  1.00  0.00     0.098 C
HETATM    2  C2  UNL     1      21.322 -12.559  25.658  1.00  0.00    -0.168 C
HETATM    3  C3  UNL     1      21.937 -12.868  24.358  1.00  0.00     0.206 C
ENDROOT
BRANCH   3   4
HETATM    4  N1  UNL     1      21.372 -14.058  23.771  1.00  0.00    -0.329 N
HETATM    5  C4  UNL     1      21.966 -15.325  23.820  1.00  0.00     0.222 C
HETATM    6  O1  UNL     1      22.934 -15.664  24.533  1.00  0.00    -0.273 OA
HETATM    7  C5  UNL     1      21.261 -16.224  22.881  1.00  0.00     0.110 C
HETATM    8  C6  UNL     1      20.007 -15.482  22.462  1.00  0.00     0.032 A
HETATM    9  C7  UNL     1      20.133 -14.828  21.121  1.00  0.00     0.005 A
HETATM   10  C13 UNL     1      20.094 -14.098  23.067  1.00  0.00     0.063 A
HETATM   11  C8  UNL     1      19.142 -13.743  20.748  1.00  0.00     0.003 A
HETATM   12  C14 UNL     1      20.124 -13.415  21.746  1.00  0.00     0.028 A
HETATM   13  C9  UNL     1      17.724 -13.894  21.024  1.00  0.00     0.005 A
HETATM   14  C10 UNL     1      17.057 -13.629  22.240  1.00  0.00     0.019 A
HETATM   15  C15 UNL     1      16.976 -12.539  21.226  1.00  0.00     0.024 A
HETATM   16  C11 UNL     1      17.704 -13.506  23.520  1.00  0.00    -0.023 C
HETATM   17  C12 UNL     1      18.943 -13.689  23.903  1.00  0.00     0.001 C
BRANCH  15  18
HETATM   18  C16 UNL     1      15.762 -12.316  20.395  1.00  0.00     0.239 C
BRANCH  18  19
HETATM   19  N2  UNL     1      15.906 -11.189  19.518  1.00  0.00    -0.065 N
ATOM     20  H22 UNL     1      16.329 -10.383  19.980  1.00  0.00     0.278 HD
ATOM     21  H21 UNL     1      16.624 -11.334  18.808  1.00  0.00     0.278 HD
BRANCH  19  22
HETATM   22  C17 UNL     1      14.612 -10.885  18.947  1.00  0.00     0.325 C
BRANCH  22  23
HETATM   23  C18 UNL     1      13.700 -10.392  20.007  1.00  0.00    -0.077 C
HETATM   24  C19 UNL     1      12.972  -9.966  20.888  1.00  0.00    -0.075 C
BRANCH  24  25
HETATM   25  C20 UNL     1      12.136  -9.433  21.942  1.00  0.00     0.364 C
BRANCH  25  26
HETATM   26  N3  UNL     1      12.060 -10.247  23.111  1.00  0.00     0.090 N
HETATM   27  C21 UNL     1      11.318  -9.710  24.209  1.00  0.00     0.310 C
HETATM   28  C22 UNL     1      11.615 -11.603  22.817  1.00  0.00     0.310 C
ENDBRANCH  25  26
ENDBRANCH  24  25
ENDBRANCH  22  23
ENDBRANCH  19  22
ENDBRANCH  18  19
ENDBRANCH  15  18
ENDBRANCH   3   4
TORSDOF 7
ENDMDL