MODEL 4
REMARK VINA RESULT: -6.309970703      1.891      2.161
REMARK  7 active torsions:
REMARK  status: ('A' for Active; 'I' for Inactive)
REMARK    1  A    between atoms: C2_2  and  C3_3
REMARK    2  A    between atoms: C3_3  and  C4_4
REMARK    3  A    between atoms: C4_4  and  C5_5
REMARK    4  A    between atoms: C5_5  and  C6_6
REMARK    5  A    between atoms: C6_6  and  N1_7
REMARK    6  A    between atoms: C10_11  and  C11_12
REMARK    7  A    between atoms: C15_22  and  N4_23
ROOT
HETATM    1  C11 UNL     1      20.735 -14.436  23.442  1.00  0.00     0.139 C
HETATM    2  C12 UNL     1      20.590 -15.908  23.098  1.00  0.00     0.041 C
HETATM    3  C13 UNL     1      22.203 -14.142  23.441  1.00  0.00     0.245 C
HETATM    4  O1  UNL     1      22.816 -13.191  22.961  1.00  0.00    -0.271 OA
HETATM    5  N2  UNL     1      22.966 -15.179  24.141  1.00  0.00    -0.302 N
ATOM      6  H2  UNL     1      23.869 -15.486  23.780  1.00  0.00     0.171 HD
HETATM    7  C14 UNL     1      22.434 -15.756  25.329  1.00  0.00     0.179 C
HETATM    8  S1  UNL     1      23.194 -16.911  26.170  1.00  0.00    -0.040 SA
HETATM    9  N3  UNL     1      21.144 -15.223  25.735  1.00  0.00    -0.322 N
ATOM     10  H3  UNL     1      20.678 -15.570  26.572  1.00  0.00     0.169 HD
HETATM   11  C15 UNL     1      20.545 -14.201  24.936  1.00  0.00     0.103 C
ENDROOT
BRANCH   1  12
HETATM   12  C10 UNL     1      19.973 -13.589  22.562  1.00  0.00     0.053 A
HETATM   13  C9  UNL     1      20.588 -12.789  21.620  1.00  0.00     0.030 A
HETATM   14  C8  UNL     1      19.890 -11.983  20.726  1.00  0.00     0.021 A
HETATM   15  C7  UNL     1      18.530 -12.026  20.826  1.00  0.00     0.110 A
HETATM   16  N1  UNL     1      17.901 -12.800  21.731  1.00  0.00    -0.301 N
HETATM   17  N5  UNL     1      18.608 -13.553  22.565  1.00  0.00    -0.297 N
HETATM   18  C17 UNL     1      17.831 -14.385  23.436  1.00  0.00     0.178 C
BRANCH  16  19
HETATM   19  C6  UNL     1      16.440 -12.735  21.771  1.00  0.00     0.148 C
BRANCH  19  20
HETATM   20  C5  UNL     1      15.845 -11.603  21.021  1.00  0.00     0.022 C
BRANCH  20  21
HETATM   21  C4  UNL     1      14.379 -11.415  21.384  1.00  0.00     0.002 C
BRANCH  21  22
HETATM   22  C3  UNL     1      13.973  -9.968  21.402  1.00  0.00    -0.000 C
BRANCH  22  23
HETATM   23  C2  UNL     1      12.454  -9.917  21.496  1.00  0.00    -0.005 C
HETATM   24  C1  UNL     1      12.060  -9.522  22.903  1.00  0.00     0.005 C
ENDBRANCH  22  23
ENDBRANCH  21  22
ENDBRANCH  20  21
ENDBRANCH  19  20
ENDBRANCH  16  19
ENDBRANCH   1  12
BRANCH  11  25
HETATM   25  N4  UNL     1      19.998 -13.181  25.430  1.00  0.00    -0.383 N
HETATM   26  C16 UNL     1      20.723 -12.070  25.957  1.00  0.00     0.147 C
ATOM     27  H4  UNL     1      18.979 -13.146  25.455  1.00  0.00     0.160 HD
ENDBRANCH  11  25
TORSDOF 7
ENDMDL