MODEL 2
REMARK VINA RESULT: -8.395825451      0.907      1.967
REMARK  8 active torsions:
REMARK  status: ('A' for Active; 'I' for Inactive)
REMARK    1  A    between atoms: N1_2  and  C4_5
REMARK    2  A    between atoms: C4_5  and  C5_6
REMARK    3  A    between atoms: N2_13  and  C12_14
REMARK    4  A    between atoms: C12_14  and  C13_15
REMARK    5  A    between atoms: C14_16  and  C15_17
REMARK    6  A    between atoms: C15_17  and  O1_18
REMARK    7  A    between atoms: O1_18  and  C16_19
REMARK    8  A    between atoms: C17_20  and  C18_21
ROOT
HETATM    1  C13 UNL     1      15.353 -11.614  21.038  1.00  0.00    -0.074 C
HETATM    2  C14 UNL     1      14.735 -10.587  21.223  1.00  0.00    -0.078 C
ENDROOT
BRANCH   1   3
HETATM    3  C12 UNL     1      16.113 -12.842  20.801  1.00  0.00     0.366 C
BRANCH   3   4
HETATM    4  N2  UNL     1      17.196 -12.869  21.735  1.00  0.00     0.108 N
HETATM    5  C7  UNL     1      17.025 -13.786  22.820  1.00  0.00     0.225 C
HETATM    6  C6  UNL     1      18.049 -13.515  23.862  1.00  0.00     0.042 C
HETATM    7  C8  UNL     1      17.237 -15.174  22.258  1.00  0.00     0.038 C
HETATM    8  C5  UNL     1      19.424 -13.161  23.348  1.00  0.00     0.016 C
HETATM    9  C11 UNL     1      19.591 -13.194  21.878  1.00  0.00     0.042 C
HETATM   10  C10 UNL     1      18.346 -13.459  21.074  1.00  0.00     0.225 C
HETATM   11  C9  UNL     1      18.046 -14.946  21.009  1.00  0.00     0.038 C
BRANCH   8  12
HETATM   12  C4  UNL     1      20.447 -13.953  24.117  1.00  0.00     0.240 C
BRANCH  12  13
HETATM   13  N1  UNL     1      21.409 -13.227  24.857  1.00  0.00    -0.078 N
HETATM   14  C1  UNL     1      21.001 -11.986  25.433  1.00  0.00     0.271 C
HETATM   15  C2  UNL     1      22.643 -12.988  24.107  1.00  0.00     0.271 C
HETATM   16  C3  UNL     1      21.807 -14.091  25.991  1.00  0.00     0.271 C
ENDBRANCH  12  13
ENDBRANCH   8  12
ENDBRANCH   3   4
ENDBRANCH   1   3
BRANCH   2  17
HETATM   17  C15 UNL     1      14.004  -9.325  21.446  1.00  0.00     0.269 C
BRANCH  17  18
HETATM   18  O1  UNL     1      12.623  -9.539  21.547  1.00  0.00    -0.332 OA
BRANCH  18  19
HETATM   19  C16 UNL     1      11.948 -10.045  22.618  1.00  0.00     0.169 A
HETATM   20  C17 UNL     1      11.555 -11.344  22.794  1.00  0.00     0.102 A
HETATM   21  N4  UNL     1      10.915 -11.412  24.000  1.00  0.00    -0.294 N
HETATM   22  N5  UNL     1      10.912 -10.211  24.547  1.00  0.00    -0.264 N
ATOM     23  H4  UNL     1      10.509 -12.253  24.410  1.00  0.00     0.187 HD
HETATM   24  C19 UNL     1      11.530  -9.331  23.749  1.00  0.00     0.295 A
ATOM     25  H5  UNL     1      10.496  -9.984  25.451  1.00  0.00     0.190 HD
HETATM   26  O2  UNL     1      11.698  -8.111  23.973  1.00  0.00    -0.264 OA
BRANCH  20  27
HETATM   27  C18 UNL     1      11.724 -12.503  21.911  1.00  0.00     0.114 C
HETATM   28  N3  UNL     1      12.459 -13.510  22.221  1.00  0.00    -0.406 N
ATOM     29  H32 UNL     1      12.938 -13.486  23.122  1.00  0.00     0.155 HD
ATOM     30  H31 UNL     1      12.578 -14.315  21.607  1.00  0.00     0.155 HD
ENDBRANCH  20  27
ENDBRANCH  18  19
ENDBRANCH  17  18
ENDBRANCH   2  17
TORSDOF 8
ENDMDL