MODEL 4
REMARK VINA RESULT: -6.908225271      1.955      2.837
REMARK  6 active torsions:
REMARK  status: ('A' for Active; 'I' for Inactive)
REMARK    1  A    between atoms: C6_6  and  C7_7
REMARK       I    between atoms: N1_8  and  C8_10
REMARK    2  A    between atoms: C8_10  and  C9_12
REMARK    3  A    between atoms: C9_12  and  N2_13
REMARK    4  A    between atoms: C11_18  and  C12_19
REMARK    5  A    between atoms: C12_19  and  C13_20
REMARK    6  A    between atoms: C13_20  and  N4_21
ROOT
HETATM    1  N2  UNL     1      18.154 -13.456  20.761  1.00  0.00    -0.260 N
HETATM    2  C10 UNL     1      19.538 -13.265  20.437  1.00  0.00     0.326 C
HETATM    3  O2  UNL     1      20.033 -12.591  19.494  1.00  0.00    -0.247 OA
HETATM    4  N3  UNL     1      20.268 -14.001  21.412  1.00  0.00    -0.329 N
ATOM      5  H3  UNL     1      21.237 -14.306  21.326  1.00  0.00     0.165 HD
HETATM    6  C11 UNL     1      19.405 -14.243  22.541  1.00  0.00     0.180 C
HETATM    7  C17 UNL     1      18.063 -14.293  21.909  1.00  0.00     0.251 C
HETATM    8  O3  UNL     1      17.027 -14.911  22.250  1.00  0.00    -0.271 OA
ENDROOT
BRANCH   1   9
HETATM    9  C9  UNL     1      17.037 -12.888  20.034  1.00  0.00     0.240 C
BRANCH   9  10
HETATM   10  C8  UNL     1      16.876 -11.485  20.486  1.00  0.00     0.240 C
HETATM   11  N1  UNL     1      15.843 -11.069  21.361  1.00  0.00    -0.334 N
HETATM   12  C7  UNL     1      14.669 -10.873  20.916  1.00  0.00     0.121 C
ATOM     13  H1  UNL     1      16.042 -10.926  22.352  1.00  0.00     0.168 HD
HETATM   14  O1  UNL     1      17.672 -10.583  20.103  1.00  0.00    -0.271 OA
BRANCH  12  15
HETATM   15  C6  UNL     1      13.584 -10.445  21.790  1.00  0.00     0.054 A
HETATM   16  C4  UNL     1      12.491 -11.177  22.182  1.00  0.00    -0.032 A
HETATM   17  C3  UNL     1      11.716 -10.383  23.011  1.00  0.00     0.033 A
HETATM   18  C5  UNL     1      12.234 -12.579  21.757  1.00  0.00     0.050 C
HETATM   19  C2  UNL     1      12.353  -9.178  23.110  1.00  0.00     0.006 A
HETATM   20  C1  UNL     1      11.943  -7.967  23.880  1.00  0.00     0.068 C
HETATM   21  N5  UNL     1      13.481  -9.245  22.360  1.00  0.00    -0.358 N
ATOM     22  H5  UNL     1      14.154  -8.487  22.248  1.00  0.00     0.166 HD
ENDBRANCH  12  15
ENDBRANCH   9  10
ENDBRANCH   1   9
BRANCH   6  23
HETATM   23  C12 UNL     1      19.430 -13.143  23.549  1.00  0.00     0.063 C
BRANCH  23  24
HETATM   24  C13 UNL     1      19.711 -13.663  24.943  1.00  0.00     0.238 C
BRANCH  24  25
HETATM   25  N4  UNL     1      20.980 -13.228  25.436  1.00  0.00    -0.079 N
HETATM   26  C14 UNL     1      21.783 -12.542  24.461  1.00  0.00     0.271 C
HETATM   27  C15 UNL     1      21.724 -14.398  25.893  1.00  0.00     0.271 C
HETATM   28  C16 UNL     1      20.855 -12.348  26.600  1.00  0.00     0.271 C
ENDBRANCH  24  25
ENDBRANCH  23  24
ENDBRANCH   6  23
TORSDOF 6
ENDMDL