MODEL 4
REMARK VINA RESULT: -7.778086042      1.300      1.796
REMARK  7 active torsions:
REMARK  status: ('A' for Active; 'I' for Inactive)
REMARK    1  A    between atoms: C5_5  and  O1_6
REMARK    2  A    between atoms: O1_6  and  C6_7
REMARK    3  A    between atoms: C6_7  and  C7_9
REMARK    4  A    between atoms: C7_9  and  N1_10
REMARK    5  A    between atoms: N2_13  and  C10_14
REMARK    6  A    between atoms: C10_14  and  C11_15
REMARK    7  A    between atoms: C11_15  and  C12_16
ROOT
HETATM    1  N1  UNL     1      17.042 -11.880  20.581  1.00  0.00     0.101 N
HETATM    2  C8  UNL     1      16.192 -12.964  20.943  1.00  0.00     0.301 C
HETATM    3  C9  UNL     1      14.811 -12.541  21.370  1.00  0.00     0.268 C
HETATM    4  N2  UNL     1      14.216 -11.580  20.499  1.00  0.00    -0.055 N
HETATM    5  C14 UNL     1      14.586 -11.649  19.122  1.00  0.00     0.273 A
HETATM    6  C15 UNL     1      15.126 -10.604  19.947  1.00  0.00     0.244 A
HETATM    7  C16 UNL     1      16.429 -10.596  20.664  1.00  0.00     0.308 C
ENDROOT
BRANCH   1   8
HETATM    8  C7  UNL     1      18.284 -11.880  21.363  1.00  0.00     0.383 C
BRANCH   8   9
HETATM    9  C6  UNL     1      19.310 -12.681  20.677  1.00  0.00     0.287 C
HETATM   10  O2  UNL     1      19.816 -12.280  19.610  1.00  0.00    -0.263 OA
BRANCH   9  11
HETATM   11  O1  UNL     1      19.799 -13.889  21.106  1.00  0.00    -0.315 OA
BRANCH  11  12
HETATM   12  C5  UNL     1      20.151 -14.176  22.407  1.00  0.00     0.136 C
HETATM   13  C4  UNL     1      21.131 -13.084  22.846  1.00  0.00     0.070 C
HETATM   14  C2  UNL     1      21.734 -13.320  24.169  1.00  0.00     0.056 C
HETATM   15  C1  UNL     1      21.241 -12.184  25.087  1.00  0.00     0.045 C
HETATM   16  C3  UNL     1      23.256 -13.116  24.119  1.00  0.00     0.045 C
HETATM   17  O3  UNL     1      21.488 -14.469  24.814  1.00  0.00    -0.381 OA
HETATM   18  C18 UNL     1      20.971 -15.543  24.221  1.00  0.00     0.171 C
HETATM   19  C17 UNL     1      20.765 -15.477  22.714  1.00  0.00     0.059 C
ENDBRANCH  11  12
ENDBRANCH   9  11
ENDBRANCH   8   9
ENDBRANCH   1   8
BRANCH   4  20
HETATM   20  C10 UNL     1      12.964 -11.004  20.932  1.00  0.00     0.244 C
BRANCH  20  21
HETATM   21  C11 UNL     1      12.418 -11.968  21.987  1.00  0.00     0.088 C
BRANCH  21  22
HETATM   22  C12 UNL     1      11.679 -11.202  23.018  1.00  0.00     0.044 A
HETATM   23  C13 UNL     1      11.733  -9.936  23.505  1.00  0.00     0.133 A
HETATM   24  N3  UNL     1      10.727 -10.193  24.356  1.00  0.00    -0.310 N
HETATM   25  N4  UNL     1      10.675 -11.421  23.883  1.00  0.00    -0.304 N
ATOM     26  H3  UNL     1      10.220  -9.663  25.065  1.00  0.00     0.186 HD
ATOM     27  H4  UNL     1      10.092 -12.231  24.094  1.00  0.00     0.186 HD
ENDBRANCH  21  22
ENDBRANCH  20  21
ENDBRANCH   4  20
TORSDOF 7
ENDMDL