MODEL 5
REMARK VINA RESULT: -7.629386808      1.751      2.255
REMARK  6 active torsions:
REMARK  status: ('A' for Active; 'I' for Inactive)
REMARK    1  A    between atoms: C2_2  and  C3_3
REMARK    2  A    between atoms: N1_5  and  C5_6
REMARK    3  A    between atoms: C5_6  and  C6_7
REMARK    4  A    between atoms: C6_7  and  C7_8
REMARK    5  A    between atoms: C7_8  and  C8_9
REMARK    6  A    between atoms: C8_9  and  N2_10
ROOT
HETATM    1  C7  UNL     1      18.048 -14.056  21.011  1.00  0.00     0.032 C
ENDROOT
BRANCH   1   2
HETATM    2  C6  UNL     1      18.126 -14.166  22.494  1.00  0.00     0.022 C
BRANCH   2   3
HETATM    3  C5  UNL     1      18.799 -12.965  23.074  1.00  0.00     0.126 C
BRANCH   3   4
HETATM    4  N1  UNL     1      20.034 -13.246  23.774  1.00  0.00    -0.342 N
HETATM    5  C4  UNL     1      19.911 -13.633  25.164  1.00  0.00     0.151 C
HETATM    6  C3  UNL     1      21.195 -14.070  25.782  1.00  0.00     0.102 C
HETATM    7  N4  UNL     1      22.339 -13.309  25.344  1.00  0.00    -0.347 N
HETATM    8  C18 UNL     1      22.494 -13.164  23.918  1.00  0.00     0.309 C
ATOM      9  H4  UNL     1      22.999 -12.898  26.004  1.00  0.00     0.163 HD
HETATM   10  C17 UNL     1      21.273 -13.132  23.093  1.00  0.00     0.311 C
HETATM   11  O3  UNL     1      23.613 -13.066  23.359  1.00  0.00    -0.262 OA
HETATM   12  O2  UNL     1      21.377 -13.010  21.861  1.00  0.00    -0.262 OA
BRANCH   6  13
HETATM   13  C2  UNL     1      21.462 -15.532  25.463  1.00  0.00     0.022 C
HETATM   14  C1  UNL     1      22.386 -16.175  26.465  1.00  0.00     0.007 C
ENDBRANCH   6  13
ENDBRANCH   3   4
ENDBRANCH   2   3
ENDBRANCH   1   2
BRANCH   1  15
HETATM   15  C8  UNL     1      17.595 -12.641  20.663  1.00  0.00     0.272 C
BRANCH  15  16
HETATM   16  N2  UNL     1      16.308 -12.687  19.967  1.00  0.00     0.088 N
HETATM   17  C9  UNL     1      15.319 -13.056  20.963  1.00  0.00     0.273 C
HETATM   18  C10 UNL     1      14.936 -11.763  21.680  1.00  0.00     0.049 C
HETATM   19  C11 UNL     1      13.987 -11.015  20.790  1.00  0.00     0.045 C
HETATM   20  C12 UNL     1      12.597 -11.537  21.054  1.00  0.00     0.039 C
HETATM   21  C14 UNL     1      13.872  -9.591  21.130  1.00  0.00     0.226 C
HETATM   22  C15 UNL     1      14.420 -11.239  19.360  1.00  0.00     0.049 C
HETATM   23  C13 UNL     1      12.240 -10.784  22.340  1.00  0.00     0.123 C
HETATM   24  N3  UNL     1      12.815  -9.465  22.068  1.00  0.00    -0.360 N
ATOM     25  H3  UNL     1      12.504  -8.590  22.489  1.00  0.00     0.162 HD
HETATM   26  O1  UNL     1      14.597  -8.682  20.654  1.00  0.00    -0.273 OA
HETATM   27  C16 UNL     1      15.944 -11.420  19.415  1.00  0.00     0.273 C
ENDBRANCH  15  16
ENDBRANCH   1  15
TORSDOF 6
ENDMDL