MODEL 4
REMARK VINA RESULT: -6.523770872      3.458      6.599
REMARK  6 active torsions:
REMARK  status: ('A' for Active; 'I' for Inactive)
REMARK    1  A    between atoms: C2_2  and  C3_3
REMARK    2  A    between atoms: C3_3  and  N1_4
REMARK    3  A    between atoms: N1_4  and  C4_6
REMARK    4  A    between atoms: N2_10  and  S1_11
REMARK    5  A    between atoms: S1_11  and  C8_14
REMARK    6  A    between atoms: C11_17  and  C12_18
REMARK       I    between atoms: N3_21  and  C15_22
ROOT
HETATM    1  C4  UNL     1      17.601 -12.833  20.027  1.00  0.00     0.095 C
HETATM    2  C5  UNL     1      18.090 -12.300  21.403  1.00  0.00     0.033 C
HETATM    3  C6  UNL     1      18.852 -13.394  21.999  1.00  0.00     0.013 C
HETATM    4  C7  UNL     1      20.141 -12.991  22.727  1.00  0.00     0.112 C
HETATM    5  N2  UNL     1      20.612 -14.346  22.994  1.00  0.00    -0.209 NA
HETATM    6  C10 UNL     1      19.469 -15.083  23.453  1.00  0.00     0.118 C
HETATM    7  C11 UNL     1      18.222 -14.285  22.984  1.00  0.00    -0.007 C
HETATM    8  C14 UNL     1      17.195 -15.160  22.384  1.00  0.00     0.138 C
HETATM    9  N3  UNL     1      16.708 -14.863  21.074  1.00  0.00    -0.334 N
HETATM   10  C15 UNL     1      16.451 -16.029  20.290  1.00  0.00     0.330 C
HETATM   11  N4  UNL     1      16.692 -17.300  20.854  1.00  0.00    -0.040 NA
HETATM   12  O3  UNL     1      16.014 -15.945  19.115  1.00  0.00    -0.251 OA
HETATM   13  C16 UNL     1      16.383 -13.650  20.369  1.00  0.00     0.152 C
ENDROOT
BRANCH   1  14
HETATM   14  N1  UNL     1      17.326 -11.731  19.187  1.00  0.00    -0.412 N
ATOM     15  H1  UNL     1      18.015 -11.003  19.001  1.00  0.00     0.153 HD
BRANCH  14  16
HETATM   16  C3  UNL     1      16.007 -11.705  18.611  1.00  0.00     0.141 C
BRANCH  16  17
HETATM   17  C2  UNL     1      16.125 -11.832  17.138  1.00  0.00    -0.018 C
HETATM   18  C1  UNL     1      16.914 -11.026  16.471  1.00  0.00     0.008 C
ENDBRANCH  16  17
ENDBRANCH  14  16
ENDBRANCH   1  14
BRANCH   7  19
HETATM   19  C12 UNL     1      17.712 -13.644  24.248  1.00  0.00     0.008 C
HETATM   20  C13 UNL     1      17.861 -14.716  25.339  1.00  0.00     0.006 C
ENDBRANCH   7  19
BRANCH   5  21
HETATM   21  S1  UNL     1      22.013 -14.484  23.890  1.00  0.00     0.211 S
HETATM   22  O1  UNL     1      22.803 -15.701  23.503  1.00  0.00    -0.211 OA
HETATM   23  O2  UNL     1      22.905 -13.289  23.574  1.00  0.00    -0.211 OA
BRANCH  21  24
HETATM   24  C8  UNL     1      21.819 -14.500  25.647  1.00  0.00     0.153 C
HETATM   25  C9  UNL     1      21.405 -13.080  26.052  1.00  0.00     0.022 C
ENDBRANCH  21  24
ENDBRANCH   5  21
TORSDOF 6
ENDMDL