MODEL 2
REMARK VINA RESULT: -6.387363607      1.203      1.932
REMARK  7 active torsions:
REMARK  status: ('A' for Active; 'I' for Inactive)
REMARK    1  A    between atoms: C2_2  and  C3_3
REMARK    2  A    between atoms: C3_3  and  N1_4
REMARK    3  A    between atoms: N1_4  and  C4_5
REMARK       I    between atoms: N1_4  and  C10_14
REMARK    4  A    between atoms: C4_5  and  C5_6
REMARK       I    between atoms: C5_6  and  N2_8
REMARK    5  A    between atoms: N2_8  and  C6_10
REMARK    6  A    between atoms: C10_14  and  C11_16
REMARK       I    between atoms: C11_16  and  N3_18
REMARK    7  A    between atoms: N3_18  and  C12_20
ROOT
HETATM    1  N1  UNL     1      15.408 -11.967  20.819  1.00  0.00    -0.335 N
HETATM    2  C10 UNL     1      15.882 -13.177  21.354  1.00  0.00     0.311 C
HETATM    3  O2  UNL     1      15.004 -13.987  21.818  1.00  0.00    -0.262 OA
ENDROOT
BRANCH   2   4
HETATM    4  C11 UNL     1      17.249 -13.626  21.448  1.00  0.00     0.310 C
HETATM    5  O3  UNL     1      17.629 -14.603  20.768  1.00  0.00    -0.262 OA
HETATM    6  N3  UNL     1      18.178 -12.990  22.290  1.00  0.00    -0.342 N
ATOM      7  H3  UNL     1      17.857 -12.194  22.840  1.00  0.00     0.163 HD
BRANCH   6   8
HETATM    8  C12 UNL     1      19.558 -13.392  22.426  1.00  0.00     0.055 C
HETATM    9  C13 UNL     1      20.261 -13.105  21.111  1.00  0.00     0.040 C
HETATM   10  C14 UNL     1      19.712 -14.826  22.846  1.00  0.00     0.060 C
HETATM   11  C15 UNL     1      20.066 -14.720  24.332  1.00  0.00     0.239 C
HETATM   12  N4  UNL     1      20.824 -13.500  24.449  1.00  0.00    -0.072 N
HETATM   13  C16 UNL     1      22.245 -13.727  24.267  1.00  0.00     0.272 C
HETATM   14  C17 UNL     1      20.667 -12.899  25.775  1.00  0.00     0.272 C
HETATM   15  C18 UNL     1      20.255 -12.596  23.499  1.00  0.00     0.267 C
ENDBRANCH   6   8
ENDBRANCH   2   4
BRANCH   1  16
HETATM   16  C3  UNL     1      13.952 -11.732  20.862  1.00  0.00     0.126 C
BRANCH  16  17
HETATM   17  C2  UNL     1      13.668 -10.401  21.488  1.00  0.00     0.015 C
HETATM   18  C1  UNL     1      12.211 -10.216  21.823  1.00  0.00     0.006 C
ENDBRANCH  16  17
ENDBRANCH   1  16
BRANCH   1  19
HETATM   19  C4  UNL     1      16.170 -10.923  20.214  1.00  0.00     0.228 C
BRANCH  19  20
HETATM   20  C5  UNL     1      16.581 -11.229  18.825  1.00  0.00     0.236 C
HETATM   21  O1  UNL     1      17.755 -11.638  18.567  1.00  0.00    -0.272 OA
HETATM   22  N2  UNL     1      15.664 -11.068  17.755  1.00  0.00    -0.352 N
ATOM     23  H2  UNL     1      14.724 -10.738  17.975  1.00  0.00     0.163 HD
BRANCH  22  24
HETATM   24  C6  UNL     1      15.978 -11.343  16.377  1.00  0.00     0.022 C
HETATM   25  C7  UNL     1      17.332 -10.871  15.942  1.00  0.00     0.037 C
HETATM   26  C8  UNL     1      15.925 -12.841  16.115  1.00  0.00     0.037 C
HETATM   27  C9  UNL     1      14.947 -10.634  15.487  1.00  0.00     0.037 C
ENDBRANCH  22  24
ENDBRANCH  19  20
ENDBRANCH   1  19
TORSDOF 7
ENDMDL