MODEL 4
REMARK VINA RESULT: -6.408117819      2.174      3.101
REMARK  9 active torsions:
REMARK  status: ('A' for Active; 'I' for Inactive)
REMARK    1  A    between atoms: N1_1  and  C1_5
REMARK    2  A    between atoms: C1_5  and  C2_6
REMARK    3  A    between atoms: C1_5  and  C4_10
REMARK    4  A    between atoms: C2_6  and  C3_7
REMARK    5  A    between atoms: C3_7  and  O1_8
REMARK    6  A    between atoms: C4_10  and  N4_21
REMARK    7  A    between atoms: N2_11  and  C5_13
REMARK    8  A    between atoms: C5_13  and  C6_14
REMARK    9  A    between atoms: C6_14  and  N3_15
ROOT
HETATM    1  C4  UNL     1      16.498 -12.756  21.478  1.00  0.00     0.106 C
HETATM    2  N2  UNL     1      15.260 -12.869  21.804  1.00  0.00    -0.376 N
ATOM      3  H2  UNL     1      15.019 -13.626  22.443  1.00  0.00     0.160 HD
ENDROOT
BRANCH   1   4
HETATM    4  C1  UNL     1      16.973 -11.710  20.567  1.00  0.00     0.252 C
BRANCH   4   5
HETATM    5  N1  UNL     1      16.851 -12.185  19.183  1.00  0.00    -0.068 N
ATOM      6  H13 UNL     1      16.184 -11.644  18.632  1.00  0.00     0.275 HD
ATOM      7  H12 UNL     1      17.678 -11.989  18.619  1.00  0.00     0.275 HD
ATOM      8  H11 UNL     1      16.623 -13.179  19.224  1.00  0.00     0.275 HD
ENDBRANCH   4   5
BRANCH   4   9
HETATM    9  C2  UNL     1      18.437 -11.379  20.801  1.00  0.00     0.067 C
BRANCH   9  10
HETATM   10  C3  UNL     1      19.231 -11.775  19.574  1.00  0.00     0.166 C
BRANCH  10  11
HETATM   11  O1  UNL     1      20.582 -11.776  19.953  1.00  0.00    -0.401 OA
ATOM     12  H1  UNL     1      20.865 -12.683  19.945  1.00  0.00     0.209 HD
ENDBRANCH  10  11
ENDBRANCH   9  10
ENDBRANCH   4   9
ENDBRANCH   1   4
BRANCH   1  13
HETATM   13  N4  UNL     1      17.395 -13.702  22.061  1.00  0.00    -0.366 N
HETATM   14  C12 UNL     1      17.887 -14.844  21.280  1.00  0.00     0.152 C
HETATM   15  C13 UNL     1      19.409 -14.934  21.461  1.00  0.00     0.257 C
HETATM   16  N5  UNL     1      19.764 -15.099  22.856  1.00  0.00    -0.064 N
HETATM   17  C14 UNL     1      20.819 -14.227  23.287  1.00  0.00     0.237 C
HETATM   18  C17 UNL     1      20.218 -16.466  23.046  1.00  0.00     0.237 C
HETATM   19  C18 UNL     1      18.630 -14.895  23.714  1.00  0.00     0.257 C
HETATM   20  C15 UNL     1      21.837 -15.066  24.011  1.00  0.00     0.029 C
HETATM   21  C16 UNL     1      21.673 -16.417  23.380  1.00  0.00     0.029 C
HETATM   22  C19 UNL     1      17.880 -13.613  23.418  1.00  0.00     0.152 C
ENDBRANCH   1  13
BRANCH   2  23
HETATM   23  C5  UNL     1      14.185 -12.030  21.354  1.00  0.00     0.151 C
BRANCH  23  24
HETATM   24  C6  UNL     1      12.836 -12.433  21.961  1.00  0.00     0.292 C
BRANCH  24  25
HETATM   25  N3  UNL     1      12.127 -11.208  22.263  1.00  0.00     0.090 N
HETATM   26  C7  UNL     1      11.123 -11.366  23.259  1.00  0.00     0.272 C
HETATM   27  C8  UNL     1      11.292 -10.463  24.462  1.00  0.00     0.030 C
HETATM   28  C9  UNL     1      11.494  -9.028  24.115  1.00  0.00     0.003 C
HETATM   29  C10 UNL     1      12.078  -8.873  22.736  1.00  0.00     0.030 C
HETATM   30  C11 UNL     1      12.957 -10.057  22.394  1.00  0.00     0.272 C
ENDBRANCH  24  25
ENDBRANCH  23  24
ENDBRANCH   2  23
TORSDOF 9
ENDMDL