MODEL 4
REMARK VINA RESULT: -5.265163270      2.890      4.812
REMARK  6 active torsions:
REMARK  status: ('A' for Active; 'I' for Inactive)
REMARK    1  A    between atoms: C2_2  and  C3_3
REMARK    2  A    between atoms: C3_3  and  N1_6
REMARK    3  A    between atoms: N1_6  and  S1_7
REMARK    4  A    between atoms: S1_7  and  O1_8
REMARK    5  A    between atoms: S1_7  and  C6_12
REMARK    6  A    between atoms: C6_12  and  C7_13
ROOT
HETATM    1  S1  UNL     1      25.842  -4.265   8.629  1.00  0.00     0.149 SA
HETATM    2  F1  UNL     1      25.398  -3.303   8.598  1.00  0.00    -0.127 F
HETATM    3  F2  UNL     1      27.272  -5.901   9.504  1.00  0.00    -0.127 F
ENDROOT
BRANCH   1   4
HETATM    4  N1  UNL     1      27.423  -4.298   7.556  1.00  0.00    -0.125 NA
BRANCH   4   5
HETATM    5  C3  UNL     1      27.060  -4.301   6.152  1.00  0.00     0.037 C
HETATM    6  C4  UNL     1      26.511  -2.994   5.690  1.00  0.00     0.034 C
HETATM    7  C5  UNL     1      26.170  -5.426   5.756  1.00  0.00     0.034 C
BRANCH   5   8
HETATM    8  C2  UNL     1      28.396  -4.503   5.415  1.00  0.00     0.022 C
HETATM    9  C1  UNL     1      28.248  -5.368   4.205  1.00  0.00     0.007 C
ENDBRANCH   5   8
ENDBRANCH   4   5
ENDBRANCH   1   4
BRANCH   1  10
HETATM   10  O1  UNL     1      26.512  -3.909  10.592  1.00  0.00    -0.300 OA
ATOM     11  H1  UNL     1      26.239  -3.021  10.792  1.00  0.00     0.231 HD
ENDBRANCH   1  10
BRANCH   1  12
HETATM   12  C6  UNL     1      24.712  -5.757   8.659  1.00  0.00     0.153 C
BRANCH  12  13
HETATM   13  C7  UNL     1      23.246  -5.322   8.385  1.00  0.00     0.003 C
HETATM   14  C8  UNL     1      22.479  -6.528   7.856  1.00  0.00     0.033 C
HETATM   15  C9  UNL     1      21.949  -7.282   9.048  1.00  0.00     0.232 C
HETATM   16  N2  UNL     1      20.813  -6.549   9.613  1.00  0.00    -0.075 N
HETATM   17  C10 UNL     1      21.066  -5.137   9.589  1.00  0.00     0.232 C
ATOM     18  H22 UNL     1      19.939  -6.786   9.144  1.00  0.00     0.277 HD
ATOM     19  H21 UNL     1      20.577  -6.877  10.549  1.00  0.00     0.277 HD
HETATM   20  C11 UNL     1      22.574  -4.855   9.623  1.00  0.00     0.033 C
ENDBRANCH  12  13
ENDBRANCH   1  12
TORSDOF 6
ENDMDL