MODEL 2
REMARK VINA RESULT: -6.386825224      2.921      4.083
REMARK  8 active torsions:
REMARK  status: ('A' for Active; 'I' for Inactive)
REMARK    1  A    between atoms: C2_2  and  N1_4
REMARK    2  A    between atoms: C6_7  and  C7_8
REMARK    3  A    between atoms: C7_8  and  O1_9
REMARK    4  A    between atoms: C7_8  and  C8_11
REMARK    5  A    between atoms: C8_11  and  N2_12
REMARK    6  A    between atoms: N2_12  and  C9_14
REMARK    7  A    between atoms: C9_14  and  C10_15
REMARK    8  A    between atoms: C10_15  and  C13_18
ROOT
HETATM    1  C7  UNL     1      25.963  -4.204   8.999  1.00  0.00     0.141 C
ENDROOT
BRANCH   1   2
HETATM    2  C6  UNL     1      26.807  -4.425   7.724  1.00  0.00     0.038 C
HETATM    3  C5  UNL     1      26.914  -3.148   6.955  1.00  0.00     0.053 C
HETATM    4  C4  UNL     1      26.829  -3.566   5.528  1.00  0.00     0.059 C
HETATM    5  N1  UNL     1      26.332  -4.872   5.489  1.00  0.00    -0.389 N
HETATM    6  C14 UNL     1      26.194  -5.396   6.796  1.00  0.00     0.130 C
BRANCH   5   7
HETATM    7  C2  UNL     1      26.594  -5.718   4.410  1.00  0.00     0.075 C
HETATM    8  C1  UNL     1      26.432  -7.197   4.687  1.00  0.00     0.032 C
HETATM    9  C3  UNL     1      28.008  -5.440   3.922  1.00  0.00     0.032 C
ENDBRANCH   5   7
ENDBRANCH   1   2
BRANCH   1  10
HETATM   10  O1  UNL     1      26.779  -4.292  10.102  1.00  0.00    -0.393 OA
ATOM     11  H1  UNL     1      26.804  -3.450  10.539  1.00  0.00     0.210 HD
ENDBRANCH   1  10
BRANCH   1  12
HETATM   12  C8  UNL     1      24.806  -5.159   8.981  1.00  0.00     0.150 C
BRANCH  12  13
HETATM   13  N2  UNL     1      23.619  -4.764   9.633  1.00  0.00    -0.399 N
ATOM     14  H2  UNL     1      23.658  -4.105  10.410  1.00  0.00     0.158 HD
BRANCH  13  15
HETATM   15  C9  UNL     1      22.396  -5.275   9.214  1.00  0.00     0.073 C
BRANCH  15  16
HETATM   16  C10 UNL     1      21.122  -4.769   9.777  1.00  0.00     0.082 C
HETATM   17  C11 UNL     1      20.316  -6.014  10.222  1.00  0.00     0.030 C
HETATM   18  C12 UNL     1      21.301  -3.944  11.029  1.00  0.00     0.030 C
BRANCH  16  19
HETATM   19  C13 UNL     1      20.206  -4.023   8.875  1.00  0.00     0.399 C
HETATM   20  F1  UNL     1      20.629  -2.772   8.491  1.00  0.00    -0.170 F
HETATM   21  F2  UNL     1      19.038  -3.793   9.624  1.00  0.00    -0.170 F
HETATM   22  F3  UNL     1      19.764  -4.783   7.811  1.00  0.00    -0.170 F
ENDBRANCH  16  19
ENDBRANCH  15  16
ENDBRANCH  13  15
ENDBRANCH  12  13
ENDBRANCH   1  12
TORSDOF 8
ENDMDL