MODEL 3
REMARK VINA RESULT: -5.867328483      2.698      3.860
REMARK  5 active torsions:
REMARK  status: ('A' for Active; 'I' for Inactive)
REMARK    1  A    between atoms: C3_8  and  C4_9
REMARK    2  A    between atoms: C4_9  and  N2_10
REMARK    3  A    between atoms: N2_10  and  C5_13
REMARK    4  A    between atoms: C5_13  and  C6_14
REMARK    5  A    between atoms: C6_14  and  N3_15
ROOT
HETATM    1  N2  UNL     1      24.160  -6.095   7.389  1.00  0.00    -0.071 N
ATOM      2  H21 UNL     1      23.513  -6.649   6.827  1.00  0.00     0.277 HD
ATOM      3  H22 UNL     1      23.907  -5.162   7.067  1.00  0.00     0.277 HD
ENDROOT
BRANCH   1   4
HETATM    4  C4  UNL     1      25.519  -6.401   7.049  1.00  0.00     0.265 C
BRANCH   4   5
HETATM    5  C3  UNL     1      26.127  -5.200   6.334  1.00  0.00     0.217 C
HETATM    6  N1  UNL     1      27.278  -4.666   7.017  1.00  0.00    -0.064 N
HETATM    7  C2  UNL     1      27.994  -3.916   5.999  1.00  0.00     0.311 C
ATOM      8  H12 UNL     1      27.845  -5.370   7.490  1.00  0.00     0.277 HD
ATOM      9  H11 UNL     1      27.051  -4.123   7.850  1.00  0.00     0.277 HD
HETATM   10  C1  UNL     1      27.628  -4.536   4.678  1.00  0.00     0.269 C
HETATM   11  F1  UNL     1      28.746  -4.930   3.967  1.00  0.00    -0.204 F
HETATM   12  F2  UNL     1      26.845  -3.694   3.913  1.00  0.00    -0.204 F
HETATM   13  C14 UNL     1      26.766  -5.720   5.063  1.00  0.00     0.115 C
ENDBRANCH   4   5
ENDBRANCH   1   4
BRANCH   1  14
HETATM   14  C5  UNL     1      23.868  -6.247   8.813  1.00  0.00     0.262 C
BRANCH  14  15
HETATM   15  C6  UNL     1      22.366  -6.425   8.889  1.00  0.00     0.300 C
BRANCH  15  16
HETATM   16  N3  UNL     1      21.607  -5.279   8.454  1.00  0.00     0.095 N
HETATM   17  C7  UNL     1      20.384  -5.806   7.859  1.00  0.00     0.277 C
HETATM   18  C8  UNL     1      19.178  -5.437   8.639  1.00  0.00     0.014 C
HETATM   19  C9  UNL     1      19.038  -3.933   8.606  1.00  0.00     0.008 C
HETATM   20  C13 UNL     1      19.379  -5.912  10.075  1.00  0.00     0.008 C
HETATM   21  C10 UNL     1      20.311  -3.362   9.210  1.00  0.00     0.036 C
HETATM   22  C11 UNL     1      21.282  -4.450   9.608  1.00  0.00     0.223 C
HETATM   23  C12 UNL     1      20.559  -5.243  10.699  1.00  0.00     0.036 C
ENDBRANCH  15  16
ENDBRANCH  14  15
ENDBRANCH   1  14
TORSDOF 5
ENDMDL