MODEL 1
REMARK VINA RESULT: -6.366991783      0.000      0.000
REMARK  7 active torsions:
REMARK  status: ('A' for Active; 'I' for Inactive)
REMARK    1  A    between atoms: C2_2  and  C3_3
REMARK    2  A    between atoms: C3_3  and  O1_4
REMARK    3  A    between atoms: C3_3  and  N1_6
REMARK    4  A    between atoms: C3_3  and  S1_12
REMARK    5  A    between atoms: N1_6  and  O2_7
REMARK    6  A    between atoms: S1_12  and  N2_14
REMARK    7  A    between atoms: N2_14  and  C6_16
ROOT
HETATM    1  C3  UNL     1      26.864  -4.610   5.644  1.00  0.00     0.221 C
ENDROOT
BRANCH   1   2
HETATM    2  C2  UNL     1      26.248  -5.910   5.234  1.00  0.00     0.072 C
HETATM    3  C1  UNL     1      24.758  -5.857   5.030  1.00  0.00     0.011 C
ENDBRANCH   1   2
BRANCH   1   4
HETATM    4  O1  UNL     1      26.056  -3.610   4.997  1.00  0.00    -0.360 OA
ATOM      5  H1  UNL     1      26.409  -2.784   5.307  1.00  0.00     0.213 HD
ENDBRANCH   1   4
BRANCH   1   6
HETATM    6  N1  UNL     1      28.174  -4.357   5.140  1.00  0.00    -0.163 N
HETATM    7  C4  UNL     1      28.482  -4.113   3.964  1.00  0.00     0.369 C
HETATM    8  F1  UNL     1      29.823  -3.887   3.647  1.00  0.00    -0.150 F
HETATM    9  F2  UNL     1      27.660  -4.044   2.914  1.00  0.00    -0.150 F
BRANCH   6  10
HETATM   10  O2  UNL     1      29.193  -4.419   6.098  1.00  0.00    -0.280 OA
ATOM     11  H2  UNL     1      29.154  -3.744   6.765  1.00  0.00     0.245 HD
ENDBRANCH   6  10
ENDBRANCH   1   6
BRANCH   1  12
HETATM   12  S1  UNL     1      26.773  -4.347   7.348  1.00  0.00    -0.077 SA
HETATM   13  C5  UNL     1      26.508  -2.801   7.968  1.00  0.00     0.106 C
BRANCH  12  14
HETATM   14  N2  UNL     1      26.948  -5.654   8.363  1.00  0.00    -0.365 N
ATOM     15  H2  UNL     1      27.860  -6.075   8.544  1.00  0.00     0.167 HD
BRANCH  14  16
HETATM   16  C6  UNL     1      25.753  -6.156   8.971  1.00  0.00     0.090 C
HETATM   17  C7  UNL     1      24.581  -5.261   8.568  1.00  0.00     0.028 C
HETATM   18  C8  UNL     1      23.415  -6.100   9.052  1.00  0.00     0.039 C
HETATM   19  C9  UNL     1      23.800  -7.486   8.592  1.00  0.00     0.172 C
HETATM   20  F3  UNL     1      23.108  -7.773   7.431  1.00  0.00    -0.249 F
HETATM   21  C10 UNL     1      25.297  -7.477   8.384  1.00  0.00     0.062 C
ENDBRANCH  14  16
ENDBRANCH  12  14
ENDBRANCH   1  12
TORSDOF 7
ENDMDL