MODEL 5
REMARK VINA RESULT: -5.856020262      1.702      2.402
REMARK  6 active torsions:
REMARK  status: ('A' for Active; 'I' for Inactive)
REMARK    1  A    between atoms: O1_1  and  C1_3
REMARK    2  A    between atoms: C1_3  and  C2_4
REMARK    3  A    between atoms: C1_3  and  C14_20
REMARK    4  A    between atoms: C2_4  and  C3_5
REMARK    5  A    between atoms: N1_8  and  C6_9
REMARK    6  A    between atoms: C6_9  and  C7_10
ROOT
HETATM    1  C3  UNL     1      25.884  -6.371   8.259  1.00  0.00    -0.009 C
HETATM    2  C4  UNL     1      24.928  -6.079   7.153  1.00  0.00     0.035 C
HETATM    3  C5  UNL     1      23.507  -6.571   7.430  1.00  0.00     0.272 C
HETATM    4  N1  UNL     1      22.937  -5.955   8.564  1.00  0.00     0.088 N
HETATM    5  C12 UNL     1      23.914  -5.576   9.570  1.00  0.00     0.272 C
HETATM    6  C13 UNL     1      25.091  -6.536   9.551  1.00  0.00     0.035 C
ENDROOT
BRANCH   4   7
HETATM    7  C6  UNL     1      21.827  -6.607   9.136  1.00  0.00     0.278 C
BRANCH   7   8
HETATM    8  C7  UNL     1      20.647  -5.779   9.537  1.00  0.00     0.039 C
HETATM    9  C8  UNL     1      20.807  -4.307   9.525  1.00  0.00     0.010 C
HETATM   10  C9  UNL     1      19.506  -3.590   9.150  1.00  0.00     0.028 C
HETATM   11  C10 UNL     1      19.038  -3.956   7.774  1.00  0.00     0.232 C
HETATM   12  N2  UNL     1      19.673  -5.237   7.428  1.00  0.00    -0.075 N
HETATM   13  C11 UNL     1      19.464  -6.089   8.597  1.00  0.00     0.238 C
ATOM     14  H22 UNL     1      19.338  -5.642   6.555  1.00  0.00     0.277 HD
ATOM     15  H21 UNL     1      20.650  -5.150   7.149  1.00  0.00     0.277 HD
ENDBRANCH   7   8
ENDBRANCH   4   7
BRANCH   1  16
HETATM   16  C2  UNL     1      26.886  -5.260   8.474  1.00  0.00     0.042 C
BRANCH  16  17
HETATM   17  C1  UNL     1      26.798  -4.211   7.393  1.00  0.00     0.183 C
BRANCH  17  18
HETATM   18  O1  UNL     1      27.953  -4.137   6.634  1.00  0.00    -0.390 OA
ATOM     19  H1  UNL     1      28.651  -3.673   7.082  1.00  0.00     0.210 HD
ENDBRANCH  17  18
BRANCH  17  20
HETATM   20  C14 UNL     1      26.551  -2.833   7.978  1.00  0.00     0.381 C
HETATM   21  F1  UNL     1      25.966  -2.039   7.017  1.00  0.00    -0.212 F
HETATM   22  F2  UNL     1      25.774  -2.888   9.121  1.00  0.00    -0.212 F
ENDBRANCH  17  20
ENDBRANCH  16  17
ENDBRANCH   1  16
TORSDOF 6
ENDMDL