MODEL 3
REMARK VINA RESULT: -5.829652399      2.202      3.713
REMARK  6 active torsions:
REMARK  status: ('A' for Active; 'I' for Inactive)
REMARK    1  A    between atoms: C2_2  and  C3_3
REMARK    2  A    between atoms: C5_5  and  C6_6
REMARK    3  A    between atoms: C6_6  and  O1_8
REMARK    4  A    between atoms: O1_8  and  C8_9
REMARK    5  A    between atoms: C8_9  and  C10_11
REMARK    6  A    between atoms: C10_11  and  N1_12
ROOT
HETATM    1  C3  UNL     1      26.095  -4.457   8.225  1.00  0.00     0.060 C
HETATM    2  C4  UNL     1      24.655  -4.915   8.098  1.00  0.00     0.027 C
HETATM    3  C5  UNL     1      24.563  -6.427   8.227  1.00  0.00     0.107 C
HETATM    4  C11 UNL     1      25.559  -7.109   7.383  1.00  0.00     0.224 C
HETATM    5  O2  UNL     1      25.559  -8.357   7.490  1.00  0.00    -0.273 OA
HETATM    6  N2  UNL     1      26.480  -6.507   6.495  1.00  0.00    -0.355 N
ATOM      7  H2  UNL     1      27.293  -7.071   6.247  1.00  0.00     0.162 HD
HETATM    8  C12 UNL     1      26.416  -5.204   5.901  1.00  0.00     0.202 C
HETATM    9  C13 UNL     1      26.566  -4.064   6.860  1.00  0.00     0.262 C
HETATM   10  F1  UNL     1      27.855  -3.568   6.893  1.00  0.00    -0.204 F
HETATM   11  F2  UNL     1      25.760  -3.027   6.393  1.00  0.00    -0.204 F
ENDROOT
BRANCH   3  12
HETATM   12  C6  UNL     1      23.144  -6.862   7.892  1.00  0.00     0.131 C
HETATM   13  C7  UNL     1      22.230  -6.516   9.038  1.00  0.00     0.040 C
BRANCH  12  14
HETATM   14  O1  UNL     1      22.778  -6.172   6.738  1.00  0.00    -0.379 OA
BRANCH  14  15
HETATM   15  C8  UNL     1      22.388  -7.030   5.713  1.00  0.00     0.143 C
HETATM   16  C9  UNL     1      20.880  -6.876   5.506  1.00  0.00     0.041 C
BRANCH  15  17
HETATM   17  C10 UNL     1      23.033  -6.509   4.432  1.00  0.00     0.261 C
BRANCH  17  18
HETATM   18  N1  UNL     1      24.121  -7.322   3.989  1.00  0.00    -0.077 N
ATOM     19  H13 UNL     1      24.826  -7.418   4.720  1.00  0.00     0.274 HD
ATOM     20  H12 UNL     1      23.837  -8.297   3.903  1.00  0.00     0.274 HD
ATOM     21  H11 UNL     1      24.539  -6.985   3.121  1.00  0.00     0.274 HD
ENDBRANCH  17  18
ENDBRANCH  15  17
ENDBRANCH  14  15
ENDBRANCH  12  14
ENDBRANCH   3  12
BRANCH   1  22
HETATM   22  C2  UNL     1      26.177  -3.313   9.210  1.00  0.00     0.006 C
HETATM   23  C1  UNL     1      25.822  -3.698  10.610  1.00  0.00     0.006 C
ENDBRANCH   1  22
TORSDOF 6
ENDMDL