MODEL 5
REMARK VINA RESULT: -6.010615370      2.948      6.007
REMARK  5 active torsions:
REMARK  status: ('A' for Active; 'I' for Inactive)
REMARK    1  A    between atoms: C5_6  and  N2_7
REMARK    2  A    between atoms: N2_7  and  C6_9
REMARK    3  A    between atoms: C6_9  and  C7_10
REMARK    4  A    between atoms: C11_15  and  C12_16
REMARK    5  A    between atoms: C12_16  and  C13_17
ROOT
HETATM    1  C7  UNL     1      26.361  -4.511   6.894  1.00  0.00     0.094 C
HETATM    2  C8  UNL     1      26.152  -3.040   7.126  1.00  0.00     0.029 C
HETATM    3  C9  UNL     1      26.502  -2.589   8.505  1.00  0.00     0.041 C
HETATM    4  C10 UNL     1      25.815  -3.533   9.479  1.00  0.00     0.192 C
HETATM    5  F1  UNL     1      26.086  -3.056  10.751  1.00  0.00    -0.247 F
HETATM    6  C11 UNL     1      26.273  -4.953   9.281  1.00  0.00     0.113 C
HETATM    7  N3  UNL     1      26.905  -5.210   8.032  1.00  0.00    -0.409 N
ATOM      8  H3  UNL     1      27.694  -5.850   7.946  1.00  0.00     0.154 HD
ENDROOT
BRANCH   1   9
HETATM    9  C6  UNL     1      27.389  -4.727   5.765  1.00  0.00     0.139 C
BRANCH   9  10
HETATM   10  N2  UNL     1      26.684  -4.909   4.560  1.00  0.00    -0.413 N
ATOM     11  H2  UNL     1      26.627  -4.154   3.878  1.00  0.00     0.153 HD
BRANCH  10  12
HETATM   12  C5  UNL     1      26.056  -6.151   4.306  1.00  0.00     0.105 C
HETATM   13  C4  UNL     1      24.627  -6.058   4.843  1.00  0.00     0.028 C
HETATM   14  C3  UNL     1      23.828  -7.274   4.464  1.00  0.00     0.032 C
HETATM   15  C2  UNL     1      24.682  -8.521   4.425  1.00  0.00     0.272 C
HETATM   16  N1  UNL     1      25.827  -8.391   5.282  1.00  0.00     0.086 N
HETATM   17  C1  UNL     1      25.513  -8.313   6.672  1.00  0.00     0.310 C
HETATM   18  C14 UNL     1      26.762  -7.365   4.836  1.00  0.00     0.296 C
ENDBRANCH  10  12
ENDBRANCH   9  10
ENDBRANCH   1   9
BRANCH   6  19
HETATM   19  C12 UNL     1      25.171  -5.952   9.627  1.00  0.00     0.059 C
BRANCH  19  20
HETATM   20  C13 UNL     1      23.819  -5.360   9.292  1.00  0.00     0.224 C
HETATM   21  F2  UNL     1      23.409  -5.801   8.047  1.00  0.00    -0.255 F
ENDBRANCH  19  20
ENDBRANCH   6  19
TORSDOF 5
ENDMDL