MODEL 2
REMARK VINA RESULT: -5.793343639      2.397      4.027
REMARK  7 active torsions:
REMARK  status: ('A' for Active; 'I' for Inactive)
REMARK    1  A    between atoms: C5_5  and  C6_7
REMARK    2  A    between atoms: C10_11  and  O1_12
REMARK    3  A    between atoms: O1_12  and  C11_13
REMARK    4  A    between atoms: C11_13  and  C12_14
REMARK    5  A    between atoms: C12_14  and  N1_15
REMARK    6  A    between atoms: C12_14  and  C13_19
REMARK    7  A    between atoms: C13_19  and  N2_20
ROOT
HETATM    1  C1  UNL     1      22.659  -5.440   9.184  1.00  0.00     0.012 C
HETATM    2  C2  UNL     1      22.791  -5.963   8.096  1.00  0.00    -0.110 C
HETATM    3  C3  UNL     1      22.936  -6.605   6.788  1.00  0.00     0.104 C
HETATM    4  C4  UNL     1      23.888  -7.775   6.754  1.00  0.00     0.067 C
HETATM    5  C5  UNL     1      24.941  -6.906   6.075  1.00  0.00     0.142 C
HETATM    6  F1  UNL     1      25.942  -6.617   6.962  1.00  0.00    -0.239 F
HETATM    7  C14 UNL     1      23.895  -5.867   5.877  1.00  0.00     0.226 C
HETATM    8  F2  UNL     1      23.355  -5.771   4.614  1.00  0.00    -0.245 F
ENDROOT
BRANCH   5   9
HETATM    9  C6  UNL     1      25.454  -7.605   4.851  1.00  0.00     0.057 C
HETATM   10  C7  UNL     1      26.209  -8.848   5.342  1.00  0.00     0.011 C
HETATM   11  C8  UNL     1      27.331  -9.044   4.348  1.00  0.00     0.003 C
HETATM   12  C9  UNL     1      27.697  -7.660   3.926  1.00  0.00     0.032 C
HETATM   13  C10 UNL     1      26.472  -6.787   4.095  1.00  0.00     0.128 C
BRANCH  13  14
HETATM   14  O1  UNL     1      26.853  -5.648   4.758  1.00  0.00    -0.383 OA
BRANCH  14  15
HETATM   15  C11 UNL     1      28.090  -5.191   4.378  1.00  0.00     0.202 C
BRANCH  15  16
HETATM   16  C12 UNL     1      28.567  -3.982   5.119  1.00  0.00     0.232 C
BRANCH  16  17
HETATM   17  N1  UNL     1      27.503  -3.003   5.288  1.00  0.00    -0.071 N
ATOM     18  H13 UNL     1      26.784  -3.106   4.571  1.00  0.00     0.274 HD
ATOM     19  H12 UNL     1      26.936  -3.208   6.111  1.00  0.00     0.274 HD
ATOM     20  H11 UNL     1      27.869  -2.052   5.314  1.00  0.00     0.274 HD
ENDBRANCH  16  17
BRANCH  16  21
HETATM   21  C13 UNL     1      29.613  -3.300   4.225  1.00  0.00     0.264 C
BRANCH  21  22
HETATM   22  N2  UNL     1      29.900  -1.963   4.675  1.00  0.00    -0.077 N
ATOM     23  H23 UNL     1      29.414  -1.267   4.111  1.00  0.00     0.274 HD
ATOM     24  H22 UNL     1      29.461  -1.771   5.576  1.00  0.00     0.274 HD
ATOM     25  H21 UNL     1      30.904  -1.786   4.704  1.00  0.00     0.274 HD
ENDBRANCH  21  22
ENDBRANCH  16  21
ENDBRANCH  15  16
ENDBRANCH  14  15
ENDBRANCH  13  14
ENDBRANCH   5   9
TORSDOF 7
ENDMDL