MODEL 2
REMARK VINA RESULT: -5.727937096      3.149      4.252
REMARK  7 active torsions:
REMARK  status: ('A' for Active; 'I' for Inactive)
REMARK    1  A    between atoms: C3_4  and  C4_5
REMARK    2  A    between atoms: C4_5  and  O1_6
REMARK    3  A    between atoms: C4_5  and  C5_8
REMARK    4  A    between atoms: C5_8  and  N2_9
REMARK    5  A    between atoms: N2_9  and  C6_11
REMARK    6  A    between atoms: C6_11  and  C7_12
REMARK    7  A    between atoms: C10_15  and  C12_17
ROOT
HETATM    1  C1  UNL     1      25.516  -9.754   3.584  1.00  0.00     0.309 C
HETATM    2  N1  UNL     1      25.385  -8.491   4.243  1.00  0.00     0.085 N
HETATM    3  C2  UNL     1      26.531  -8.151   5.059  1.00  0.00     0.280 C
HETATM    4  C3  UNL     1      25.998  -6.898   5.782  1.00  0.00     0.060 C
HETATM    5  C10 UNL     1      24.537  -7.080   5.810  1.00  0.00     0.055 C
HETATM    6  C11 UNL     1      23.710  -6.202   4.942  1.00  0.00     0.023 C
HETATM    7  C14 UNL     1      24.350  -8.514   5.289  1.00  0.00     0.287 C
ENDROOT
BRANCH   4   8
HETATM    8  C4  UNL     1      26.559  -5.753   5.016  1.00  0.00     0.142 C
BRANCH   8   9
HETATM    9  O1  UNL     1      27.880  -6.180   4.679  1.00  0.00    -0.393 OA
ATOM     10  H1  UNL     1      28.305  -5.387   4.377  1.00  0.00     0.210 HD
ENDBRANCH   8   9
BRANCH   8  11
HETATM   11  C5  UNL     1      26.773  -4.479   5.805  1.00  0.00     0.150 C
BRANCH  11  12
HETATM   12  N2  UNL     1      26.923  -4.791   7.191  1.00  0.00    -0.399 N
ATOM     13  H2  UNL     1      27.488  -5.590   7.481  1.00  0.00     0.158 HD
BRANCH  12  14
HETATM   14  C6  UNL     1      26.289  -3.993   8.146  1.00  0.00     0.060 C
BRANCH  14  15
HETATM   15  C7  UNL     1      26.210  -4.429   9.561  1.00  0.00     0.024 A
HETATM   16  C8  UNL     1      24.765  -4.347  10.134  1.00  0.00     0.010 A
HETATM   17  C9  UNL     1      25.959  -3.603  10.733  1.00  0.00     0.010 A
ENDBRANCH  14  15
ENDBRANCH  12  14
ENDBRANCH  11  12
ENDBRANCH   8  11
ENDBRANCH   4   8
BRANCH   5  18
HETATM   18  C12 UNL     1      23.946  -7.056   7.202  1.00  0.00     0.249 C
HETATM   19  C13 UNL     1      24.848  -7.596   8.262  1.00  0.00     0.091 C
HETATM   20  F1  UNL     1      23.499  -5.829   7.578  1.00  0.00    -0.206 F
HETATM   21  F2  UNL     1      22.822  -7.897   7.164  1.00  0.00    -0.206 F
ENDBRANCH   5  18
TORSDOF 7
ENDMDL