MODEL 4
REMARK VINA RESULT: -6.509315534      4.226      6.568
REMARK  6 active torsions:
REMARK  status: ('A' for Active; 'I' for Inactive)
REMARK    1  A    between atoms: O1_2  and  C2_3
REMARK    2  A    between atoms: C2_3  and  C3_6
REMARK    3  A    between atoms: C3_6  and  O2_7
REMARK    4  A    between atoms: O2_7  and  C4_8
REMARK    5  A    between atoms: C6_10  and  N1_11
REMARK    6  A    between atoms: N1_11  and  C7_13
ROOT
HETATM    1  C4  UNL     1      27.408  -4.875   4.763  1.00  0.00     0.160 A
HETATM    2  C5  UNL     1      27.297  -4.896   6.142  1.00  0.00     0.106 A
HETATM    3  C6  UNL     1      27.088  -3.617   6.634  1.00  0.00     0.120 A
HETATM    4  N2  UNL     1      27.075  -2.842   5.554  1.00  0.00    -0.284 N
ATOM      5  H2  UNL     1      26.939  -1.831   5.577  1.00  0.00     0.188 HD
HETATM    6  N3  UNL     1      27.257  -3.532   4.457  1.00  0.00    -0.278 N
ATOM      7  H3  UNL     1      27.284  -3.139   3.516  1.00  0.00     0.189 HD
ENDROOT
BRANCH   3   8
HETATM    8  N1  UNL     1      26.951  -3.352   7.875  1.00  0.00    -0.370 N
ATOM      9  H1  UNL     1      27.797  -3.119   8.395  1.00  0.00     0.161 HD
BRANCH   8  10
HETATM   10  C7  UNL     1      25.727  -3.351   8.599  1.00  0.00     0.087 C
HETATM   11  C8  UNL     1      25.976  -3.223  10.117  1.00  0.00     0.030 C
HETATM   12  C9  UNL     1      25.497  -4.562  10.552  1.00  0.00    -0.012 C
HETATM   13  C10 UNL     1      24.205  -4.739   9.743  1.00  0.00     0.011 C
HETATM   14  C12 UNL     1      26.113  -5.482   9.502  1.00  0.00     0.011 C
HETATM   15  C11 UNL     1      25.144  -4.736   8.571  1.00  0.00     0.009 C
ENDBRANCH   8  10
ENDBRANCH   3   8
BRANCH   1  16
HETATM   16  O2  UNL     1      27.608  -5.839   3.838  1.00  0.00    -0.326 OA
BRANCH  16  17
HETATM   17  C3  UNL     1      27.753  -7.158   3.727  1.00  0.00     0.289 C
BRANCH  17  18
HETATM   18  C2  UNL     1      26.563  -7.958   4.175  1.00  0.00     0.376 C
HETATM   19  F1  UNL     1      25.399  -7.195   4.150  1.00  0.00    -0.173 F
HETATM   20  F2  UNL     1      26.381  -9.028   3.274  1.00  0.00    -0.173 F
BRANCH  18  21
HETATM   21  O1  UNL     1      26.644  -8.503   5.425  1.00  0.00    -0.329 OA
HETATM   22  C1  UNL     1      25.590  -8.180   6.247  1.00  0.00     0.208 C
ENDBRANCH  18  21
ENDBRANCH  17  18
ENDBRANCH  16  17
ENDBRANCH   1  16
TORSDOF 6
ENDMDL