MODEL 5
REMARK VINA RESULT: -7.234454682      3.834      8.496
REMARK  6 active torsions:
REMARK  status: ('A' for Active; 'I' for Inactive)
REMARK       I    between atoms: N1_2  and  C2_4
REMARK    1  A    between atoms: C2_4  and  C3_6
REMARK    2  A    between atoms: N2_9  and  S1_10
REMARK    3  A    between atoms: S1_10  and  C6_13
REMARK    4  A    between atoms: C6_13  and  C7_14
REMARK    5  A    between atoms: C7_14  and  C8_15
REMARK    6  A    between atoms: C15_22  and  C16_23
ROOT
HETATM    1  C3  UNL     1      47.448  51.497  33.757  1.00  0.00     0.090 C
HETATM    2  C4  UNL     1      48.421  50.543  33.062  1.00  0.00     0.030 C
HETATM    3  C5  UNL     1      49.822  50.684  33.594  1.00  0.00     0.108 C
HETATM    4  N2  UNL     1      49.908  51.670  34.654  1.00  0.00    -0.210 NA
HETATM    5  C14 UNL     1      48.988  51.236  35.694  1.00  0.00     0.118 C
HETATM    6  C15 UNL     1      47.552  51.475  35.215  1.00  0.00     0.085 C
ENDROOT
BRANCH   4   7
HETATM    7  S1  UNL     1      51.522  51.637  35.275  1.00  0.00     0.211 S
HETATM    8  O2  UNL     1      52.132  53.005  35.148  1.00  0.00    -0.211 OA
HETATM    9  O3  UNL     1      51.397  51.229  36.728  1.00  0.00    -0.211 OA
BRANCH   7  10
HETATM   10  C6  UNL     1      52.534  50.489  34.431  1.00  0.00     0.158 C
BRANCH  10  11
HETATM   11  C7  UNL     1      52.945  49.287  35.227  1.00  0.00     0.021 C
BRANCH  11  12
HETATM   12  C8  UNL     1      54.214  49.412  35.993  1.00  0.00    -0.014 C
HETATM   13  C9  UNL     1      55.089  50.408  35.205  1.00  0.00     0.005 C
HETATM   14  C10 UNL     1      56.522  50.261  35.600  1.00  0.00     0.000 C
HETATM   15  C11 UNL     1      57.041  48.943  35.038  1.00  0.00     0.000 C
HETATM   16  C12 UNL     1      55.859  48.013  34.810  1.00  0.00     0.000 C
HETATM   17  C13 UNL     1      54.970  48.105  36.043  1.00  0.00     0.005 C
ENDBRANCH  11  12
ENDBRANCH  10  11
ENDBRANCH   7  10
ENDBRANCH   4   7
BRANCH   6  18
HETATM   18  C16 UNL     1      46.690  50.599  36.035  1.00  0.00     0.245 C
HETATM   19  C17 UNL     1      47.194  50.165  37.363  1.00  0.00     0.090 C
HETATM   20  F1  UNL     1      46.428  49.412  35.310  1.00  0.00    -0.206 F
HETATM   21  F2  UNL     1      45.399  51.138  36.199  1.00  0.00    -0.206 F
ENDBRANCH   6  18
BRANCH   1  22
HETATM   22  C2  UNL     1      46.163  51.326  33.099  1.00  0.00     0.222 C
HETATM   23  N1  UNL     1      45.055  52.216  33.159  1.00  0.00    -0.365 N
HETATM   24  C1  UNL     1      43.806  51.947  32.456  1.00  0.00     0.149 C
ATOM     25  H1  UNL     1      45.137  53.069  33.711  1.00  0.00     0.161 HD
HETATM   26  O1  UNL     1      45.986  50.275  32.389  1.00  0.00    -0.273 OA
ENDBRANCH   1  22
TORSDOF 6
ENDMDL