MODEL 3
REMARK VINA RESULT: -7.918872949      2.956      7.360
REMARK  7 active torsions:
REMARK  status: ('A' for Active; 'I' for Inactive)
REMARK    1  A    between atoms: O1_1  and  C1_3
REMARK    2  A    between atoms: C1_3  and  C2_4
REMARK    3  A    between atoms: C1_3  and  N1_11
REMARK    4  A    between atoms: N1_11  and  C7_12
REMARK    5  A    between atoms: N1_11  and  C11_19
REMARK    6  A    between atoms: N3_22  and  C14_23
REMARK    7  A    between atoms: C14_23  and  C15_24
ROOT
HETATM    1  N1  UNL     1      47.728  50.320  35.920  1.00  0.00    -0.352 N
ENDROOT
BRANCH   1   2
HETATM    2  C1  UNL     1      47.444  49.481  36.989  1.00  0.00     0.118 C
BRANCH   2   3
HETATM    3  O1  UNL     1      46.988  48.300  36.535  1.00  0.00    -0.349 OA
ATOM      4  H1  UNL     1      46.879  48.319  35.592  1.00  0.00     0.219 HD
ENDBRANCH   2   3
BRANCH   2   5
HETATM    5  C2  UNL     1      47.496  49.492  38.412  1.00  0.00     0.066 C
HETATM    6  C3  UNL     1      48.572  50.177  39.174  1.00  0.00     0.019 C
HETATM    7  C4  UNL     1      47.952  50.081  40.589  1.00  0.00     0.080 C
HETATM    8  C5  UNL     1      47.356  48.709  40.604  1.00  0.00     0.244 C
HETATM    9  F1  UNL     1      48.112  47.905  41.418  1.00  0.00    -0.206 F
HETATM   10  F2  UNL     1      46.071  48.727  41.110  1.00  0.00    -0.206 F
HETATM   11  C6  UNL     1      47.361  48.189  39.156  1.00  0.00     0.091 C
ENDBRANCH   2   5
ENDBRANCH   1   2
BRANCH   1  12
HETATM   12  C7  UNL     1      48.942  50.953  35.613  1.00  0.00     0.113 C
HETATM   13  C8  UNL     1      50.121  50.134  35.201  1.00  0.00     0.054 C
HETATM   14  C9  UNL     1      51.212  51.235  35.251  1.00  0.00     0.234 C
HETATM   15  N2  UNL     1      50.932  51.816  36.550  1.00  0.00    -0.073 N
HETATM   16  C10 UNL     1      49.491  51.964  36.591  1.00  0.00     0.257 C
ATOM     17  H22 UNL     1      51.315  51.284  37.332  1.00  0.00     0.277 HD
ATOM     18  H21 UNL     1      51.442  52.679  36.734  1.00  0.00     0.277 HD
ENDBRANCH   1  12
BRANCH   1  19
HETATM   19  C11 UNL     1      46.606  50.574  34.991  1.00  0.00     0.116 C
HETATM   20  C12 UNL     1      46.239  52.002  34.839  1.00  0.00     0.057 C
HETATM   21  C13 UNL     1      45.321  51.936  33.608  1.00  0.00     0.274 C
HETATM   22  N3  UNL     1      45.909  50.957  32.785  1.00  0.00     0.090 N
HETATM   23  C21 UNL     1      46.940  50.237  33.562  1.00  0.00     0.297 C
BRANCH  22  24
HETATM   24  C14 UNL     1      45.093  50.042  32.078  1.00  0.00     0.277 C
BRANCH  24  25
HETATM   25  C15 UNL     1      45.225  49.986  30.610  1.00  0.00     0.014 C
HETATM   26  C16 UNL     1      45.977  48.674  30.308  1.00  0.00     0.006 C
HETATM   27  C17 UNL     1      46.207  48.397  28.887  1.00  0.00     0.000 C
HETATM   28  C18 UNL     1      45.143  48.812  27.933  1.00  0.00     0.000 C
HETATM   29  C19 UNL     1      44.254  49.906  28.412  1.00  0.00     0.000 C
HETATM   30  C20 UNL     1      43.913  49.808  29.905  1.00  0.00     0.006 C
ENDBRANCH  24  25
ENDBRANCH  22  24
ENDBRANCH   1  19
TORSDOF 7
ENDMDL