MODEL 3
REMARK VINA RESULT: -6.515406646      8.304      9.897
REMARK  8 active torsions:
REMARK  status: ('A' for Active; 'I' for Inactive)
REMARK    1  A    between atoms: N1_2  and  C2_3
REMARK    2  A    between atoms: N1_2  and  C8_13
REMARK    3  A    between atoms: C2_3  and  C3_4
REMARK    4  A    between atoms: C3_4  and  N2_5
REMARK    5  A    between atoms: C8_13  and  O1_14
REMARK    6  A    between atoms: C8_13  and  C9_16
REMARK    7  A    between atoms: C17_24  and  C18_25
REMARK    8  A    between atoms: C18_25  and  C19_26
ROOT
HETATM    1  C9  UNL     1      47.779  47.230  32.296  1.00  0.00     0.049 C
HETATM    2  C10 UNL     1      47.693  45.716  32.627  1.00  0.00     0.027 C
HETATM    3  C11 UNL     1      48.425  44.891  31.628  1.00  0.00    -0.012 C
HETATM    4  C12 UNL     1      49.922  45.152  31.819  1.00  0.00     0.009 C
HETATM    5  C13 UNL     1      50.106  46.627  31.596  1.00  0.00    -0.012 C
HETATM    6  C14 UNL     1      49.715  46.921  30.168  1.00  0.00     0.013 C
HETATM    7  C15 UNL     1      48.268  46.697  29.951  1.00  0.00     0.016 C
HETATM    8  C16 UNL     1      48.057  45.211  30.202  1.00  0.00     0.013 C
HETATM    9  C17 UNL     1      47.331  47.428  30.907  1.00  0.00    -0.054 C
HETATM   10  C20 UNL     1      49.280  47.464  32.493  1.00  0.00     0.027 C
ENDROOT
BRANCH   1  11
HETATM   11  C8  UNL     1      47.059  47.892  33.372  1.00  0.00     0.126 C
BRANCH  11  12
HETATM   12  N1  UNL     1      46.514  49.155  33.570  1.00  0.00    -0.364 N
HETATM   13  C1  UNL     1      45.125  49.450  33.664  1.00  0.00     0.152 C
BRANCH  12  14
HETATM   14  C2  UNL     1      47.485  50.276  33.670  1.00  0.00     0.168 C
BRANCH  14  15
HETATM   15  C3  UNL     1      48.217  50.330  34.946  1.00  0.00     0.083 C
BRANCH  15  16
HETATM   16  N2  UNL     1      47.601  50.874  36.082  1.00  0.00    -0.369 N
HETATM   17  C4  UNL     1      48.088  52.118  36.580  1.00  0.00     0.154 C
HETATM   18  C5  UNL     1      49.174  51.926  37.634  1.00  0.00     0.252 C
HETATM   19  N3  UNL     1      48.602  51.200  38.720  1.00  0.00    -0.069 N
HETATM   20  C6  UNL     1      48.049  49.948  38.319  1.00  0.00     0.277 C
ATOM     21  H32 UNL     1      49.279  51.076  39.472  1.00  0.00     0.277 HD
ATOM     22  H31 UNL     1      47.910  51.764  39.212  1.00  0.00     0.277 HD
HETATM   23  C7  UNL     1      47.194  49.976  37.089  1.00  0.00     0.090 C
ENDBRANCH  15  16
ENDBRANCH  14  15
ENDBRANCH  12  14
ENDBRANCH  11  12
BRANCH  11  24
HETATM   24  O1  UNL     1      46.879  47.086  34.412  1.00  0.00    -0.349 OA
ATOM     25  H1  UNL     1      47.686  46.680  34.706  1.00  0.00     0.219 HD
ENDBRANCH  11  24
ENDBRANCH   1  11
BRANCH   9  26
HETATM   26  C18 UNL     1      46.832  48.699  30.402  1.00  0.00     0.093 C
BRANCH  26  27
HETATM   27  C19 UNL     1      45.631  48.938  29.623  1.00  0.00     0.408 C
HETATM   28  F1  UNL     1      45.329  48.141  28.564  1.00  0.00    -0.167 F
HETATM   29  F2  UNL     1      45.866  50.183  28.963  1.00  0.00    -0.167 F
HETATM   30  F3  UNL     1      44.503  49.276  30.366  1.00  0.00    -0.167 F
ENDBRANCH  26  27
ENDBRANCH   9  26
TORSDOF 8
ENDMDL