MODEL 1
REMARK VINA RESULT: -7.127823999      0.000      0.000
REMARK  9 active torsions:
REMARK  status: ('A' for Active; 'I' for Inactive)
REMARK    1  A    between atoms: C2_2  and  C3_3
REMARK    2  A    between atoms: C3_3  and  C5_5
REMARK    3  A    between atoms: C5_5  and  N1_6
REMARK    4  A    between atoms: N1_6  and  C6_8
REMARK    5  A    between atoms: C6_8  and  O1_9
REMARK    6  A    between atoms: C6_8  and  N2_11
REMARK    7  A    between atoms: N3_14  and  C9_15
REMARK    8  A    between atoms: C9_15  and  C10_16
REMARK    9  A    between atoms: N4_21  and  C13_22
ROOT
HETATM    1  N2  UNL     1      47.572  51.587  35.483  1.00  0.00    -0.345 N
HETATM    2  C7  UNL     1      48.336  51.485  34.276  1.00  0.00     0.146 C
HETATM    3  C8  UNL     1      47.516  50.658  33.241  1.00  0.00     0.137 C
HETATM    4  N3  UNL     1      46.426  51.507  32.862  1.00  0.00    -0.396 N
HETATM    5  C18 UNL     1      45.889  52.269  33.959  1.00  0.00     0.137 C
HETATM    6  C19 UNL     1      46.134  51.624  35.327  1.00  0.00     0.146 C
ENDROOT
BRANCH   4   7
HETATM    7  C9  UNL     1      45.440  50.948  32.000  1.00  0.00     0.090 C
HETATM    8  C11 UNL     1      45.142  51.929  30.898  1.00  0.00     0.067 C
HETATM    9  C12 UNL     1      45.895  51.505  29.648  1.00  0.00     0.275 C
HETATM   10  N4  UNL     1      45.314  50.311  29.127  1.00  0.00     0.092 N
HETATM   11  C16 UNL     1      45.313  49.275  30.124  1.00  0.00     0.275 C
HETATM   12  C17 UNL     1      46.052  49.687  31.375  1.00  0.00     0.067 C
BRANCH   7  13
HETATM   13  C10 UNL     1      44.165  50.492  32.617  1.00  0.00     0.380 C
HETATM   14  F1  UNL     1      43.094  50.372  31.785  1.00  0.00    -0.212 F
HETATM   15  F2  UNL     1      44.333  49.394  33.468  1.00  0.00    -0.212 F
ENDBRANCH   7  13
BRANCH  10  16
HETATM   16  C13 UNL     1      44.038  50.504  28.522  1.00  0.00     0.215 C
HETATM   17  C14 UNL     1      44.170  51.378  27.290  1.00  0.00     0.042 C
HETATM   18  C15 UNL     1      43.501  49.154  28.051  1.00  0.00     0.042 C
ENDBRANCH  10  16
ENDBRANCH   4   7
BRANCH   1  19
HETATM   19  C6  UNL     1      48.161  51.639  36.741  1.00  0.00     0.215 C
BRANCH  19  20
HETATM   20  N1  UNL     1      48.563  50.514  37.477  1.00  0.00    -0.356 N
ATOM     21  H1  UNL     1      49.125  49.790  37.031  1.00  0.00     0.163 HD
BRANCH  20  22
HETATM   22  C5  UNL     1      48.183  50.378  38.860  1.00  0.00     0.127 C
BRANCH  22  23
HETATM   23  C3  UNL     1      47.166  49.283  38.981  1.00  0.00    -0.001 C
HETATM   24  C4  UNL     1      47.552  48.163  38.030  1.00  0.00     0.011 C
BRANCH  23  25
HETATM   25  C2  UNL     1      47.063  48.767  40.403  1.00  0.00     0.001 C
HETATM   26  C1  UNL     1      48.332  49.233  41.123  1.00  0.00     0.005 C
ENDBRANCH  23  25
ENDBRANCH  22  23
ENDBRANCH  20  22
ENDBRANCH  19  20
BRANCH  19  27
HETATM   27  O1  UNL     1      48.359  52.801  37.293  1.00  0.00    -0.333 OA
ATOM     28  H1  UNL     1      47.837  53.005  38.061  1.00  0.00     0.220 HD
ENDBRANCH  19  27
ENDBRANCH   1  19
TORSDOF 9
ENDMDL