MODEL 5
REMARK VINA RESULT: -7.633525074      3.616      7.086
REMARK  5 active torsions:
REMARK  status: ('A' for Active; 'I' for Inactive)
REMARK       I    between atoms: C2_2  and  N1_4
REMARK    1  A    between atoms: C6_8  and  N2_9
REMARK       I    between atoms: N2_9  and  C7_11
REMARK    2  A    between atoms: C7_11  and  C8_13
REMARK    3  A    between atoms: C8_13  and  C9_14
REMARK    4  A    between atoms: C8_13  and  C14_22
REMARK    5  A    between atoms: C9_14  and  N3_15
ROOT
HETATM    1  C8  UNL     1      48.180  50.620  36.382  1.00  0.00     0.110 C
ENDROOT
BRANCH   1   2
HETATM    2  C7  UNL     1      47.272  50.075  35.320  1.00  0.00     0.224 C
HETATM    3  N2  UNL     1      46.747  50.903  34.304  1.00  0.00    -0.354 N
ATOM      4  H2  UNL     1      46.979  51.896  34.285  1.00  0.00     0.162 HD
HETATM    5  O2  UNL     1      47.005  48.851  35.377  1.00  0.00    -0.273 OA
BRANCH   3   6
HETATM    6  C6  UNL     1      45.890  50.349  33.301  1.00  0.00     0.102 C
HETATM    7  C5  UNL     1      44.507  50.991  33.552  1.00  0.00     0.028 C
HETATM    8  C4  UNL     1      43.550  50.094  32.753  1.00  0.00     0.022 C
HETATM    9  C3  UNL     1      43.829  50.338  31.309  1.00  0.00     0.126 C
HETATM   10  N1  UNL     1      45.125  50.966  31.060  1.00  0.00    -0.350 N
HETATM   11  C2  UNL     1      45.217  51.845  29.962  1.00  0.00     0.215 C
HETATM   12  C20 UNL     1      46.274  50.716  31.883  1.00  0.00     0.150 C
HETATM   13  C1  UNL     1      46.436  52.569  29.536  1.00  0.00     0.117 C
HETATM   14  O1  UNL     1      44.178  52.068  29.235  1.00  0.00    -0.274 OA
ENDBRANCH   3   6
ENDBRANCH   1   2
BRANCH   1  15
HETATM   15  C9  UNL     1      47.678  50.271  37.736  1.00  0.00     0.287 C
BRANCH  15  16
HETATM   16  N3  UNL     1      48.381  49.378  38.555  1.00  0.00     0.095 N
HETATM   17  C10 UNL     1      47.520  48.188  38.751  1.00  0.00     0.278 C
HETATM   18  C11 UNL     1      46.690  48.530  39.934  1.00  0.00     0.111 C
HETATM   19  C12 UNL     1      47.769  49.088  40.863  1.00  0.00     0.271 C
HETATM   20  F1  UNL     1      47.196  50.012  41.705  1.00  0.00    -0.204 F
HETATM   21  F2  UNL     1      48.331  48.017  41.525  1.00  0.00    -0.204 F
HETATM   22  C13 UNL     1      48.746  49.724  39.882  1.00  0.00     0.351 C
ENDBRANCH  15  16
ENDBRANCH   1  15
BRANCH   1  23
HETATM   23  C14 UNL     1      49.610  50.348  36.161  1.00  0.00     0.000 C
HETATM   24  C15 UNL     1      49.899  50.137  34.642  1.00  0.00     0.005 C
HETATM   25  C16 UNL     1      51.281  49.517  34.631  1.00  0.00     0.000 C
HETATM   26  C17 UNL     1      52.297  50.361  35.330  1.00  0.00     0.000 C
HETATM   27  C18 UNL     1      51.791  51.616  35.926  1.00  0.00     0.000 C
HETATM   28  C19 UNL     1      50.384  51.648  36.405  1.00  0.00     0.005 C
ENDBRANCH   1  23
TORSDOF 5
ENDMDL