MODEL 4
REMARK VINA RESULT: -7.159427806      1.297      1.771
REMARK  6 active torsions:
REMARK  status: ('A' for Active; 'I' for Inactive)
REMARK       I    between atoms: N1_2  and  C2_3
REMARK    1  A    between atoms: N1_2  and  C13_22
REMARK    2  A    between atoms: C2_3  and  C3_5
REMARK    3  A    between atoms: C3_5  and  C4_6
REMARK    4  A    between atoms: C4_6  and  C5_7
REMARK       I    between atoms: C5_7  and  N2_9
REMARK    5  A    between atoms: N2_9  and  C6_11
REMARK       I    between atoms: N3_14  and  C9_15
REMARK    6  A    between atoms: C9_15  and  C10_17
ROOT
HETATM    1  C5  UNL     1      51.590  49.508  33.700  1.00  0.00     0.218 C
HETATM    2  O2  UNL     1      51.766  50.655  33.220  1.00  0.00    -0.274 OA
HETATM    3  N2  UNL     1      50.577  49.328  34.668  1.00  0.00    -0.355 N
ATOM      4  H2  UNL     1      50.418  48.404  35.069  1.00  0.00     0.162 HD
ENDROOT
BRANCH   1   5
HETATM    5  C4  UNL     1      52.406  48.367  33.280  1.00  0.00     0.112 C
BRANCH   5   6
HETATM    6  C3  UNL     1      53.826  48.776  33.050  1.00  0.00     0.112 C
BRANCH   6   7
HETATM    7  C2  UNL     1      54.721  47.654  33.404  1.00  0.00     0.220 C
HETATM    8  N1  UNL     1      55.304  47.529  34.709  1.00  0.00    -0.352 N
HETATM    9  C1  UNL     1      55.057  48.486  35.758  1.00  0.00     0.153 C
HETATM   10  O1  UNL     1      54.952  46.807  32.511  1.00  0.00    -0.273 OA
BRANCH   8  11
HETATM   11  C13 UNL     1      56.156  46.420  34.977  1.00  0.00     0.086 C
HETATM   12  C14 UNL     1      55.998  45.859  36.368  1.00  0.00     0.025 C
HETATM   13  C15 UNL     1      57.045  44.741  36.490  1.00  0.00     0.002 C
HETATM   14  C16 UNL     1      58.362  45.475  36.771  1.00  0.00     0.000 C
HETATM   15  C17 UNL     1      58.364  46.835  36.109  1.00  0.00     0.002 C
HETATM   16  C18 UNL     1      57.603  46.830  34.804  1.00  0.00     0.025 C
ENDBRANCH   8  11
ENDBRANCH   6   7
ENDBRANCH   5   6
ENDBRANCH   1   5
BRANCH   3  17
HETATM   17  C6  UNL     1      49.768  50.438  35.092  1.00  0.00     0.104 C
HETATM   18  C7  UNL     1      48.369  50.370  34.491  1.00  0.00     0.046 C
HETATM   19  C8  UNL     1      47.588  51.176  35.538  1.00  0.00     0.128 C
HETATM   20  N3  UNL     1      48.076  50.562  36.752  1.00  0.00    -0.345 N
HETATM   21  C9  UNL     1      47.282  50.183  37.858  1.00  0.00     0.292 C
HETATM   22  C12 UNL     1      49.501  50.432  36.583  1.00  0.00     0.151 C
HETATM   23  O3  UNL     1      46.028  50.371  37.844  1.00  0.00    -0.267 OA
BRANCH  21  24
HETATM   24  C10 UNL     1      47.908  49.554  39.061  1.00  0.00     0.319 C
HETATM   25  C11 UNL     1      46.846  48.876  39.890  1.00  0.00     0.101 C
HETATM   26  F1  UNL     1      48.830  48.592  38.702  1.00  0.00    -0.196 F
HETATM   27  F2  UNL     1      48.520  50.502  39.836  1.00  0.00    -0.196 F
ENDBRANCH  21  24
ENDBRANCH   3  17
TORSDOF 6
ENDMDL